# total energy = -381170.6961531401 ev
CRYSTAL
PRIMVEC
9.25180641157293 0.00000000000000 0.00000000000000

0.00000000000000 9.25180641157293 0.00000000000000

0.00000000000000 0.00000000000000 13.54095387025583

PRIMCOORD
 96 1
Ni 2.7456215249765785 0.33003320705681244 2.885915914511582 0.5005166524075252 -1.1892336853458036 1.5608007724640924
Ni 5.687843932149071 5.847150783468196 4.645318951027426 1.7480171918150216 -0.27739194919576093 -1.5429521743184458
Ni 6.953870347234761 1.1816406905440942 7.761823183068329 -1.2760847788030927 -1.2944367989477192 -0.884262283869877
Ni 1.288388030721809 1.30701191664465 4.859686076709496 0.31490434431892217 -1.2710438739450753 -0.949390640938094
Ni 5.642667362372005 8.167679568009216 9.689987491680522 0.5468888119141614 1.1002151519235503 -0.3624306720346597
Ni 3.2847242734733246 5.334424934507476 12.994291362659316 -0.837146561328997 0.6274332464271324 0.042192574207649915
Ni 2.8789215490085183 2.251473302907595 6.492467042923706 -1.0160901991481726 -0.00847795556402411 -0.740776215527363
Ni 4.008641103040449 3.7835909167150104 10.448185964018883 -0.6659753683663885 -0.8063054075784243 -0.4691612780246952
Ni 7.108171971388334 3.3031908786904087 5.61344275688116 -0.9368835096100188 0.7542382545695397 -2.690997044130765
Ni 2.264897673734243 6.2707077240710705 1.6144337092973773 1.7733600414551847 0.051555760590104756 -0.13074008153075548
Ni 5.220636969795592 4.519932922036916 12.318544062181743 2.1109965372643003 1.352531389097606 -0.3253923883344396
Ni 7.918611692734102 0.1679239836333505 13.115997948315739 1.7486270574848788 -0.03379792238605147 0.03455459804641791
Ni 8.45416174764199 8.683967362365015 8.696893986016974 0.4875986587942764 1.4085315586123097 -0.480285927182947
Ni 7.254776092766049 0.9800900920199547 10.09971020644116 0.07732721312725392 -0.5096533246014706 0.7156470245599029
Ni 6.007244038316106 8.877986990625274 11.96853713067445 -1.4111324865702666 0.8600252656993833 -0.309717400801344
Ni 8.19741487320346 2.1780602205440855 3.4515620950563313 -0.1555507128165321 -0.5317658402297938 -0.014877174222148572
Ni 0.32707355424671963 5.695569190343591 3.308691077488784 1.0857107876597882 -0.941902560091165 1.5124532343986405
Ni 0.8415183888032984 5.612043883780547 12.466072439000936 1.8115514649232416 -0.18426376448050844 0.641936839359946
Ni 7.922182889935402 8.118459958913581 10.96646659743468 1.5730006569643942 0.2728536950057752 -0.4032618471184087
Ni 7.033176830161036 3.470000944854753 7.716569823299629 -0.4620694041749204 -0.6237830512690548 2.3018585237876166
Ni 3.4006864126471394 7.438553971539678 3.715461540884305 -0.4019978928043206 -1.1166195614235026 0.09729491449843243
Ni 5.560280027974141 3.1273140424295 3.7209728418501453 0.6946398261806166 -0.2123939470578213 -1.1684064641878071
Ni 6.366232623302732 7.519831089191023 6.723503147874122 -0.21192574917215112 2.2606568527383257 1.0777251983511502
Ni 1.4275536998978524 8.013202159537444 8.538316177028062 -0.1778259792749647 0.055381047873465906 0.3708165821055098
P 1.7852747874322041 3.591754714722904 13.065503440322852 -0.4134979230241202 0.5057568177605419 0.7251032848767964
Ni 0.07399779651667533 6.759647179237641 1.403520282877602 -0.6837236934887451 0.7521446052653046 -1.422728676048298
P 4.564138052160779 0.7404673857158435 13.120534108905888 -0.19246378379279758 -1.2453878639398683 0.10590142522052083
Ni 0.5440450633799955 0.8533144417350532 10.517055484347265 -0.47218206712889005 -0.11783082966825513 -0.3136265060477631
P 2.013951681796269 4.335636942114912 6.22412673010966 0.31694091513297673 -0.7201289715906565 0.37538260420963737
P 5.0046443017604965 9.091315138468726 7.832818768466295 -0.6739231624585554 0.484028939165147 -0.8545704132323994
P 7.2195452146765415 7.468705608013865 4.803761683645512 0.08090310340397035 -0.27618455915122114 -2.0492404391024257
Ni 3.2714386797399913 7.928705413321197 13.21181335426274 -0.32349697108393966 0.07011963963522116 -1.619023403551412
Ni 6.342742287307653 0.1930657670388749 1.1647061844372046 -1.225992490132392 0.8793386213160147 1.06230886379608
Ni 5.165255657756782 6.046786258104592 1.9269180903142271 0.9130056745511566 3.035367259119288 0.11797583988655166
Ni 1.5089603428362919 8.9669708628587 1.0987694866808728 -1.0709554837274848 -0.4162086370870639 -0.571951411309744
Ni 9.122558488076988 1.8899959820475236 8.480373965027283 0.11082740176722848 0.48415698010257907 -0.25681592481662224
Ni 6.2257902048681935 2.9806451584082385 9.789228841471152 -0.10827223944554255 0.6028889814288649 1.0966639442371824
Ni 7.421826705892138 2.563407201454296 1.1676861912209837 -1.1566701495874856 -0.9901266852048753 -0.05269964438656085
Ni 7.641945679501793 4.561686323512219 3.188501788052601 -1.3244845102627187 -0.41650097151650206 -0.768626919191044
Ni 4.2540730184707165 1.7821939359606165 1.4469047777896629 0.9060744946489621 -0.8887732843663532 1.579326599182422
Ni 2.1240481758259806 6.074828482760395 7.456055613367913 -1.0847499664084157 -1.0607204362630378 0.29556527767067803
Ni 4.079657967592723 6.828471365715542 8.508877854813512 -0.020328941365339186 0.32580479328150985 -0.3647104692077719
Ni 5.61780775905622 4.106710248982881 1.2905002180820597 -1.5090560357916332 -3.4146718240911516 -0.6531447922606235
Ni 3.112307612739064 2.404747976570639 3.7821781659050657 1.7098530220404746 1.0833823966369278 1.0624057943852607
Ni 3.791454952002846 2.735426034521054 12.970920374964487 -0.20249211456307706 1.4069912107083833 -1.2620774087804072
Ni 8.18510071912333 5.525520992001904 5.4257652417853866 0.08944045145102017 0.9087571836874478 0.39247658357744664
Ni 0.9984086683375032 3.6723749541325597 11.078328336091356 -0.48962134565126 -1.7115291241913169 -0.7066941862419894
Ni 0.29022731079102826 6.457455432641636 10.20538341191662 -2.457990048808283 0.5113219705531452 -0.6443091962468646
Ni 4.451349282520761 3.750349176963014 5.578006488693546 -0.4294320777558733 2.2568235950351645 -0.16542477739713446
Ni 2.3875211133871668 0.974048662557652 12.268632417980779 1.4808610614146562 -0.11594518260976806 0.26894870352441425
Ni 7.18709913025955 0.3448851315833583 4.940660660297414 -2.3738740948939694 0.941790974213965 -1.0878728283081134
Ni 8.866079916018867 8.746463313387762 6.07990124811136 0.9756963687121584 -2.2645330478642807 1.092220306643532
Ni 5.900672482456589 7.385809424273846 13.72592327343412 0.4745474820372731 -1.4016422876916443 -0.6953517646459767
Ni 4.241268518660874 8.181131694254528 1.6559909724807937 0.38589635925676763 0.9596202890859021 0.6242206530271056
Ni 0.8786884454767243 8.490697130408657 12.19055457492065 -0.44064003065655083 -1.8942741380344537 0.504361480074912
Ni 3.857041006303403 5.017439549764118 3.2046693194237705 -1.5686778612193242 -1.5274494506971565 2.499927055361701
P 1.1284520565796563 0.7968534439102533 6.977193225537239 0.792768549434254 -0.13180297557763107 0.6041696479135015
Ni 6.267737894274135 5.398715735937095 7.105019881008845 -1.047634035392725 -0.7810180937665453 -0.05816786658998369
P 8.03157624669232 2.617900340095893 11.27400866356828 0.26046149198900953 -0.3264527112781539 -0.4625939092198227
Ni 2.0639761980331306 3.1561334188078662 8.452426108794933 -0.5875240689370205 1.025817967958898 0.3935767586201609
P 1.2733260901940469 7.670737300461496 3.109355361373948 0.9891452951282127 0.38540682121485886 0.4106709950982863
P 6.452635241600503 6.715904639424828 11.446398494064502 -0.6814138144086458 -1.4508943398492367 0.320058634826352
P 7.254461531354535 5.185489357962074 0.8003274971462329 1.5275512663823434 1.1678487919121243 0.004363162064702163
Ni 7.755391327383501 4.664335113534037 11.863270079492091 -1.0711812265850456 0.15974546762417002 1.9195624802875975
Ni 2.8493712799386945 8.774200228438273 10.420671092317676 0.4987194512977863 -0.653449467985236 0.20595950428638723
Ni 8.262621603448956 6.658469426404958 12.939382817918398 -2.459236262510558 1.7887586353984422 0.09001535011788368
Ni 0.3510496100684001 1.8603161876906065 12.728130775390934 -0.9991844245317695 0.8012035675754847 1.2823022204677141
Ni 4.618751464283248 1.251695367249386 10.583162415338062 -0.26634983244898647 0.15686608919384595 0.20593610724761952
Ni 8.796395311562414 -0.25288332016064785 3.221338298692118 1.184693631383605 1.078770094675897 -0.011794935752399042
Ni 2.7348339189229107 0.852108931384459 8.5033258459003 0.020086229226913794 -0.7129661352936302 -0.5300791965559903
Ni 4.846410659963005 8.481130762776159 5.1254266319754445 0.7319154227026233 -0.5072038346197135 0.8822403683438419
Ni 4.020862739058369 6.2771932402319806 5.933388719615233 -1.6734102058324083 -0.07272031048286187 0.946663214704602
Ni 0.45324968748850136 3.537437360399506 4.6678915078453835 -0.39012171019202496 0.8975006369370221 1.7143732785083314
Ni 3.026663642551414 3.810624694492726 1.3604864314213165 0.9067936322031738 2.557615154101789 -0.688290229813505
Ni 6.059803549457516 2.3571011745325707 12.493615066120807 1.3498173326005527 -0.8826370895616282 -0.2183375662357659
Ni 7.451941335141441 6.747712349212571 8.879994632575228 -0.7099790276408482 -1.885056733201244 0.3452204788039603
Ni 7.321472363813123 7.533514510591859 2.3942027678399613 -1.819532169135873 -1.2658538451037038 0.27097190460203013
Ni 2.126666436986519 5.1527102085211265 9.79390100361275 1.6578786858557129 -0.14051875818407414 -1.1564485204949826
Ni 4.9075003364401635 1.5861296585255207 5.6329011557251345 1.320769523304977 -1.1508944234459726 0.6741296220424068
Ni 1.7745149367971995 2.143995070038422 1.931494958851748 -2.9370120216771416 -1.9026780458274326 -1.4126211553006511
Ni 5.1044712908849155 0.7714970186004021 3.501826233074316 0.09383703785681904 -0.15275875189369173 -1.5571755170066794
Ni 1.4182833900644263 7.166800667410711 5.516137810132582 -0.3230981929836242 -0.20953462323215527 -1.243212453555104
Ni 4.296270506644625 6.650374095961597 10.953304052724086 -0.762288635677842 -0.5170753280971546 0.8978263957075571
Ni 9.109476434080518 4.237317997404514 7.392832470376196 1.6512704365105755 0.9366675369444708 -0.5326371870911536
Ni 4.646617904620852 2.177930695256992 8.135391689478604 0.8362471894431791 -0.21025633188952822 0.048421071615864994
Ni 8.62298870756251 1.7548918558024922 6.030463296388909 -0.012247964129417616 1.3600703777871286 0.9118247668691779
Ni 5.778317345184075 5.2997121575663435 9.637786950620486 0.14422783160454516 0.053177612464243906 0.146454921162851
Ni 3.020122615553178 8.397707226081545 6.814850856597009 0.8300991675639123 0.43487407470705103 -0.5613299270401558
P 9.055094317113573 1.1572251739269168 1.3561260551493666 -0.6636006974866249 -0.3140504809590592 0.26633697693318
Ni 4.0731909550442555 4.467021842259109 7.762324630965506 -0.27439481424065 0.5037099625338421 0.908063757164849
P 1.7161360395427896 3.9192316477208586 3.089368684394756 0.35696116427965624 1.8843303965581808 -0.5192407111795897
Ni 9.165690408679218 3.9459323604746186 0.9859409342741051 1.771801181608497 1.2521886889117855 0.022999289108650716
P 8.960716641853313 6.80316767570115 7.434714471957969 1.3634611486362325 -0.4912359984365476 -0.8826661430273508
P 2.09264754551196 6.876053405110063 10.966534135620094 1.567230073029204 0.9865968176747459 2.122627436635009
P 2.415248776631456 1.9734842813856845 10.271869666962475 0.8283338481333734 0.7934496346616787 0.6963650364018394
Ni 8.368628799128992 4.463876228143974 9.78213363128028 -0.1478371462223583 -0.9542816504818081 -2.65308509957634
