# total energy = -340889.42698636506 ev
CRYSTAL
PRIMVEC
9.07133700679134 0.00000000000000 0.00000000000000
0.00000000000000 9.07133700679134 0.00000000000000
0.00000000000000 0.00000000000000 13.27681865423980
PRIMCOORD
 96 1
Ni 6.419059638931156 1.994587483803319 11.464174543523947 0.5797616513827821 0.04202673805374698 0.5719334135876151
Ni 4.417414654775828 0.2828615298538586 6.050086626311856 0.5535279144972338 -1.2279910086196593 -0.7614764241891918
Ni 2.6441950129905933 1.2934184738951993 4.92013727753663 -0.46503645722304426 0.8911093886986975 -0.8240375347508647
Ni 3.4235317356663986 4.5269329089529515 4.993624180302211 0.23573390733534244 0.451319621857584 0.0027683067737565227
Ni 5.269603286612279 4.599186109857514 2.73610035883422 -0.5705601873891722 -1.1379394059472014 -0.7630409404628342
Ni 7.092796925106018 6.11032574821102 2.7224253179850515 1.4082911604667294 -1.2694605886183556 -0.44993842523934124
Ni 5.575815345587096 4.2845377072742545 11.827083367216105 -0.6140753370629876 0.8109562760868744 -0.9445525961195023
Ni 5.853933473212079 7.992619148649922 12.589345111855167 -0.7454437962063613 -0.24176802934456423 -0.5489858036525062
Ni 1.9882284764167406 6.314022625337442 0.1814194871978067 -0.06537106920664226 -0.1992710365226181 0.9942260520852296
Ni 2.425485072776029 1.7613180473612815 0.3344647387258856 0.8403586405083914 0.05186403585914293 1.039466669090584
Ni 0.7508917305758134 8.654500197086898 4.2609821659322735 0.16765315250702092 1.08764991366403 -0.3950111770738423
Ni 8.655969753715466 2.2501633384530555 1.2281021245577075 0.7043058885154709 0.4527501836565234 1.034248101004122
Ni 6.70061580336001 1.0189651665044217 4.6350705056061985 0.050074548058887954 -1.0067452675981632 -0.08926587354636885
Ni 0.6370437271467445 6.86551457122481 2.320840848083654 -0.6648535960571196 1.4822126903465442 0.7573230641424505
Ni 7.593126529109929 3.5374495883920107 3.730772484281213 -0.11453493252580274 0.30188530635143496 -0.15318966878352328
Ni 7.892408086453725 3.9737264803322545 12.697856447601605 -0.4851422268339838 -1.417124185377327 -1.2883476553308457
Ni 8.267036170691846 9.084309225594001 6.0970734316759945 -0.22247987053891363 -1.5110563540511137 0.3166041006188483
Ni 6.681302926432726 0.9282245803589928 0.5570472327968417 0.47895898084140737 -1.3040596667494637 -0.7590652436445379
Ni 1.8543173964728419 6.58307848708626 9.399602600253132 -1.0868155906881927 0.14815673434530616 -1.049906119256353
Ni 0.045890987828762365 4.84284222740887 1.167573627001437 0.7306326993354578 0.05705046515608885 1.3208610545775188
Ni 6.361719716405388 1.5658216590757534 6.870554606180564 0.06782801538756705 0.6784652733032832 0.8002939112770218
Ni 3.6472490540227485 4.557612171408598 0.7553539213510744 -0.4641663959132651 0.05801360040030654 -0.5425433904612722
Ni 5.835790798785321 5.65169708137701 4.765196116530954 1.3208759669758543 0.12946532858338994 1.8308429661630017
Ni 5.156039216037989 2.772672361943678 9.560929075523305 -0.18436249484190187 -0.7591986838986086 -0.6994992111554469
P 0.2594447799712424 5.683219978193502 12.188850109553096 -0.08184566982289776 0.03173178388564212 -0.023649778208456044
P 4.395180807265836 6.180311114812238 12.53275901745183 -0.8649774674983361 -0.7489551517937296 -0.7033818340393048
P 2.2288819813504688 8.20669363554845 1.4687211584100246 -0.1524867291792277 0.4144505167453766 0.5425269354010398
P 6.237106757105202 7.965377922998145 5.840724699095678 0.5989557078127298 0.1616326573445539 -0.02923344294382062
P 4.606633677709698 1.196536592456313 13.01010094582332 -0.13481476582076135 -0.6102942727540006 -0.9716638505139976
P 4.10975118184687 5.885247729272662 8.193258078001714 -0.789875287046859 0.702122764821223 -0.6993763124243374
P 4.5957571443908565 1.1138150684075112 3.7631680437376316 -0.7005633907539032 -0.05500618103255043 0.27721557151889675
P -0.049064141586002294 5.2709549158570725 3.922025301018323 0.5529427314177251 0.4564438304580268 -2.2431887778605497
Ni 1.7661621414332258 1.169023226688135 2.5584427551788016 -0.9028554734910322 -0.25791867096249776 -0.011810619481682886
Ni 1.6585579394081256 6.4628379123229225 4.739067943955258 0.42938451234738956 0.197749200561453 1.1490483713761694
Ni 6.0970725245422726 5.771021451081796 9.156584197707875 -0.591266309588272 0.33968360814613113 0.058378954159525265
Ni 8.830828849840556 2.2000804856979905 10.048082562224783 -1.0136324816362994 0.37860908156673506 0.23121545063969856
Ni 2.0848563604136525 5.405618916789682 7.061050873394077 2.111960700949782 0.5503947681848909 0.10632154347707495
Ni 0.6101762405881589 0.144690549954557 9.207182302416662 0.9020008388002209 -1.5563139403373325 0.8915894136589096
Ni 1.500399175092865 1.185396990358284 11.577717750022648 -0.47877360430347865 -0.46799708251326494 -0.7281199602159331
Ni 4.215595544452575 6.9422308700383555 1.3323290677382666 -0.22219987740464955 -0.7615162762881917 0.6032985581624578
Ni 5.506102119102279 7.998043808303522 8.010622124483593 0.12036028095832821 -1.186430925789686 0.2614544520298981
Ni 5.297688146624901 3.0652592724240004 4.7753659926808725 0.28731075097136966 -0.19828887511500687 0.3540239360282032
Ni 0.7164306276359084 7.416879518391192 7.248227031187494 -0.6765050642531188 0.8311312083728525 0.06414696699155405
Ni 5.420296340400929 4.230336467424316 7.440980247099697 0.16211679606982404 0.03001531541516766 -0.6325955073543621
Ni 7.919504170710089 7.301546537060293 9.038672235207214 0.8657032899207671 0.763192378439034 1.1185067511438864
Ni 4.524783002033381 0.43009749703048966 10.878906380656286 -0.1680583583652396 0.027062146324114682 -0.6399609465804978
Ni 8.188133679609876 7.021414572573939 4.55032425909137 -1.1026543574926624 1.1869703432329235 1.458233296712811
Ni 7.548341337287478 6.514272394322781 6.905061065806536 -1.3209687837999766 -1.0468899581378488 -1.0685597298017984
Ni 2.345013240356145 5.416241452666549 2.829542389201793 0.49760899184242685 -1.5883776536410967 -1.4724928919556188
Ni 2.569619549759406 5.39651129422745 11.247284313554387 -1.163565334045422 0.5859119872548941 3.1826220504756155
Ni 1.0112001018497694 3.4035566511225386 3.8409701816156185 0.8461834747202845 -0.6813888747079813 -0.10273254057423598
Ni 3.42562721456269 2.9582356359805564 2.852338659619014 0.9540690202503699 -0.22833401532684547 0.3066055946452397
Ni 1.2814261660991124 3.5072420354714593 8.168071510228767 -0.342260624844688 -0.523438294200705 0.14289574305668296
Ni 3.9490252291002235 2.5000968213560704 6.806879261744973 -0.9459600179899901 0.514086934892792 0.42285082499392984
Ni 4.052674328100291 6.942022229282448 6.055729905192298 -0.531908279344929 -0.5248266899077993 0.1149794762623891
Ni 0.8513921684291165 7.767686271106979 11.877773999564466 0.2586756037331803 -0.7343397158733999 -1.7768731968147657
P 0.029211520094522637 5.527047836727972 8.086445803715343 0.9717199005629135 -0.16011570647939521 1.2623298911108454
P 8.415198321397963 1.1443582608049578 7.913833677818005 -0.4469749717356431 1.4610046888103612 -0.9662205680112392
P 1.8022842062169004 3.0921920726105223 10.513182721026817 -0.0806022843340999 0.5158149733274924 -0.3012888104180166
P 4.132320668833757 6.267668092177075 3.6811041916368 -0.9960957583041168 0.2975419417810746 0.06451154941982438
P 6.878686152858636 3.976357168124134 10.033543930072902 1.2067480400804829 -0.5861860668518873 0.6883107986387953
P 6.228425487391999 7.983992306959998 10.303594917514026 -0.18973404356646034 -0.7448246745651237 -0.31742376830666624
P 2.120524858336658 8.290168080585962 5.951892122378194 1.1469596071679407 1.1285438236649146 -0.8215096261226885
P 7.122215271689005 3.8445869237625927 1.5763698099874706 -0.52500795268067 0.14501484628221478 0.07210221728288872
Ni 5.3547468576970525 3.0135526503077408 0.5664569308882795 0.05755414426538475 0.2731339452503554 0.08720616280386272
Ni 1.2944344636630978 1.2680096583605251 6.932079136562863 0.6976269338333986 -0.41369641218817144 0.5275502594865494
Ni 6.774628843683967 0.92765308611455 9.229208416304466 -1.005244000462288 -0.9332099174131735 0.633133125025387
Ni 2.7867601486360556 1.758197507359879 9.182818504928969 0.4972600931434404 -1.1044039931939174 -0.23528190739958832
Ni 6.203062028543392 1.8824838985203831 2.5835758020621893 -0.00010515811929659308 0.7670431196436919 -0.6305823335790752
Ni 4.017005830177284 6.897545462925251 10.292853547119664 2.0201419790745723 1.1239929710694383 0.11193143346468465
Ni 8.334046138687075 7.125027386225153 0.3696959981952065 -1.1644353953552011 -0.5520122491836558 -0.40936024670666277
Ni 7.806203168914986 3.40976144577649 7.866170150697748 0.06732202228542598 0.2622059854839419 1.396765162105001
Ni 3.0222883480442246 8.438820083501602 12.692744749081866 1.2719077646072676 0.36456905853390115 -0.16468712790016155
Ni 0.21912177892405196 4.599022825787673 10.130398597500147 -0.8771593542765086 1.0622060196696288 0.5815326272402759
Ni 8.526412915633989 2.3288027607558366 5.682013490344122 0.3950991088019582 0.46888668420706986 -0.14039200279822273
Ni 3.6416973956481606 2.9086517067722273 11.831942882561313 0.24218146273289906 -0.5642301314060864 -0.6216431221079165
Ni 1.388177662426155 3.8057525291521177 12.528736786531418 -0.5170645294638773 -0.5180155805232369 0.8096121033541541
Ni 2.8609999723903483 8.516624942780751 8.054992756195395 0.4563715824591947 -0.29434606055159634 0.2485089476128236
Ni 5.674756420573419 7.972544279396714 3.698098434772344 -1.0236505279939339 0.012831090326397258 0.0573584833148109
Ni 3.1454408220530565 8.348932203054229 3.618437579899336 0.07970651199270788 -1.1530616063006205 0.29039941719902246
Ni 3.433927488112931 4.308522322866428 9.657585080665578 1.1054427188710767 -0.3994013357217379 -2.707361601531718
Ni 7.314128481775248 5.982782746990912 11.301427496846161 0.30572036382680895 0.6486319919919344 0.058690057642040855
Ni 0.44702370513693335 0.01599186037346561 0.47049851157771516 0.2911293533865115 1.1553730280426167 0.6746438426746639
Ni 4.3042043663528595 0.16418303935866552 1.6971093082975433 0.40183694174642404 1.5483880006220365 -0.4329112945537254
Ni 6.2524917450190935 5.580886223089376 0.49450943404780767 -0.33475017540025576 0.19776385584947231 -0.461544899130018
Ni 7.976971091956844 8.920662302264647 11.215898393929818 -0.14100649645377006 -0.09917644779186145 -0.09400390245198648
Ni 0.11090798303821274 4.749597952192549 5.981525459653138 -0.03194698522024176 -0.6606866091636234 0.30043983215416
Ni 7.758578648544747 8.64463058219874 2.7423133176916634 1.139169935920193 0.9421005350345839 -0.763262312445021
P 8.763011532833335 1.4501621096051729 3.526840659520964 -0.2379846510427321 -0.003405426137123167 0.30550259138904806
P 1.7886953430712589 3.478930392028504 1.5694130014785301 -0.23846364756167962 -0.19101830959552263 -0.3103270093608849
P 4.614217315620082 0.8433830848034243 8.153347822797732 0.1987586156625738 2.1940483115801572 0.9961073282683424
P 8.427399269949957 1.5729880154743228 12.403655746231022 0.03519197452010068 0.5094417228112968 0.2660600691227096
P 6.376342711993354 7.620866678308442 1.4132644454897543 0.008526035193140154 1.273732476520832 -0.2856829855599596
P 2.024958320793712 3.226720003484931 5.9571489622933465 -1.158892611160101 -0.270057877428193 0.7468812999838363
P 7.055332302414763 4.115729193070488 5.941522676809581 -1.1254302177365973 -0.46842979917530936 -0.36378384362844446
P 2.4626594126764556 8.52008112225905 10.37007149088111 -0.3590879808146719 0.1948258562670709 0.26570859932056173
