# total energy = -340875.30446984305 ev
CRYSTAL
PRIMVEC
9.22611939376686 0.00000000000000 0.00000000000000
0.00000000000000 9.22611939376686 0.00000000000000
0.00000000000000 0.00000000000000 13.50335832321426
PRIMCOORD
 96 1
Ni 8.794263231828698 1.6077804763692898 2.1747292057975334 -0.26698386648855954 -0.49329390940684076 0.7071808960704208
Ni 7.971846945828385 4.192976045164798 3.3841175416670373 0.18564958908444157 2.0828681544592 1.271752469976326
Ni 0.12572525208609897 4.02476543571497 12.472390443987104 -0.2007951864766284 1.9697437291276787 0.6862878546714956
Ni 8.134494205261856 5.145665137518313 10.410697808223432 -0.16831881111547783 -1.454672061724114 -0.35634821328600563
Ni 6.307030599142134 7.502348180268772 4.4500858509954275 -0.03713547139971669 0.26100785141078275 -0.47990951768013473
Ni 7.471800498835666 7.1772381837904335 2.0061799977646197 1.2973025505312883 -0.09938547847887401 1.714548627743931
Ni 5.152547822613178 5.06324821264911 7.642023324933202 -0.5048844424579175 0.10394558704573066 -1.5279911821332395
Ni 4.645507977092433 8.254129295912136 11.061303452972288 1.434913391039948 -0.17206362286989074 0.67835523008798
Ni 3.9922618169626802 8.583335689417444 5.690842070315375 -0.10663650361433248 0.40847527299854813 0.36194756175065407
Ni 2.403533277216575 4.557730676834334 12.006470490154431 1.5026994974459862 0.8588523284372048 1.0244951353824163
Ni 5.492613358687729 5.3148168111500125 10.0213417290935 0.04613664645706248 0.1507232095209017 0.5498360674679433
Ni -0.0007325538827510078 3.911145774933123 1.6067646806200344 2.7324321713471007 1.8149214098367388 -1.2094122171762074
Ni 3.054436003011079 1.0462973000914457 13.22406822709285 0.4115297435541558 0.08020916266073928 -0.889392406007591
Ni 5.2843060341946275 0.7196908270415436 9.127635218256701 0.16269683694301013 -0.9038196371765145 -0.4629440934703898
Ni 0.6195671337620664 6.568148231253204 11.19724109665558 0.7560791644330205 -0.3711474830823672 0.45790036039889526
Ni 1.4188295504405666 8.02600426688315 13.316120911094863 -0.44687906958772716 -1.908491052964784 -0.6707015701974643
Ni 2.572666498609414 8.90502279558721 1.5519947452351088 0.17516900126809185 0.13202331911855328 2.2478651002902965
Ni 4.818802178348253 2.7604641596093735 6.394285701040489 -1.3788530577112703 1.361840582313674 2.166118160828792
Ni 3.3468855367068144 6.506296326593724 3.3274165794853894 0.8265088791094927 0.995442183880518 -1.4881516815387985
Ni 0.49964511079750884 1.051685353838632 0.07170632282278472 -0.04593172953510799 -0.3650909924756422 0.038673248200481784
Ni 1.4538057692001265 3.2093056437649627 7.811976748343379 -0.8229353028256216 0.616609159228435 -1.1602558100562146
Ni 4.673001812994171 3.066679063494839 9.007293406858075 -1.855405228883398 -0.11635424512272866 -1.7469275582952688
Ni 4.6192688934331905 1.0818824427333933 1.667395047066968 -0.3050927575451391 0.19525471627437338 0.1171775123549724
Ni 0.616275254349402 8.012266575051711 9.245560708976582 -0.4865470776013105 -0.694924704410887 0.19918978966272147
P 2.863852053943225 1.821199071026674 8.840607874950043 -0.14157445314209813 -0.07579123609870173 0.14439521042034487
P 4.8253158186659135 3.4747780042470473 11.428242829722874 -1.6220753030038582 0.5786141680419002 0.3800776956924615
P 7.705470425642149 3.073404904559392 0.6153341901675303 -0.9744429559210315 -2.291694695880737 -1.293057144991373
P 5.328997356714097 0.6837384848462774 6.848687767376607 -0.04602017548385623 -0.8818225640801329 -0.5640586388252284
P 1.5935076696109045 2.4955084618153753 12.408060403648694 0.9717594955515974 -0.37576261325687543 -0.19247458242607499
P 2.961409040797245 4.380626088253876 6.110904520132611 0.12434291975516006 0.3634706832633998 2.408065396063698
P 1.0933781875433146 3.188519196688917 3.4327834764369998 -0.7461835025858632 -0.5294083957412108 0.5878218026830972
P 6.876522047085317 0.5831617891027818 3.3368152273488456 -0.20463050106231853 -0.6164939738068093 -0.26777370937970657
Ni 3.8821111770865557 7.671093904645547 -0.18424652763130858 -0.5716220529947832 1.41617827652429 1.108988013020174
Ni 3.0280123969632333 8.788460002707156 9.505999298697596 -0.5772535402489477 0.8155189557568923 -1.9702852034534457
Ni 6.752236992242258 2.1153831151752716 7.571629878905323 2.0689253191258627 0.7684361433364766 0.4204645841499403
Ni 6.462684460047577 2.5406149597092003 2.412577642093915 -1.0199478823313661 0.41246048289854126 -0.08381487773412663
Ni 0.3855300074022646 -0.16601294780157536 6.067896041797193 0.20823338792222848 1.7933331421430019 1.0277208414085655
Ni 1.5633105807161431 5.268667761760586 4.393776998889559 -0.3063896219796917 -1.0804497963711652 -0.22821857279490373
Ni 8.111678011911184 7.322983192427936 5.920358398154421 0.3721694965889784 -1.725231304268758 0.13581363939892094
Ni 8.529482830303872 4.460385890727206 6.109419114904363 -0.5725823600255235 -0.1440411695150358 -0.46497192253369607
Ni 5.226024637754601 8.132851956003295 2.46588892799694 -0.2504766128621557 -0.05871628289428597 -0.046778650916435564
Ni 8.511870168311784 2.1190643368278868 11.809915396591407 -1.1008928947168652 -1.8497511159214142 -0.5145674740736363
Ni 2.8036239463034445 1.689200980340041 6.4330400157066805 -0.647735191209278 -1.0928288867618083 0.5102001982438762
Ni 8.623598474610459 5.973690904132135 8.112520356615153 -1.147113616247302 0.4259860281888019 0.1846082923041208
Ni 7.2435647563735195 8.599841217077918 8.066136963792202 1.1285556507394565 0.9177460174496195 0.43111177945114143
Ni 1.3304156479417892 0.86180351245941 10.878400248330003 -0.1993977919084695 -0.8840738220081549 0.7478650040533442
Ni 2.4027490570650154 4.595917585155573 2.013472322562181 0.7765556871198174 -0.05890654452822113 0.9725542235387509
Ni 3.3608723337628663 6.823231981256981 7.877481273685241 0.7474626264086031 0.26695172769904346 -0.5242111678109875
Ni 4.90064708381279 1.3536285644279547 4.612423112816046 0.3598557122186319 -0.8101918871170242 -1.711493385857375
Ni 7.279232934090339 0.36729458234864537 5.545181019364687 -1.0441440199615952 -0.5137781454031216 1.0632640286204977
Ni 0.6630959652333416 1.0682739165739759 8.501174328056454 -0.16680006047810628 -0.14501021829652444 -1.201069758748783
Ni 4.312758753725961 5.934424539837572 5.280245619033434 -0.31184833110141774 -0.5355613027164841 1.2956313334764524
Ni 8.671592747885908 6.08144275295643 0.0956296505050689 0.03976262460991862 1.2101753205944772 -0.35058559977061554
Ni 2.1048561129055123 2.190428370619814 1.7864129103273745 0.39790006858586313 -0.5811073667773993 -0.19184594770314056
Ni 5.825694722353685 2.1051236703689855 13.207770287119555 -0.05244201984980001 0.04663801157351323 0.37586288628016556
Ni 4.697054306348477 5.790930704341017 12.48729800776228 0.6016448246091186 -2.1264699503095508 -0.739020666288837
P 5.363733696368475 0.09536670610131066 13.107588469287668 -2.624292343714364 -1.3303119155777734 0.18065367853174694
P 9.54580446836688 8.680246847911356 1.6337040267440226 -0.8788025463068865 0.8542945338631933 -0.34902056927634084
P 6.976763834693499 4.31591408657106 8.432739587183589 0.9611552376731898 -0.5444457496903075 0.8789922937201895
P 0.945972477408392 5.075657343282612 9.295887345243965 0.22756037038561452 0.658262315992847 0.1893360367970933
P 8.899865394825776 2.2446133700328708 6.496911517909412 0.41530463721555566 -0.6048908423502422 1.5670287556516753
P 2.4043451757264247 7.990492933196644 11.422963644184962 -0.7010279890951474 0.9517493709782576 1.1235728528128843
P 5.007430190096923 6.142639603136373 1.3676070579765196 -1.3653601654311582 0.6376235566965728 0.20025191237864867
P 6.946391449529566 5.900380159140454 12.082872907767143 0.7156812202319481 2.0841166821543204 -1.1909735508550459
Ni 3.1040356210673683 4.612266268785734 8.966229794498524 -0.9029650024857029 0.8809501887775085 -0.6300956237506439
Ni 1.1269428100300674 6.753408709409882 2.2760181579610337 -0.6279927184750281 0.02460725702571891 -0.0238418396146041
Ni 3.180280272037826 6.415455954684827 10.373657706547357 0.3808937638358537 -1.03602807572268 -0.3355880979205188
Ni 7.368560222412697 7.281723986336469 10.096218146552472 -0.7020811129500102 1.0994188812745003 0.52055300223311
Ni 8.137234362732599 2.212995458745872 4.511498592370035 0.9194558010518745 0.3211706369436082 -0.2926632735325347
Ni 6.642787537442822 0.5484189911648035 11.503619302854958 0.16160874608515394 0.10255513445610724 -1.7444580137088537
Ni 8.589877008093394 2.943482690744534 9.580106257796096 -0.07537111784214762 -0.20904174275613674 -1.3731709197248287
Ni 6.434544795785731 7.418980965098266 13.433626613380675 -0.8716664494827374 -0.5784028233620425 -0.838332354106982
Ni 5.748352163171044 5.336175277630725 3.3584744653229803 -0.07113805359740652 0.44619387059524446 -1.101276503308529
Ni 1.5602198307070552 3.2550487438994655 10.283563727700358 0.5371479304773137 -1.0778550390607955 0.10332672251480914
Ni 6.72637617947965 5.018372367741038 0.8991831353305146 0.20424560691907406 -0.5032271093601527 0.6271067163256491
Ni 2.0368872910638665 7.487309605597686 5.362440194424372 -0.704343940842258 -0.2698781573172191 -0.3887556830824337
Ni 8.933734479253722 8.662117523231181 3.7145713065192965 -0.6870856679824425 -0.38587656176242574 0.20330638293425632
Ni 1.8646633196619387 0.7976146317482817 4.2595129732708905 -0.565994936615993 0.9349608386660091 -0.3426077237714616
Ni 1.394315751114755 5.557196194698523 6.914921156153448 0.15313978938219433 0.45772501116329556 0.40071336966494214
Ni 4.266028458812436 3.6536171032803666 0.46511820405419524 -0.4407685858146151 0.9537913411089509 -0.27459073230154
Ni 7.105542009699023 0.20878616009152431 0.7563268246865811 1.7003489392047813 1.15244068488717 1.7137703548170098
Ni 8.529731935528485 8.530359311649732 12.2062934752196 0.01804528753748505 -0.11288454140657334 -0.5042838327594411
Ni 6.761490790030662 3.880330536036544 12.2594562205998 1.0600856308925162 0.007355154813490558 -0.7752626793400067
Ni 3.883181406940449 1.5368592963100078 10.927241479369139 -0.07211764390185645 0.7242165113964688 0.15345886328450992
Ni 5.667762009949003 7.449842334591996 6.80747469188229 0.31758240537171756 -0.6451028957927535 -0.0596562782100521
Ni 6.3810333030910735 2.6585247660260505 10.100511982535247 2.6877854791720033 -0.37667149822439 1.9520848783953346
Ni 6.080409427580257 3.5789408926130277 4.858575979211473 1.2858410868589083 0.8208583656919346 -0.8587356003536823
Ni 3.215837736321483 3.212451750490631 4.476038924952337 -0.38610744682630926 -0.5971317672301135 -1.4334920852123894
P 8.322319544620104 0.32117413392945127 9.940348394452364 -0.21312079792151684 0.028932109653317915 0.7780330429962923
P 3.3706889248365073 -0.5021269369242093 3.6170632180982567 0.580855141557277 -0.5725527923391688 -0.6331058713318773
P 8.9294996904353 6.377804161290534 3.9661924939009516 -0.7860186323049302 -0.004117364602483232 0.1975327136752727
P 1.5042541902439868 5.591351288828803 0.3877691865879531 0.31122406725385754 0.024926073817718365 -1.5511298250332317
P 4.088923870231978 3.0723254485860685 2.503981729899992 1.020115775367798 -0.5062013614971282 -0.02028883215602312
P 6.479014691438878 5.607773781414405 5.688424827024685 0.17629334468052218 -0.11816430174827393 0.004099109770038102
P 5.215073233991056 7.715978975673049 8.90724721298181 0.23008802190347472 -0.8300929969163252 1.0426450668185656
P 1.8824697301620574 8.341426837959869 7.5035457305708 -0.3865170235599021 0.04563888088503753 -0.7946467402935734
