# total energy = -340861.69712658745 ev
CRYSTAL
PRIMVEC
9.29404959630215 0.00000000000000 0.00000000000000

0.00000000000000 9.29404959630215 0.00000000000000

0.00000000000000 0.00000000000000 13.60278104111866

PRIMCOORD
 96 1
Ni 2.003425284174442 7.039526762921036 3.3339595344869135 -0.6904394149460239 -0.3398365887842276 -0.7035103891973691
Ni 6.863962170148466 5.858634142852747 9.710168134406526 -0.3982268557976626 -2.589970687614359 0.7673040866145624
Ni 1.9836568411449422 4.077866399655142 4.848276176033019 -0.007314788493858369 0.050216987174023196 0.08559639511458161
Ni 0.061162280154458945 1.779178460753766 11.24461661631286 -0.23761749751130043 0.8110105263635775 -0.5756118908804667
Ni 1.7851266523564366 4.818472018483889 2.0284327828389817 2.4005762867755047 2.0677402976788257 -0.2472475644018968
Ni 3.302872798123457 1.8290410356730271 4.069149510742417 -1.5857582137403787 -1.3987559672827845 -0.48657176019165876
Ni 7.093980598233609 7.797475077891319 11.343903087020681 -0.8420211158124788 -0.45827008503348815 1.327245617947624
Ni 3.5167567564863558 8.53094286679686 9.518110321605677 0.9279602389784599 1.1959496639133984 -0.5134457017643673
Ni 5.890670731062755 6.551719287205785 2.9906392092301544 -0.437261343992305 -0.25046272890508475 0.13637876787377157
Ni 6.558940763573401 0.7785745987574804 8.18065758093535 0.5886358139439605 -0.2707392197659338 -0.04864090093615494
Ni 3.287147266573897 0.457639920835396 6.330530206030856 -0.8620258410691799 0.16039749938587214 -0.8848577513620309
Ni 5.162481962204582 5.304764564150336 6.2777102645991425 -2.9471629940682145 1.2845485932997296 1.8239123004814395
Ni 7.193733630220268 5.776651333279065 7.288233665497819 0.5316390848439425 0.17469103319040882 0.33460593651290765
Ni 8.181114848164805 5.548361598378449 12.020804503189767 0.9858586539571408 1.0702139775757697 -0.25998352391132645
Ni 6.682198446439988 8.943217603207577 3.138909967190908 0.2090607689195303 -0.3735159833145439 -0.5848974299474508
Ni 8.230568484911382 5.111020810792104 1.157386110378486 -1.598849499706698 0.0064879217171888255 -1.3197210274358047
Ni 3.4577953072248846 8.913197823712851 12.919526995891564 1.2409501398834886 -0.7533476244344702 -0.06525845488817793
Ni -0.11991461330489843 0.6255648050182862 6.398925115412187 1.8468457693491616 -1.2545983267945424 2.015778045678922
Ni 3.6315661484672748 5.880465864844423 4.5625362042999855 0.8869424018052015 -0.5472258835386059 0.02034719619778431
Ni 7.8261379261766875 8.098555807529614 7.458241346146582 -0.04430653522685918 -0.20376326796601685 0.952123980708857
Ni 2.7510757924326015 3.3397794682081514 11.273399357835219 -1.5532754106213251 2.2648480080015383 -0.30339094436268393
Ni 9.003898451604195 1.9380788229894796 8.740888007032867 -0.9659729707768072 1.5721455080529507 -1.3664104610725434
Ni 0.3760753434837774 8.155844327902836 11.834637258885436 -0.030167267611999657 0.200086590445378 1.844577799250591
Ni 5.754178321880227 7.666902978163324 8.995682511953007 0.6257571442762901 2.474541268298745 -1.1982950242171233
P 9.028815797989758 8.486898366788962 2.9983253880667298 0.4791782959410651 3.466868817809681 1.1819019275710807
P 4.708950940599719 3.3677824389875983 4.199886115144423 0.7914899398321465 1.9674847578901729 0.3857528917003679
P 5.664444275124315 3.4130816356616855 11.762827715762198 1.3005735079730762 2.8551794644803667 -1.448751582474621
P 3.0062160359896475 2.878757442803675 0.21906167327203574 -0.8680861883306468 -0.264847279761531 -1.4425842773216446
P 0.599158551922181 6.2331006863889895 0.32567278429558655 -2.238302396302526 -1.3478229278783433 -0.7276671889492308
P 6.072332220228062 0.30448513992588677 0.6169733857721791 -1.5090246683330657 1.023125251618083 0.675405660541353
P 1.7961679830188935 7.80498466978969 10.315083420514169 -2.2256219726213797 -0.3269916145007594 0.6667217596141097
P 3.6349398883919144 9.000329536642592 3.201877151734802 -0.9831484541148294 1.256540795232894 -1.8633183130828876
Ni 3.747044712003494 1.2157360111908075 1.1618175131224755 2.291558427413189 -0.16073534234126513 -0.15510951151405544
Ni 7.632208291830872 3.2080549063571384 10.693010138634275 -0.12913982692317114 0.9634640883120246 -1.841998468559189
Ni 5.751575988054058 1.7990584323758163 2.556738149319041 0.3724980835729907 -0.6580391442384473 -1.1536758428458516
Ni 4.0543059844789395 2.8810158968028134 6.344840253859968 -0.6026814934037491 0.7836056519880634 0.09690796347265891
Ni 7.2182699205812835 0.8098472161085202 12.40317842393781 -0.7440546291683185 0.3977082642900312 -0.7486769584316784
Ni 0.986033580784557 3.8416767227822293 9.319523439115958 -0.1408825692813961 0.4236648362547929 0.6542477955168152
Ni 9.157826497422052 1.4509126366813905 2.490532917971443 0.25120680615996094 -1.1056383798216505 -0.5850912911258117
Ni 6.348049489110596 3.7539873668897363 5.564190293876118 1.2646299999989317 0.06380912403616107 -1.6633998727842576
Ni 2.3076009322560025 7.135422764415339 0.5939557430797202 2.2573337019023643 1.989841271208502 0.7273185473605603
Ni 5.520349333549623 2.134183264890021 9.867620483748965 1.4345336391030263 1.970825392227632 0.12888425926893934
Ni 3.338087951221142 7.192962224121796 6.875307416225621 0.37234690270710713 0.138307095244736 -0.22634912368633275
Ni 2.220645806264464 1.0692153227281516 11.667214253369021 -2.0372799243064397 -0.970315049795587 -0.16951951629179837
Ni 3.8829423020257554 3.872477202424807 8.95505078687714 0.42537616251894483 -0.11173140163873661 0.5305617926193636
Ni 8.854124845858829 3.9332881675127336 5.9042056551736435 0.7632042055135758 2.484833908474004 -0.09889105534095873
Ni 0.5755600311435239 3.9607613774775676 0.11434097189220864 1.7909510150640706 -0.5748621571986358 -0.6892618496981547
Ni 4.367441096162023 1.9488970964668366 11.928442099269427 -0.5238692110905365 -2.339234136222597 3.2859477445491607
Ni 8.680837295184157 7.18392840812524 9.93703495034719 1.5834858727664343 -1.6197924205069523 -1.5399079881754834
Ni 4.4205565883639935 8.265086584305628 4.821737018030793 2.1216889839811395 -1.2582732045429685 2.064814382281283
Ni 4.6449428225253575 8.11636320614011 1.409955619877253 0.28021579179780126 -0.2849790175143996 -0.33737938549298674
Ni 7.6826842740091585 2.599303966070713 3.8880419469201075 -2.4670868689032286 -0.26614465841671586 0.2543687488277103
Ni 4.397739697138125 5.349329530923469 11.232510187591547 0.34389301824178836 -0.9600401502321401 -0.784124757716327
Ni 7.365627073488065 3.5974105169988158 12.925307894605409 1.6332161501120257 -0.7955276002366299 1.8980729429552539
Ni 2.356998804706305 4.353955430512843 7.353594997161788 -0.29929054904106517 -0.37556823785788224 -1.3472395445710474
Ni 6.641258158924733 6.768800398555118 5.235641930702616 -0.6134209913084403 2.458056897490476 0.08624045645648375
P 4.288190737105817 6.8549655303494275 12.709391327643285 -0.20753739029646837 0.24668937790558157 1.3131824549863385
P 0.5988146720951517 4.052112588825455 11.585120844607728 -0.6712767259746439 -0.48636427216654304 -1.551443756729225
P 1.2818631725236203 8.125778078161211 7.103507928252198 -0.36048768937567593 0.7130062445029463 0.155910410148796
P 7.354437038035541 0.29459255376669546 10.140587643420202 -1.0446266160249686 0.5674923470971259 0.47288397829192114
P 7.734210483767291 5.246574520987337 4.427419314425575 0.5865133682843189 -1.0040648925525224 -1.295260323290279
P 3.379269884020256 1.5373380018583163 10.061433013072602 0.6796394961170424 0.1398196752345205 -2.653315984640224
P 7.911187772045496 2.818160240851469 1.3850624380200767 -0.7078858925572453 0.8312746759292523 0.2048127922764537
P 7.473196401002609 7.13755110172317 13.674603449603682 -0.13323456581783505 -0.7118867861865223 -0.7259504633684402
Ni 1.5838733070998334 8.81579618621912 4.649390025153292 -0.28424959554754275 1.4085354152670517 0.35498758549305315
Ni 5.551205577488476 1.5999706006245604 4.955737692574765 0.6556446758643418 -2.2871420435130485 0.7963040733913382
Ni 2.7047449562774264 6.392400692748008 9.036054933051194 -2.4616582416884896 -1.8690379891754845 0.2510862214216966
Ni 9.196452566641893 1.6752338124970998 13.4868710873839 -0.06689907581539446 0.3326377570429433 0.9457867256369196
Ni 6.033297212835537 5.549225944970712 0.8167276008639216 -1.7681317031767099 1.8529187150161186 -1.653368713800501
Ni 0.33274555587313687 2.1246475702269905 4.709772534564838 2.4327161047328425 -0.7358294130450489 0.5615862660253361
Ni 6.310427177223706 4.088350087354849 2.527519516880798 0.5958860677484705 0.47897517879132345 1.1225832352061054
Ni 9.306782226822051 4.1044102046820585 2.891584160351871 -3.677018963138648 -0.8610879026359427 2.7970612201813956
Ni 1.8547948465027142 0.6100530366044472 8.383870111801082 0.2612891300966274 0.7422854530830377 -0.6294147956335353
Ni 2.001055301582753 5.902641466663129 12.017743972729205 -0.6537927102572676 0.18979112205664087 -0.7331207558646341
Ni 4.323201421117161 1.3052562948109978 8.0761617955505 -0.5183655076634879 0.15991413199155038 0.7566198674278388
Ni 8.085953076571457 9.12166335128769 0.9182418552079342 0.8915449335742193 -1.2220710435907987 0.3905852800920047
Ni 0.5978462321498419 5.785750207621276 7.730310700647791 -1.2689224567266983 1.1725019744134193 -0.165427862720928
Ni 9.336151422860235 9.318306848052226 9.702237522071279 1.522647658433139 -1.1426802630662967 0.21579885897431222
Ni 5.232772857659265 3.3589437980280055 0.3080949487047574 0.033188570936826714 -0.9888761006272259 0.14708304166515312
Ni 6.10728713994313 3.431586087975618 7.960415563392158 -0.9658744975257301 0.5135236061901542 0.49379681718518825
Ni 7.362178981168392 0.03267787761717081 5.3234074978000185 -0.7119937440780318 0.032293569926383096 -0.802423813135831
Ni 7.600227467917139 2.3112627877113963 6.684855615157494 0.1763393674271092 -2.1807629073251604 0.04339687892839623
Ni 8.942418314960968 6.559303231499189 2.6795571530549305 -0.1559381780629379 -1.542520486097666 0.8491104185590925
Ni 1.9622805275728452 0.2134991847186009 2.0125176526820865 -2.413000885692102 -0.7349827487740374 0.3301502147343991
Ni 9.025339823521946 7.457415105156773 5.581819246738533 0.7167212314606883 -0.8385658102740269 -1.03304816715875
Ni 3.9169585227535273 3.5545835374595884 2.2487296352735098 -1.1142073524375844 0.5373327927946101 0.3591216622660847
Ni 5.254632461799079 0.13761605975247054 10.818618286588856 0.29264270470724435 -2.1330080085383845 0.6731867985131631
Ni 3.2894150146224153 4.914312255681916 0.2313177361883506 1.2859076784307855 1.6730088566289316 -0.5399203510161282
P 1.5961507463297204 2.7910494988124226 3.043840206686414 1.2982345754272546 -0.8452303667783958 -0.3835885370591975
P 1.690141467701293 6.2545606464054995 5.734973098243104 0.3633683533575806 -1.5758044449617765 -1.1256652165655388
P 8.153325640521079 4.115488711542033 8.137659590887544 1.4186743034732663 -0.5889865124151598 1.1889094692371651
P 3.6968475513065826 6.248956334629858 2.2206950647261734 0.7083258083081414 -1.307107452436852 0.1782183296173769
P 1.370974517971127 9.441638883313844 13.40685954568354 0.2854914383744438 -0.9479392532035482 1.4552222778006292
P 5.783305872634553 8.683253748022741 6.629124777460222 -0.485794515706002 -0.37821981654811637 0.5422988785506337
P 1.36644831592347 2.2007472465436555 6.713611403936654 1.3330609390778203 0.8112666082384415 0.4752594205026331
P 4.655184864941206 5.944771392498918 8.973251323776374 1.7137418155719197 -1.7362628794925712 -0.3472223397253375
