# total energy = -381161.036944264 ev
CRYSTAL
PRIMVEC
9.34700044391940 0.00000000000000 0.00000000000000

0.00000000000000 9.34700044391940 0.00000000000000

0.00000000000000 0.00000000000000 13.68027995896778

PRIMCOORD
 96 1
Ni 3.335963150384486 0.8933582608791715 4.245128123704651 0.40758232887063356 0.6185788813602959 -0.9112303278182888
Ni 2.677223947503872 3.458221916115777 0.2245084076245863 -2.1330398902175842 -1.1194045803678077 0.6362397889751688
Ni 2.9708132312668565 1.1214998475740752 6.496819594560257 -0.24784380322499894 -0.16365354442932462 0.7453517507131873
Ni 7.236288840225364 4.472511668664019 13.284645896662433 0.4375899309763174 -1.6680304295777337 0.44213435581389016
Ni 6.981087687261952 8.798630616465386 6.557436761801891 -0.6801539738596156 -0.9155130143540426 -0.21465368962627548
Ni 3.5912671203527182 6.176993280567324 2.9939292980505 -0.45715294070990947 -0.5851673957793857 -0.591108443854169
Ni 1.818664569256015 2.879577159989859 4.963082443761173 0.5072346878576489 0.2690379208041108 -0.2574041932199244
Ni 7.696591223803585 6.464329421037172 0.5607153398854164 0.239898066015361 0.7320262372488748 1.1298558576081188
Ni 5.765323340268911 6.730971302536906 2.3826672491955363 0.8405974959920749 0.4763552246699731 -0.5268028397975637
Ni 6.638183629187171 9.113727348236605 1.0653888692436846 -0.7344734132377867 -0.55409998495062 -0.007398349346600161
Ni 5.387928850577277 4.191297813481174 1.640922008923735 -0.17174891984294938 0.7201770512197726 -0.10731064686322163
Ni 9.254895095854318 2.6647083139171595 3.4436415301322723 2.4426950703224253 0.6291237467556778 -0.8384485679698721
Ni 4.609426531082363 4.777074330941417 8.749784126875543 -0.8713702583985575 -0.13812249003775567 0.08662149394498629
Ni 9.394857080415507 7.770759672280481 2.2130724691452115 -0.85526769640974 0.7360759818382162 -1.5623058962547092
Ni 7.677065339888244 2.9800387206993326 6.8090580135974825 -1.5485062713674556 -1.1753317305527307 1.1056597199778893
Ni 2.84147878620387 6.319964999269604 7.951239034341057 1.7807565910295717 -0.2428224387510076 1.5932820329212496
Ni 5.405445129398411 5.59520793229418 13.210772813399384 -0.9368611410125156 1.2606064806618351 -0.21534274527350009
Ni 0.01797895534282397 5.220505378728738 11.050875429746933 -2.118632970763635 -0.37548364856387595 -0.9597871536810696
Ni 7.038992354976428 5.046669864579614 8.464494979501655 0.6588570121540523 -2.8404442151527207 0.7662260230590352
Ni 1.4266981058812696 0.34280871867031104 10.366916150284043 -0.38665432046871473 -1.1573502063736454 1.082888744829961
Ni 8.383408816000468 0.5551931320265443 10.506714562337562 -1.5451926336131905 -0.35350971539594606 -0.13929954106499234
Ni 2.827374162542668 7.558564068333099 9.982801167277362 -0.1278887281248894 0.3027265713058077 0.573840915022973
Ni 3.7730943198764795 0.7145576200972904 9.647155989742865 -0.17462572717011218 1.0380600185510445 0.8169299771718059
Ni 7.409124225327604 2.114132600107072 4.317496339897154 -0.9877239893006539 -0.12428018483802465 1.7211877303270036
P 2.047806284997803 0.08648779505440612 8.477778936524386 0.8423898120058073 0.4210631369658877 -2.7106639264320735
Ni 0.4033987796106738 7.62641394451379 13.151714725830836 -0.9130750943365114 0.10461921607398757 2.7629501374302996
P 7.672354451667405 7.243570153566701 3.6856045263751014 -0.6639567952744629 -1.6283994454496729 -1.159090843213836
Ni 5.477622666781976 1.5498541836546245 5.353887074981453 -0.8182600088371391 -0.23101619014469887 -1.1605761695101109
P 7.857864369363806 3.2409415439300293 10.051421236294159 0.18570229669924793 -0.2787461492308103 -1.3695585197832219
P 3.7631023764080735 3.3244943808468497 10.619755316236729 0.22011471274084674 -1.4461092597557677 -0.9013922586819443
P 4.521359092953906 8.015473490752264 0.6503848538889763 1.0288019902878862 -0.9019877261740982 -1.866269939512044
Ni 1.785688351710144 5.047567176621678 9.538287736839301 0.20076227635616392 0.321534190930614 -0.46512310339957963
Ni 1.890683207632131 6.237748783415442 12.136295855629665 1.026580300046219 0.9739202506483421 -0.3406495716038262
Ni 1.3628674398889924 0.4927953612014391 2.8373175016087955 -0.724676738862339 1.0952015007590428 0.36181746393069303
Ni 4.310537498070935 8.863050143485268 2.5449975405053147 1.7136338292391455 1.8798728750074591 -0.9223089542299535
Ni 7.924975832509882 6.151298376362789 6.714746779176326 -0.08344618154079822 -1.0518311041932078 0.891851923291677
Ni 5.635325258174815 0.1655914597626563 12.53911231711304 1.254169209676924 -1.1879021110185735 -0.6317802105419184
Ni 3.280301762775172 5.657580466218103 0.5133167006634459 0.7142316322696151 0.771476215714381 0.27241017971045345
Ni 7.4023196090086145 7.134630863459805 9.520612559010717 0.7921242309820358 0.35857350307209856 0.19977497274223013
Ni 8.573732438922528 3.1267118515751284 12.113942504081775 -1.3836358238118944 1.6382861084357654 -1.714837876849576
Ni 5.899957534580342 6.64913831370071 7.60687871359801 -2.042167334305728 1.8402951127148368 0.05798634670679691
Ni 8.980943860011934 4.0861907935539294 5.613470101750281 1.9407429710199544 1.5019950151797938 -1.770001666505913
Ni 8.948341522483588 0.3456866601052242 1.2392673795948241 -0.3694528689887637 -0.21818792803177905 -1.2036074375689723
Ni 0.3507134769408731 4.975240087231104 13.340803609995014 -0.7344258478293029 -0.3701560657033754 1.2749033569004817
Ni 1.19270529691207 0.27625153265021923 5.232433085987889 -0.24347832716745166 0.5091193064748716 1.032884644997692
Ni 4.026089580736483 7.909151360768056 4.42364181157308 0.11191472129413628 -0.06050448514296031 2.7286007134161525
Ni 2.6466031740684204 2.7469432237721976 8.308403810984357 1.649527999898172 0.5184842926295393 0.746132851853586
Ni 0.08419777994705396 7.526223446817023 10.971597910830532 -0.032669208098246964 1.095541657707281 -1.7376677302598975
Ni 5.002224877496106 1.0350774815227364 7.433618039975833 1.2655175448102076 -0.04959092355425007 1.2291634316612057
Ni 1.8522203008290528 4.011255891041103 11.69007285881146 1.4430853853277792 0.8851891665595207 3.486849374696666
Ni 5.790747181460739 8.897755556112202 10.085691078700671 0.22232457590797194 -0.18649111114913045 -0.21845969363592696
Ni 1.8044945165917463 7.788032929090223 3.7663859776620034 0.13266352380571345 -0.23143270885682724 1.6315932697966222
Ni 4.285852069913723 7.44902657019816 12.025198343121595 0.7361348601006097 0.3448121876219481 0.8506070577092769
Ni 6.26072371049247 4.627886856947753 10.610726113813454 -0.43208262800484293 -0.15133513207328775 1.753588258144896
Ni 1.3972550545010276 2.6331247994365765 10.299745801035206 -1.0470750775654611 -1.6397166702347052 -3.121109435783115
Ni 7.572472404985099 1.8676989335546657 2.0047904542812915 -0.9301482477687143 0.1844144311257598 1.3020994576992995
P 5.370702328769725 6.671795442762839 10.154406487121937 -0.17484067139439566 0.2593744295724178 -0.2976195890965455
Ni 2.508211485580845 8.224406991546724 1.5936159050061025 -2.003081681158176 -1.7064511954477772 -2.7194267602263684
P 2.3384979986249546 5.103910895262979 4.378742560268277 -0.8775481050744951 -0.8754917367660987 0.9417799184703717
Ni 1.582531297186474 0.8619112126049855 0.26304422103108205 0.5947648096598338 -0.5655619628436325 0.49541146997047586
P 6.151382499366732 3.8878848322576705 5.5185157936989775 1.1278622242168577 -0.5641247161764736 -0.02479906132155084
P 1.3491273492448794 6.1320248614592785 1.1466096295511807 -0.8960644187111277 0.6742052124753486 0.4739880099893772
P 2.665100887935563 1.7554975402948483 1.790009470012711 1.4482242492162414 1.4338486972208597 1.1377537722989566
Ni 0.47399013101988074 5.9435332506231005 3.1779838877786775 0.3493175316914694 -3.4810955029320243 1.81775116597605
Ni 4.534781385583121 3.324578503850793 12.797901783544665 2.248282133223057 0.8601278527155187 -0.8081905404162791
Ni 1.924799759231459 7.458065119621873 6.361193683502337 0.777644549308622 1.7030964200429313 -0.6405026780165808
Ni 6.746440588262081 7.3245151773612704 12.272606901819703 0.9330818764757415 0.5948224023706467 -1.051397101979583
Ni 7.338479596015899 1.0872243969672983 8.2783204900741 1.2351548733579503 -1.3627335264415885 0.6339304241157018
Ni 5.94905732788206 2.734493019188552 8.642407655241911 -0.5412048741555066 1.5478200439337084 1.4055285101199277
Ni 0.008752531210304322 8.57535881699877 8.474987922193547 -0.6632687680685028 0.9802289664751893 -0.091837490928287
Ni 8.650929315541392 8.969222721462465 4.130691862640067 -0.278005928630676 2.430517297309311 0.125342564664268
Ni 2.3493872541354253 8.569591717728418 12.315986330853258 -0.06422281453481199 0.9294877313665799 -0.17764754471557145
Ni 4.4456670834055885 3.2694312012655775 6.564810610447565 -1.0253657109128276 0.23949157460556172 1.778575267107537
Ni 9.241145658209767 2.6798504546269983 0.5709643258658721 0.8640405575063637 0.22174582058636647 0.5279323254163166
Ni 5.456003054768484 1.8177766042143888 11.005990198942786 0.005906081071789828 1.091494998441733 -0.7437399261413772
Ni 9.273729301737234 4.302368219687972 8.290755739457044 -0.062224810268176715 -0.14754455468260397 -0.08689017422534069
Ni 4.869936780294657 1.9637393630568838 2.3288490900726297 0.2582539428147294 -0.10009561717202117 1.3888873020188208
Ni 0.4277495851521997 1.4591882794043556 12.086718430605556 1.2598611178553785 -1.8614524635187426 1.1457419327107559
Ni 4.339746874440223 3.926899212086601 4.329685763168574 -0.4001659818019044 -0.04188507026956012 -1.392456507427318
Ni 2.6442664239588773 3.9083641102177054 2.519072700090001 -0.1993052321946632 -0.3414394144949733 0.2530101779172868
Ni 6.168917472188744 9.195522949071048 3.7801354153065545 0.9379340623617201 0.05954649210506519 0.3630513363377941
Ni 6.090626996518614 6.953065379948312 5.121226213574694 0.5706159803277722 -0.7946218005929089 -0.18884135654886186
Ni 2.1079074978152494 4.614679545328616 6.809715107728286 -0.7184752380373175 -1.2844480631661233 -1.5349488443979953
Ni 6.755039828665199 4.6834267335513715 3.667341422218957 0.13594656543235942 0.5268810013336668 0.09737101915200651
Ni 2.908608943350821 1.636949533737512 12.210238106695956 -0.3559484067444256 0.38744776290428756 -3.041866750800703
Ni 3.963137532785394 8.45401605731042 7.939459944388873 0.045572032202844094 -1.206100122083839 -0.6754411417649786
Ni 8.368070388281428 4.410185869742287 1.9857880023904877 -0.0933474998149102 0.19792017892167849 -0.5878287446616327
Ni 3.69260729910338 5.4221388721809864 10.981858113211514 1.3923354084684214 -0.1370084310379705 0.14511151976107914
P 0.49438715537605976 6.582484853576105 8.132269869427487 0.34249973743868756 -1.8642793914445763 -0.41977244317892215
Ni 0.8885324045529432 2.0320846302607976 7.088423032093657 -1.6430693887570216 -0.12252463559949868 -0.27037515155829567
P 8.476364735358091 0.8548607701744723 6.3306860087721875 0.845268419105183 0.784776789478029 -0.6785233802347282
Ni 4.239920909760545 1.161738684460406 0.22081914655163976 -0.21659050163767216 -0.4629394654846995 1.8273894603967622
P 8.345132849206154 9.230527465712003 12.802525744661429 -1.1803713498591673 -0.33287069898935573 -0.33941235676261544
P 6.388637411488854 2.5619473910998956 0.5177518523713585 -1.7077526878680203 0.6980701920184041 -1.1728701563861157
P 4.205981951169543 6.746720998275225 6.245389956273648 -0.7623912226939773 0.6889926551971682 1.0745282886804075
Ni 9.301134707021955 7.163746769824711 5.538160384519885 0.09073268789988244 0.7622256436503905 -2.347939120195763
