# total energy = -340864.92808589723 ev
CRYSTAL
PRIMVEC
9.29251684810603 0.00000000000000 0.00000000000000

0.00000000000000 9.29251684810603 0.00000000000000

0.00000000000000 0.00000000000000 13.60053770920252

PRIMCOORD
 96 1
Ni 8.480016375884633 5.6739457605171 5.7828940161964635 0.008476670012443467 -0.6091185072783445 -1.3707903353077941
Ni 7.608582727726576 4.860060669409127 8.095149133435472 0.7611992592684051 0.9952984592138021 -0.31143644037497975
Ni 6.514788443099687 6.973104668235684 9.425621035291257 -1.4778122472860034 -0.4700922744793969 0.8876666815657357
Ni 3.9117686141202364 1.5924307405137852 0.594766613779262 0.5065381760112566 -2.007372595224046 0.70878680710496
Ni 6.474198729359211 1.5890575568856276 0.8003960736020942 -0.33094082895649457 -1.566052250671019 0.5484954942796489
Ni 2.483834007451211 8.40094634973589 4.517445571970628 0.3908187362590495 0.6212579708543559 -1.2984011829121058
Ni 2.756876030994347 0.7008137456880738 6.590235316916148 0.5465337425675878 -0.7723087389180053 -1.647778364196917
Ni 4.984459592908155 3.8981550768881394 3.6480311877310245 1.0935932757316584 -0.86460131510584 -0.4517078584349382
Ni 7.381882485873861 3.3058314657971497 2.6811968442558363 -0.2224590446033072 -2.136439659927753 0.19770034960138855
Ni 3.1319591824184743 9.38265429573237 8.854276210313017 -0.039215750967513105 -1.741657311035265 0.5067124968055918
Ni 1.8755737299076303 5.661484495378367 1.4581139137466221 0.36970149466446006 1.9129604015900472 -0.13353229956391197
Ni 6.876797023270873 0.4153717876176276 3.5740581070920445 -0.703592150277898 -0.3105573802041361 -1.1917425678105864
Ni 8.36081196932263 7.875993486039233 7.61661425006767 1.5273856873387568 0.7617574457647204 1.7784888780413177
Ni 1.693143038480654 5.9904117154497145 5.454659088632825 0.8689883884299421 -0.07238709551315921 1.1120481400027362
Ni 0.6631539625204849 7.6992776924946735 11.66932897249867 0.5887671973155022 0.12224464246523462 -0.4324821774361068
Ni 3.935492409719924 8.148180598029228 0.6529359109570627 -2.9856305540157937 0.5020361743758451 0.3893917740045358
Ni 6.056100517288411 2.2357981468374764 4.855976608239498 1.4770789686644044 1.1142729155681972 -0.11087753827887355
Ni 5.124711550207837 3.5617752582774473 1.2207096216975573 -0.3369158155930068 0.5947861498160725 -0.1547842669641528
Ni 0.4418368756974987 2.1414698079685257 3.097372434583755 -1.288596023896226 0.6798958351022226 -1.278282814895676
Ni 8.30234345310123 7.499971790410027 2.2204915130294833 -2.5213934527655932 -0.17304038496086327 -1.025388336620647
Ni 9.272974718974393 1.5867251351482512 9.783396874022701 -0.08152736725153056 1.3908567670403658 -0.8540587637033034
Ni 0.5930028940750627 -0.17079738954242896 3.1796967001445675 0.5861122761911584 0.23326359141797895 0.6959109795835564
Ni 0.3126430134873698 5.306445302868665 11.82821056764334 -1.5841301912186525 0.7199996451016438 -1.2955392879832786
Ni 2.1957195215255085 6.18661391689578 9.900212174494346 -2.4636248784965575 4.595437838285576 1.4845413384797206
P 3.504087313474133 4.837312588082047 0.16749761679763886 0.6690982302660864 -1.1802921598817995 0.19057710829304597
P 2.0478105303150778 3.749604902012852 6.5346642074585475 -0.17140284935744027 0.6741998131587099 -0.3162163782621264
P 8.437270798227537 2.820371798848897 4.795223062116819 -0.04865478489322588 0.5531772160260344 -0.8730972683919932
P 2.47856515037913 7.532458429429419 2.2869980563537937 0.12086190318509506 1.5252686409957539 1.106314322842753
P 3.4854836946764145 4.998853701558338 10.851842101847245 1.034505982651199 -0.3282889931559443 2.087076536113593
P 3.3109237650484733 7.4123805262805105 6.154936656096808 1.0028317914763696 -0.6406479453451935 1.073059931664997
P 3.5807227001997988 1.7016178138770173 10.276566542227929 0.8158894517224335 -0.5844109772293354 0.15637423715909196
P 6.0487036738503575 6.782282834064282 3.1203305267923684 -0.711384392628807 1.8616334691812972 -0.5494704565984085
Ni 5.581308659720669 0.22512144323446762 10.043004705909562 -2.431455235742548 -1.893071118865288 0.9033941196033216
Ni 2.4701647151178228 6.382091302025053 12.797072538302176 -0.7517090603897827 0.5410673201363778 -0.752652912360291
Ni 1.5294553536046258 0.49808076337735385 10.768103515216994 2.591005813747093 -0.46694395865840227 0.12931594748971922
Ni 8.431955478571046 2.740651296518415 12.113237150209162 -0.3061235128024986 0.6452520197761081 -0.6405163048633356
Ni 5.709675487928301 2.455761313950758 11.683800209038973 0.3214444594302851 -1.8722181866756789 0.573583033375896
Ni 7.441847097313259 2.5052718438979324 6.714531093477787 0.29843437168835696 0.4691633349072243 0.4079435688647942
Ni 0.33158859690634485 1.102882366137463 6.057815915904824 -0.8107271907952037 -0.4714886406062912 -0.7246410005283972
Ni 5.599057366965245 4.6846179506773975 11.795678395291226 -0.7296299691025563 2.169668340073896 0.744439523311563
Ni 4.934372926914298 5.435444022224272 7.865544980057139 -0.45254989472025936 1.4042061917640785 0.274466805129166
Ni 0.4558964537399302 2.71412116082037 7.6941231333802405 -1.0894805391148659 1.5324741576052574 0.5956682953107096
Ni 4.16741504606031 2.7987388195476544 6.41119825265447 -0.35420417035980933 1.6541266750124481 -1.153517977111749
Ni 5.9187292402221425 8.698353352543569 7.596593522445449 -0.7440104061939444 -0.8637898749481382 0.6391901298527444
Ni 0.9011167348341568 8.514333640729776 0.9204934910364556 1.5586248478586964 -0.07766094231758883 -0.5612157700597947
Ni 4.610538006094275 8.625992523583612 3.186945792564198 -0.7611578645075086 -0.5875685490217106 -2.7195398887654645
Ni 7.032335170841406 1.848420995578493 9.749667825496187 -0.05422302300962275 2.2063942347400194 -0.7432979535079521
Ni 2.6804729571907306 3.477343449887803 1.790523969145334 -0.3183275110678582 -0.21752921140185763 -0.23592571163117432
Ni 6.143859046721803 8.102470707486782 1.1274517807734106 1.4611525272421353 0.4498589781516575 1.595030125960608
Ni 7.452403396491185 4.26140885432151 10.477188264703063 0.7867462544995741 0.6160394027678939 -0.4482186143347571
Ni 5.330624431795569 9.034668123536088 12.748885262758995 1.0387652721481853 1.5662116590670188 -1.6097684606120468
Ni 1.3640392605885499 8.182758053347065 7.019251307071583 0.8597344739318419 -0.8702919377327141 0.7478632042811314
Ni 4.148402556519786 5.831556139352314 2.313519828786645 0.6448002769506701 0.744109393665654 0.4145577317472022
Ni 7.91484549912278 8.859290452422533 9.946821580670967 0.9100298797522843 0.2184949177492366 0.19130113094326406
Ni 8.253910855112364 8.146461482406062 13.303570463471225 -2.744022190177545 -1.9376375926217533 -0.005537899099093689
Ni 7.313257248700459 9.192603740462172 5.775087372763915 0.9819775737351798 1.194967502505787 -0.1638224659070211
P 0.8830641622875397 8.310939031217059 9.190658816678775 0.019257048457399093 -0.19738564657444715 0.657280668805868
P 6.00608819142961 3.5955628496603165 7.991132416465373 -1.304955696201172 -0.9553638278023935 -0.4069045860773186
P 7.685469012408055 0.7826259935686891 7.9329082934379676 0.4399242355364488 -0.7171202666713198 0.5235419096581048
P 7.0913240680081975 7.115187251361115 6.294396890958145 -3.1156604968534016 -1.5748973597664748 -1.4315812413429216
P 6.855006071182636 3.5518787277981416 13.50493930430367 0.6072035496438187 0.2827203033872099 -0.4855196647780607
P 4.963384164619831 1.739902983430763 2.90084499504682 0.20855066205233114 -0.37301307553619634 -0.7294307086075568
P 1.5555208634585718 1.855371798206212 0.6314172296134681 0.3812835430751046 -0.24251313504070493 -0.13833357760729725
P 9.681687488994395 8.336577085294433 5.1577594572469 -1.6958543937685373 -0.5543532386120065 -0.023519680388494977
Ni 0.044242602126781605 4.605120468752082 1.8329991345611636 -2.3908390048830825 -1.2446430153540435 0.1815808183317066
Ni 7.204971549474779 5.197741440383296 3.70712601959027 1.2592491953029925 0.7416352210935485 1.1993746304345474
Ni 6.816497881223722 5.398877968293692 1.3343756881979023 2.4344248598938334 -0.49013479495256884 0.583394105929047
Ni 1.3818251379006543 4.030387592118675 13.202939939652916 0.7203521433450562 -1.7868922716136646 1.4692142212043473
Ni 8.7915572968698 6.633630441503293 9.711940206955362 1.180770899290431 -1.4063345509609908 0.6157390979186557
Ni 5.278381901885094 7.820219799713607 5.17360412778236 0.8391360809552 -0.5141100748212436 1.2477802754314447
Ni 4.537164292794183 3.657283746790409 9.636783259665618 0.9409517661421215 -1.4085217884202967 -0.11069678972663516
Ni 0.5593175203778954 5.517218170785672 7.540940638839287 1.1196714608759493 -0.08689505932134711 1.5128743810964589
Ni 4.385686975101073 0.8120907060980624 4.943033552648301 -0.7647023873256572 -0.15601505404746033 0.17129897678972436
Ni 4.237963834228282 5.621628890471568 5.014654697264453 -1.3330437126866397 1.2156468852320097 0.49918944895566936
Ni 2.0067376056967383 3.192249031948742 10.60725004798997 -1.346136798425172 0.6672712043596766 -0.6428153853101575
Ni 8.705155474901176 2.472515721888963 0.9085721211285671 0.9252184145672646 -0.492564487439984 -0.7545377880878296
Ni 0.06528550660601895 0.5666455991910225 12.509570429238995 0.75647434298891 1.9598853482763599 0.5379807107912541
Ni 2.6016166589302725 2.210113630175691 8.113482339991926 0.4541097830082115 1.5004724078876805 2.243653376201794
Ni 4.997078830833881 1.546971747927153 8.092728432787716 0.6054973655859895 0.5528689407569962 0.4816838359717382
Ni 3.410149260314226 2.7419708339156554 12.40842324148205 0.055830990926690936 1.1267553643059238 -0.6979259531310561
Ni 5.188281658197442 6.226376596633761 0.2341807179427072 -1.3587467738796986 0.08359787662731409 -2.9076456526998826
Ni 2.6052128629635973 4.706427487799398 8.54576186207631 0.8283924692854506 -2.8893597099065014 -2.5680204085955127
Ni 0.5136949794941401 6.724334698788272 3.5665097956288148 1.2458887148356863 -0.08313636360986328 0.6264019769491406
Ni 0.7293975276170356 4.460268715595822 3.987283323309936 0.06879654994842346 -1.7257678934985181 0.948426991473244
Ni 2.7774496633710446 1.326060744091909 2.683699319052153 -0.15889314692620377 -1.8028534229286113 0.3997196382931052
Ni 6.109523196842898 4.76805545976067 5.823070212935693 1.3053017666866809 -0.828526937980786 0.9488242269116628
Ni 4.16196033865059 7.276932800208811 11.480866508363604 1.1666979661371326 -0.10459633325585213 -1.0817263490907434
Ni 1.9745018646331596 2.2706450851448907 4.676273270517381 1.6578072091878286 0.7895271596788209 2.0255448952576987
P 2.699299596393616 8.749406440293152 12.355734670761239 0.22104545208523224 -1.1726181882763098 0.6413174606083923
P 7.323023683943417 0.7771396916015699 11.747151942881853 -0.8657223160841606 -0.19883292054393498 0.24091030932995933
P 0.3232216147058126 4.36414692096865 9.654314522015156 -0.6716973584518303 0.23059504344688028 -0.4897316459768791
P 2.998806708016623 4.545899258663242 3.6382257239171616 -2.576848291299788 0.11542196311644637 1.0574929304646756
P 8.988307756811903 6.201714256828994 0.5033682054831988 0.46362415025654996 0.20204062884795523 -0.8836223362930331
P 8.24871633817534 0.4441172593403359 1.9482086881156049 -0.25935874584313395 0.5877446695882587 -1.6289108378684525
P 4.310826459099865 7.500445708771007 9.130340160346172 0.6447671097198896 -0.31201133904184325 0.399609337967486
P 7.122983673025094 6.564354728148153 11.738759870885739 -0.013964689710208207 -0.29263679116997343 -1.31756824275886
