# total energy = -381176.0439393351 ev
CRYSTAL
PRIMVEC
9.17992535554061 0.00000000000000 0.00000000000000
0.00000000000000 9.17992535554061 0.00000000000000
0.00000000000000 0.00000000000000 13.43574867891161
PRIMCOORD
 96 1
Ni 0.7412404231803338 8.39367400131476 12.862109193881263 0.19506856840549633 -0.787377717435986 0.925856819482212
Ni 7.754062696638978 1.8577874098853444 3.4985347607061885 0.8752618801434797 -0.8370311187970553 0.3840382230021064
Ni 4.824647511186614 0.7019071966694715 8.263052842301747 0.7434337077548681 0.6052207148858351 -0.5367532661420563
Ni 2.7406483787347735 4.184237552997997 8.432840153182706 0.3620681464889184 0.5802815284419942 1.3999947247858922
Ni 3.293757246037611 8.646847164883521 12.61315879601255 1.0150620149939744 -0.17958821338171008 -0.4669046207800346
Ni 6.263830321241091 5.6261468009066355 12.306205039283501 -0.006271177720692425 -0.11402045478322943 -0.04466828944165211
Ni 3.7952565725455116 8.894282875055476 5.733732773025886 -0.01738554246629909 -1.3899753928766772 0.8459510469945045
Ni 2.3074935970896098 7.622587804560521 1.1275390294207448 -0.8137713769381663 -0.6469252937134728 0.9586882641899361
Ni 7.5572359153895565 4.542153665778823 0.9669637737136939 -0.4514198948808742 -0.11463032045308647 -0.5318501724134841
Ni 2.4347549033934546 2.2836166110334677 2.656126969270678 -0.5183973893426878 -0.06650158326665966 -0.2848831153664836
Ni 6.799433070739599 1.8809208219812605 8.878786242928843 1.3878506332241904 -1.7558544284712536 -1.176765891896096
Ni 5.242921633701825 8.100145885534234 3.8266087718832824 -0.08206704180508448 -0.4698328501704231 1.0929499857207048
Ni 0.5875859132586444 5.596468101975645 0.39730166486666724 0.5071935502070685 -0.5284992536633801 0.06811417916941817
Ni 6.358613051356304 0.6343906810809614 5.1222175481361205 -0.8202842383560195 0.5585387374482639 2.3706748712303813
Ni 2.076701091731105 4.105437073064923 4.29804200660684 -1.0766023976006167 0.6159969795657326 -0.9888007673046004
Ni 5.435534829176634 1.227346850719015 3.235583140564186 -1.8346469132901242 1.2152247100929265 -0.9343057215805135
Ni 6.775914101775417 1.548974718255731 1.2337076210528486 -0.4786615042056466 0.8109225946354613 -0.5661864838015088
Ni 0.01992961811914062 0.7248028486966244 9.499101344340492 0.10728416450066039 -0.7340149855441294 0.4974241295251305
Ni 0.42978666700310336 5.855332819314035 5.405148357994612 -0.6433514603192856 0.2786062812188363 -0.5106406282154045
Ni 0.32590846676700413 6.6182305225803555 10.751715939819034 1.3316889984309581 0.22300103314970626 1.3930434902790396
Ni 5.942450311691117 3.4166397279090144 12.958578276298864 -0.42063170585542403 -1.4260420566922472 0.9733852040804785
Ni 2.237349786841635 0.7930693641931648 0.7410797744852232 -0.37243997664154566 0.8698471368858117 0.7167022052972947
Ni 3.495899204113832 1.7773804430011655 4.763510125782807 0.06433002953663759 1.3348892505358108 0.5503708569254908
Ni 2.6080718956041293 6.034983960074782 10.009256422540947 0.141208328051931 0.16449172405990378 -1.1154887902531692
P 5.392995054711365 2.309641699641374 6.347370396676197 -0.3428391230559773 -0.5796336104453501 -0.7788897345696328
Ni 3.742820838461435 6.6015964976923405 2.8116991656157153 -0.707830870949594 -0.5803000403847555 -1.0783738876787428
P 0.763725732540547 7.960262181757419 8.471454591532018 -0.41925796543634897 -0.43062069874733583 0.46277542910300945
Ni 3.0567958307868617 4.267829954008082 0.6768423282620548 -0.6616122063016864 1.7116939319039552 1.3079749426434701
P 8.726382038851385 2.6891122773433156 10.466838067775802 0.5955965615325097 -0.13055110544840096 0.3649660368620037
P 8.05242863312369 6.68112219173477 12.735934790748908 0.7850177018442416 0.7109156805225046 -0.08903935935785956
P 6.932505269843727 8.542370433509065 8.985573561535258 0.20873346748709856 0.4687118491921025 1.4452065454358398
Ni 1.083726917290201 1.2144857751847378 6.658259587439182 0.5334907933407006 -0.12774963144386386 -0.3007581347255272
Ni 3.273212572914333 2.4961777844782866 12.6041569611311 1.5540999634051493 -1.6362562224899304 -0.9267199388134556
Ni 5.287949167959948 5.133781500206448 10.15133963645196 -0.044414521559633185 0.05088727376817042 -1.30105276160234
Ni 2.072395706702143 6.602734808446265 12.229433322871538 1.5923278965380963 -1.1083935739692847 0.6575418928870547
Ni 1.243723837694854 3.257882097438071 13.24767524207197 -2.1483685501548546 0.34029758758104617 0.9787125298306628
Ni 2.708885836730063 8.863098668353164 8.151629661350713 -0.1671916394895701 -0.46010945223507216 0.003909105246419074
Ni 7.0800358515078035 8.844454239794906 2.753240482453809 1.764541157611974 -0.5844989089574514 -0.5283835540211222
Ni 6.012382983654089 8.110574280828265 7.143303897605047 -0.25749263916867265 -0.2801368589307498 -1.694601752308359
Ni 8.290968995549239 5.658377519108526 2.923471183733274 0.8017895219859418 0.16048568822430423 1.1013549219549483
Ni 7.90472363287635 2.536890753782012 6.5142825549109515 0.012019135948063172 -0.5515275962377534 0.4966057473888931
Ni 8.582330648927131 4.378796892665001 12.016356237617279 -1.612718030158674 0.27327381326232936 0.013649729572950686
Ni 4.759800517914569 7.432251230593564 9.116814365515125 0.10782589593674334 0.364048924364373 -0.004327680841076417
Ni 7.782419486307345 4.0302993833803695 9.034493384177772 -0.02094754878594457 1.03279645615926 -0.4011504572023607
Ni 4.1364285013331035 3.675486085396535 3.425994989919708 0.9057865310948982 1.559598010405243 1.0938568138056903
Ni 8.486326988729079 9.155552732857808 5.008995101799849 0.7070317720870662 -1.1487742917791763 -0.5467743978234841
Ni 8.44252956447923 3.9925331701412423 4.76973136125003 0.6249768144668398 -0.3727575078819645 -1.5680931923604478
Ni 2.0037482243000544 5.9685396597770675 7.1549798447656805 1.9749237306667211 1.3322255876607185 -0.5087871199464334
Ni 6.307618565565504 5.75511557334137 7.952700677176702 -0.36248286542883373 -0.24287437503486559 -0.28135067673319286
Ni 5.302141332682283 3.556633590791048 8.06269913370024 -0.214134841008328 -0.015248955739270514 0.9428548967021052
Ni 6.467101410145804 3.52589002050961 3.0476581330089747 -0.26419421955856437 1.4387029399893674 -0.4286031540966747
Ni 8.905234526099296 7.474791005058832 1.461647923578734 1.472661042102367 -1.232349542698671 1.986758004297488
Ni 7.430672283418763 6.413554905084105 10.203900217521952 -2.0764046582220432 0.06502422739018479 -1.0702970242078793
Ni 1.241777693502658 3.890617637963122 6.483729927078559 -0.02369785783757209 -1.829949507814455 0.01428556338473669
Ni 0.593282056990992 2.015379189826057 4.548699870606441 1.1923838009390109 1.3915085416917519 0.1836937509096514
Ni 5.702532960450334 7.953019220589294 12.444969710149804 0.08661763729024437 0.9013824884899314 -0.33673352437887166
P 7.210317353279725 6.913328405610247 4.822923521189942 0.3821716021070128 0.539969973307141 -0.28826360180294225
Ni 8.239368634679737 0.3152817850835784 7.367237162678604 -0.8090215209580068 -0.915181599156553 0.5350648226960398
P 1.83612278585901 0.2089112350919073 4.658522990554173 -0.02514744579990508 -0.19026317659705297 0.1755641798239815
Ni 4.013591919088874 4.649430274410918 11.990814931079791 -0.9511307635576522 0.29733342531469437 -0.29801219654927386
P 4.928738685692803 0.9266583930992771 13.068012167408158 0.6227358409514631 0.8205935420663223 -0.10563917269806967
P 4.13182017876479 6.945201106720177 11.123295453617146 0.6850627240151428 -0.0061976441702796484 1.7811576831227325
P 4.0853330363625195 3.1153086755088344 9.89876133205138 1.0452519083137934 0.3060440657148149 0.5727841916236845
Ni 3.230140362773841 9.050855683272916 2.9481798710338176 -1.8163046633375108 0.7111277965333108 1.7770711717581849
Ni 6.419824794156133 4.291275483568785 5.719128429651524 -1.2236730979705956 -0.40827652672418074 0.4085896870892254
Ni 0.24966184208991607 3.4298129209080774 2.2456374235242516 -0.038658078691830196 0.306090345571718 0.392481211563137
Ni 3.856211277433164 0.5968502940075328 10.416507290593946 0.31533628965001825 -0.7067108984125378 0.5584328079980189
Ni 8.197498994771216 6.928640521235639 7.145990861779838 0.46935513920305616 0.6790589410232241 -0.2915078197718528
Ni 1.1958321667010463 1.3586565041396448 12.008832370730845 -0.9182720651564186 0.48464677525480404 0.010460018991059404
Ni 3.7571323422144243 4.102279178715322 6.164550345655327 0.35845548943699557 -0.0603990699133476 -0.7430092186229398
Ni 4.484347675315337 2.6559819264488067 1.449784705939229 0.6558596200886253 -2.022528219918562 -1.0446207024876977
Ni 6.4454184262686 3.031863153305707 10.764440234464333 -0.9875429836380992 1.2068899649749858 0.5268115815483121
Ni 0.7366431165225421 7.440568243037571 3.7576702858449087 0.7375700498852394 0.42318095463983896 -0.5652238627779234
Ni 5.094041602998821 6.178860931415773 5.472017688839963 1.2858382586454307 0.2903271692001903 -0.46397099207300735
Ni 2.2427200432210443 2.0855413599249015 10.068656048059928 0.06969489339297674 -0.14836627925295096 0.009863780167957205
Ni 6.1554245817805056 0.5990103304623617 10.861217762376544 -0.0695118308478932 0.0024512897539699717 -0.11189003870378794
Ni 7.8896501953122655 1.7425334460503326 12.308099775893263 0.29934377087650377 0.5194389432333247 0.31070367597401327
Ni 1.1586075690625777 8.039182000721146 6.259299110046431 0.2992026173129492 -0.3162310335501457 -0.1322781154418367
Ni 0.5681850588445533 5.602407513732016 8.761049109263693 -1.2592494524133087 -0.4523894578829951 0.34954456010061097
Ni 4.207435224571958 6.42590190479403 0.308139803095236 0.5617503024070262 -0.2148262106483978 -0.06558678476187414
Ni 2.8572609715341484 6.402006558887017 4.875295913788518 -0.7845862707337777 0.21480461338184298 0.8610097410998397
Ni 1.6553057945680323 8.71655033871062 10.907664513106901 0.8086790500169234 -1.2156553698724417 -3.538654789403731
Ni 6.590745825828303 7.05005421503746 1.1363324799948236 -0.06732382205763889 -0.5226335389112224 -0.639967374338401
Ni 8.188282349634589 8.589362471810256 11.173195692296106 -0.7940299326451808 -0.22232894678334614 0.6282930233242663
Ni 5.942633910199815 5.94957393382859 3.0769476031015266 -0.006602335807866049 -1.0458260356497084 0.7993737134555975
Ni 3.015247488268561 2.1352690160056866 7.638908793991207 0.6851223736084846 -0.9475091076446649 -0.8910728790338074
Ni 0.7960767077656338 2.6164531675261817 8.485722949635463 -1.6816644754214005 1.8699859549110502 -0.303413055849871
Ni 0.6619240314378194 0.5018380657564478 2.7484705931978413 -0.5074012953425002 -0.9470805047476786 -1.0181974752991625
P 0.06911290462163702 1.6136748327208177 0.9607985357916236 -0.24684647230873613 0.4497378791927609 -0.835968996081128
Ni 7.988472092618828 8.964325706123667 0.3308738884347347 -2.176825262833651 1.7479040632759253 -0.8155274403973245
P 8.520861868215125 4.749234423739013 7.075856231457299 -1.128147102447128 -0.5781202591246173 -0.29408355091882904
Ni 1.4289930928217522 4.147361792526055 10.945983357857209 0.3946468517558881 0.2784625565521204 -0.26325885222848855
P 3.952380176289045 6.929962430498263 7.0433152317757095 -0.33100304965299765 0.8952504074502647 0.6464552960555899
P 5.279228238796805 4.689372129978112 1.3539875940634611 0.20890830250206605 0.4416679577004329 -0.09530308087938424
P 1.603797232952879 5.72853968920737 2.429156066870717 -0.22225207079882364 -0.06409811603148961 0.4099989087319262
Ni 4.761104067326323 8.768233318909036 1.4717247277286096 1.3694543901051899 -0.19689405165000928 -2.1783663820685257
