# total energy = -340856.32744379994 ev
CRYSTAL
PRIMVEC
9.36673468602206 0.00000000000000 0.00000000000000

0.00000000000000 9.36673468602206 0.00000000000000

0.00000000000000 0.00000000000000 13.70916301704831

PRIMCOORD
 96 1
Ni 7.746570445631128 7.309986949904411 8.59786611199291 1.209279291142769 0.25743427512691147 -0.1671949819236798
Ni 1.2126549172015384 8.236525594622183 5.085729388490522 0.6356666900805181 -0.5839731183609684 -0.841445445814667
Ni 9.020961510018566 2.364182524960628 9.899606167816152 0.9037054801961533 -0.22790618376080748 -0.9736857660400327
Ni 4.234176136929588 6.820191035400103 9.531500994778963 -0.8731818576859994 1.797738470299549 1.0574569350204175
Ni 2.4402497759539052 7.6349002367477565 11.763394318169174 -0.10003545335804707 0.48733486360992845 -0.38702301666204314
Ni 4.829759951042082 8.752857468006425 2.306579917716032 0.33623961546158865 -1.0879463618585263 -1.275067393282172
Ni 7.229751502052125 1.179787045789716 0.5044342472037648 0.6784940696586896 -1.5168287377585168 0.32294778344868896
Ni 8.866785059907823 1.0251984593603285 11.858123851009392 -0.09557021849784186 0.08603656797579377 0.9518172481017155
Ni 7.741400008179054 6.825239705303487 2.350888318664019 -0.44636793427926347 0.821178982256147 0.891524107638613
Ni 5.513990540600995 6.741547932415303 7.67724068677422 0.7755560422107095 -2.2627556442488834 -0.41001664934373905
Ni 8.216986586424674 6.641155271887541 11.344044677275917 -0.448982231973659 -0.9297327574978504 0.1353647247869604
Ni 6.503876410841183 5.525979960779716 12.717208893793538 -0.4420124855240452 -1.0614897103288945 -0.4141460981310803
Ni 1.625231472367269 0.017712494967157735 13.443958838008143 -0.43680831561528644 -3.509468911868395 -0.4059841311455782
Ni 2.0970994570105823 1.3102188239058827 8.296579476289256 -2.890500508379164 1.5288668998699735 -0.8832999199566078
Ni 2.5026228610867993 3.083725703639681 5.823666023735948 -0.5099528581197604 -0.20775824805802287 0.016026457335243365
Ni 5.449903343051924 7.492057535399709 11.8547658766859 -2.1978509731556986 -1.4110998335601184 -0.7596789659691369
Ni 1.8557655422412438 5.831981810638033 5.004722121714231 3.663480819442897 -0.971982410195681 0.8677357469697637
Ni 7.725626427256424 3.9908096407705758 10.906858900519909 -0.8588484717824628 0.194474129354607 1.1621730816835856
Ni 4.664259118903155 4.800901042002518 5.479429163588928 0.4665657493833771 -0.9080524443109395 1.010138866660744
Ni 3.724700713210052 6.736686597202213 13.629457648335798 0.9849379419150844 -0.6653307928038541 -1.5119773232034863
Ni 5.930407456917722 3.142089826400315 0.32557457830007874 -0.8887393458046242 1.419589101978052 -0.73407206403431
Ni 0.23565954700037806 8.18448401765892 10.339875473574375 0.33012810324721203 0.8214715737959013 -0.19457748770169073
Ni 5.677327657067043 1.0111951912609627 10.258868206798084 2.5750564895066876 0.9629043591538128 -0.9893538115945928
Ni 5.1633374673114565 8.882015370228602 8.573367417869907 0.7029349763098732 -0.23764372276354556 0.2661454297476642
P 8.629544408121376 8.140029495652506 13.146127590666937 -0.04293742279347444 0.593873408193816 -0.8936771494258738
P 1.2501874224016447 5.913603535198484 2.701678146277471 -0.7123223310620442 -0.31660744305295796 1.25217043407934
P 3.0554100652019667 4.9207109431791 6.830810102319335 -0.9149987937217855 0.1588782345278683 0.6893891193046385
P 6.121807309989589 1.7174844406018204 5.990753580701651 -0.24759774865246387 -0.3001845216102443 -2.311703534902496
P 3.035618155172562 8.798061328774011 3.577775988960531 -0.7671490490939368 1.8121497606288723 1.281932495833121
P 1.8955460637248602 3.2894379270498972 9.432520837816009 -1.0368294885780531 0.051130243016911936 0.41002102021911324
P 8.018767750626159 9.204652540584895 2.3066211313478964 -0.622961583809024 -0.35827654065697007 -0.027514403370184876
P 5.829340391504908 7.132871366967348 3.7302224032064237 0.43721969212109213 -0.17190858534926523 -1.0020776869191645
Ni 2.644304087355032 0.6805710063840491 1.6823057957852394 0.7520268487405177 -1.3813262018421115 0.7126997690061209
Ni 8.470459789124968 3.889002603331106 13.217579851564858 -0.8462626646976522 -2.7070564115864735 -2.0621026397770743
Ni 2.930289225555593 4.856014907886578 1.823881177953457 -0.4348789598030575 2.1951238040325225 -2.6868917637131404
Ni 6.813952790213362 5.295567658454431 4.337524002196714 0.17987386294292892 -0.0916909380480937 0.8022389508185346
Ni 6.429045568803836 7.828941508952749 0.23655032345271898 1.315635030291889 -0.8066617624765786 1.6313608420708419
Ni 5.031987749212856 4.6778970843564505 9.971949205166414 1.2858498286096565 2.338025974847109 -1.3299797290493354
Ni 5.66148850900281 9.21154645718766 4.329792699528341 0.8727640534222905 0.7459721579060056 2.5584746738886066
Ni 9.28482242129558 3.921280370468507 1.7003470631338609 -0.5450661568831258 0.6521657161768059 1.537859590286887
Ni 3.072747890788539 0.16569004017612193 6.084825568778943 -3.086910678414219 -3.265255249196815 -3.183990905798684
Ni 2.205191573309366 5.992537006953237 9.188826505948983 -1.9704842068381287 -1.3088912838101523 -0.7214415197544929
Ni 7.047268780238181 8.980825052623393 11.918170239288854 0.9183234872196443 0.9602101001511011 -0.9786598222158563
Ni 0.9470611600393186 5.050159214171232 13.554687690072797 4.185799655327178 0.29892725216437555 -0.4872662151555221
Ni 6.690002792381317 8.913262796569395 6.932298670785307 2.408398353923084 0.8447667968784162 -1.5213973309658058
Ni 5.3904245788840495 5.791508150800333 1.169300986500592 0.13235884808110107 -0.6641570842107271 1.487979417626992
Ni 0.1816266022793066 5.838257522762832 7.204260870744021 -0.27384202706097355 1.253595082341009 -0.414595269853357
Ni 0.23452710879755975 1.324905863624816 1.7235297310575601 -1.0790369751840385 1.6936442734910964 -1.1834978113032908
Ni 2.625533151387722 7.04001892772386 7.039092557680363 1.5963519300958249 -1.5022840071751224 -1.0459466203879728
Ni 1.5781074310241856 0.9439045705078897 10.969304109508567 1.9253595465853484 0.04059489070322686 -0.6572109919101973
Ni 5.079205457901086 4.190208685117934 7.6091061232413795 0.283750287313621 -0.6214546602461942 0.9796710370891903
Ni 0.7158629886882568 8.708899382929285 2.55674478978576 0.5150076469348486 -2.821489271316773 0.6413938223722825
Ni 4.246502759550836 5.4370053496252835 3.530355958806786 0.9711493727714241 0.910189288148284 -2.1017557353923224
Ni 7.036487668811846 1.7699943542908136 2.8395789584956 2.3033286805752398 -4.691525105629152 -0.08602114135682605
Ni 8.573128566139783 0.26960646622828555 5.322691848261885 -0.3372323183921611 0.6232554609003589 -0.7808247468088165
Ni 8.29155515989561 4.6497500471399995 8.819570161239946 -0.10483338896732268 0.4028674398934675 -0.4883653617569718
P 7.111224843504047 5.512800965317638 6.757726156268965 0.47785572047489955 0.426864059918381 -0.4142882801358994
P 3.908401110510897 4.429950255019786 13.427330074224328 0.3032428488205939 0.27368518976813516 -0.3880383453004349
P 4.808563030835483 8.257329111979168 6.476921758928444 -0.9401143578424906 1.665521804223267 -0.09627341521245356
P 3.3798269151160376 0.10336378871580065 9.287395463266748 -1.0191187015618512 -0.5779299974906821 2.2838098938160214
P 3.792984207821675 3.2885480872710073 2.879349176571251 0.47679282642802406 -1.5013962052535303 1.0256148508091563
P 7.931853821064943 3.4336200714335345 3.8866712231104157 2.5135855266854 0.47909576352958777 0.27682424961774904
P 6.279458818605259 6.761976780391702 10.025168180658165 0.5720696820551632 -1.0264936538696838 0.5426115246950463
P 0.9546388482616509 1.8852520224932865 13.312940702311362 -1.3434584802620606 3.4714996317134728 -0.14551801117087843
Ni 8.57018741150219 6.177417612802924 0.2607108784597452 -1.3998849386809051 1.6288121075070594 0.028546701289441163
Ni 6.606329752962162 2.039597073825293 12.130579677877027 0.7561961496268589 0.13072182669831037 -0.701584890039882
Ni 0.8937475805289704 3.386421096214334 3.981017656508986 -1.294284589640571 1.3288366165838275 -0.05170051369808515
Ni 8.59458775491279 1.007083194809042 7.66192794918971 0.55799906289471 -0.07110874302136785 0.6293353485458516
Ni 4.188354071684038 2.1654204185602643 4.778164230641716 1.962504788177078 -0.26619016694267056 -1.4650143241903866
Ni 3.8695104288061692 7.187751064488541 5.0437926447216395 -0.38360164968532 0.4025362818062938 -1.6766297412109705
Ni 4.696920922155655 3.2604385169926147 11.614690851035327 -0.5301722704904288 -0.5364683879117857 2.131963883544586
Ni 7.481079722548569 3.4273068923706766 6.960210602965441 0.33915833177028043 -0.23260667456027037 -1.1175207330815333
Ni 4.234073102849927 0.15706515103505433 11.538371634883605 -2.8947011767240727 -0.35888357811334964 0.5735737774045154
Ni 4.06182822186047 1.5291756099197797 7.0988513872102255 3.416758788527167 3.67647954569541 2.4199050690111035
Ni 1.5329785041327177 1.2411485235950308 3.748290834085137 1.0151743722021225 -0.6363151222977944 1.7438478909286805
Ni 1.1687904994695448 3.5841903287561476 11.69339483779447 0.060167927739147996 -0.5110715451052359 -1.1096765544467664
Ni 1.4165406273814023 8.343109666664112 8.137703735472526 -0.3625903375409756 1.9141567358909939 3.037217939174782
Ni 5.9965459693254966 3.473260091899432 2.9885559342772754 -3.978708865649825 3.7981240926828006 -0.7281323015111073
Ni 0.7076333757437065 3.5898384696684666 7.125762015470746 -0.24029041635777323 -0.6990590382942348 1.5116451366750483
Ni 2.083030621769614 2.849098370782815 1.5209628570973555 -0.6524207696104054 -0.6250858292408783 -0.29785150260169346
Ni 6.264865446231473 1.7779373451592166 8.020257998087436 0.19899258605025086 -1.684040688963061 1.3431784871277965
Ni 4.856427044205222 1.390304404005935 1.1911882350409186 -0.5402944465260954 0.6989235411576351 1.2767344965719496
Ni 7.836725265334403 7.343444925590655 5.221298820487962 -0.9945914058444484 0.17275396406869603 0.5375582785418549
Ni 3.9522093278358024 2.439444236785647 9.498242530537881 -0.8469967146501994 0.10674397572647422 -0.35593118035324506
Ni 9.270303982797909 5.797886897004793 4.489873939077106 -2.9879262920285057 -1.2901445993302683 -1.7695522376733201
Ni 2.9535561940899235 7.412271690804126 2.0177697723858605 -0.9828949433431265 -1.5517710581616564 0.3319278754601122
Ni 3.3328340080561594 5.307416577615434 11.176779152354435 -1.6436291179152338 -0.06144448045872644 2.7476867835133256
Ni 3.097794538880649 1.787341546611901 13.115829951205926 1.2125016547348086 1.0149442584691875 -0.3438716780855497
P 1.1001979026189388 6.065916005140816 11.088450845881512 -0.4331581204572089 -0.22746395401706632 0.23004277048783608
P 7.213977921129494 4.607093938160393 0.9708620324409832 0.05818535009148044 1.1710364456114863 2.1031821834262034
P 9.3089792296088 8.06167676143766 6.804049341811048 -2.5354116214215563 -0.2964944743531668 -0.949412752425281
P 1.7191517193454238 7.1646058635029 0.24209824030573196 -1.2062047659825033 0.35864986483598876 -0.991147413159906
P 0.7854990397637923 1.429719622843481 6.257272771233917 1.924136729921841 1.4028579052663002 -1.227824658245124
P 6.2239234496680425 3.1021219702264067 9.569982350185402 1.2314481139303244 0.21063068450981143 1.1725343703132516
P 7.838017874697421 0.24200550963403716 9.532666216552583 -0.08214031824518112 -0.21745670629270938 1.1724328117383809
P 5.282632198089733 0.08663761089303304 13.338974604221313 0.08277640916728325 0.6768889299550988 -0.04428390951903986
