# total energy = -340892.125412634 ev
CRYSTAL
PRIMVEC
9.02940168748327 0.00000000000000 0.00000000000000
0.00000000000000 9.02940168748327 0.00000000000000
0.00000000000000 0.00000000000000 13.21544207554080
PRIMCOORD
 96 1
Ni 6.3116509769133655 1.9105130060945321 11.641126096066202 0.12262310885057591 0.12958128533596394 -0.6478881718473745
Ni 4.71817831653783 0.29814812894559056 6.016712800203566 -0.969175536874505 -0.3552565228837236 -0.2419541772134414
Ni 2.818554768660919 1.7506113348044396 4.750555041522012 0.2934243200682753 -0.8800222776466006 0.0338647710682449
Ni 3.4192447333254785 4.467567277706924 4.76737771946998 -0.3364535312446077 0.09541081010184214 0.5027388568698246
Ni 5.191517602345568 4.6907560241606205 2.584200264303483 -0.9064768722937032 -0.7635294500634785 0.9277437520922797
Ni 7.215457950172899 6.123902631375226 2.448715900569021 1.2127289402542663 -2.2478411890308965 1.8486877076539066
Ni 5.1536302336215725 4.3933365679166565 11.712779814666328 -0.5422577409000532 -0.23879840519327908 -1.4914056696997218
Ni 6.020552101724405 8.281739974152062 12.206918326845782 -0.813324776319051 -0.7358885484177584 0.620862278077834
Ni 2.005439104139184 6.405963075655531 0.34566174261635657 -0.5099749696069475 0.27586291414574426 0.013099770606751632
Ni 2.6468968166085194 1.7885619093389848 0.32606432958524156 0.29874984604624677 -1.945210519873005 1.2242045449940335
Ni 0.7663587146972677 -0.17027555068165529 4.311974436816042 1.6787007648073864 -0.32480591970335027 1.2257816596731665
Ni 8.51885205772978 2.2234720623322985 1.2713054204807785 0.12450052837894689 1.2159628738105317 0.5665824336883467
Ni 6.892792287314949 0.6166665876913082 4.828433629521168 -0.3560458515542384 0.318650955845548 -0.4006218383924004
Ni 0.9109943768592242 7.3316482887668855 2.3758982921146226 -0.5346614166100341 0.346595504774616 -0.2735628052576579
Ni 7.671036403216076 4.15966468631316 4.089637162924471 -0.6561784368806247 -0.6810911409619045 -0.9076426104670304
Ni 7.571098987334955 3.913306495592122 12.50343303705873 1.0524718231010004 -0.7104528819534732 0.8646159703938593
Ni 7.85195852121481 9.050349718645064 7.082340192573461 0.32231117830595457 -1.6786179752855928 -2.2987492887346734
Ni 6.636050284860688 0.8644839296959025 0.6976232986642508 0.29375110728007475 -0.7055582728653333 -0.266054926916387
Ni 1.9928972654457549 6.26752429174793 9.239074142486123 -1.4436859950262555 -0.13909256726050884 0.05344423586206925
Ni 9.350216142697464 4.916635532263447 1.4268576290648776 -1.6173010215436663 -0.7963477821450801 0.5558149107591975
Ni 6.156282065179861 1.9287794853434934 6.957956575051888 1.277555449811348 0.6373366215837732 0.44988674606579937
Ni 3.5082023969739056 4.440235279344785 0.5021430766155411 -0.056703366229315245 -0.7464632386098112 0.16283284830024214
Ni 5.950664534059075 5.652161549634254 4.8979862063905815 -0.535055309614343 0.4696091641953912 -0.5560429676096037
Ni 5.447772017118441 2.840866419785083 9.25293698262005 0.3010923781364943 -0.6627494052299231 0.014802098009839022
P 0.38089266141694855 5.287039640889691 12.46826712994899 -0.20605514932398705 0.4927069265551192 -1.258102740403375
P 4.100431812426267 6.2062868907264495 12.643873639280466 -0.1028227862951971 -0.056809038569244096 -0.9568764077921778
P 2.444313164394136 8.468142938865636 1.3168804216479597 -1.1418965908227365 0.7618983422179588 0.037012572668607226
P 6.381050956897308 7.716661969031697 5.820741378712867 -0.7666302004759894 0.024362488004764496 0.016350673443881518
P 4.5318295282333 1.0288732135350476 12.632442416972417 0.7196587168224574 0.4281143873857143 -0.12413903127447007
P 3.9411892874461962 6.114060583732434 8.352529579027957 -0.5198158669567692 -0.9730190789903114 -1.541608515806358
P 4.853068545653121 0.8873156743468781 3.768885733186035 -0.682803752777637 0.5351954347366331 0.5502201902802396
P 0.23453148062697599 5.6942927370666085 3.5307163066918292 0.16582329838713378 -0.882370466163803 1.60917453578179
Ni 1.4875036042876402 1.3528120220055064 2.5685008439030037 0.5170552734924966 -0.7984419456699475 -0.9566228970204751
Ni 2.0187123243546923 6.679535882519115 4.681108108650232 -0.30856657502635243 -1.0720428032543925 -0.12315995519065241
Ni 5.84586930016711 5.411401587847647 9.0629646954907 0.5574146511461497 0.4924030221614552 1.9165180370343189
Ni 8.407149331684847 2.3017569733992755 10.190968999352277 0.6199112270184743 0.6927716626236262 0.43425803838960697
Ni 2.352041710392586 5.2578114682110515 6.965978295350839 -0.31668611880969333 0.5160777400705757 0.18978366585747317
Ni 0.7796906260225726 -0.19714163192602485 8.907934386313713 -0.3735468365524793 0.00694840629337513 0.1456247119520718
Ni 1.5828179665970996 0.9048453544328561 11.433550990698667 -0.6265698699855725 0.5928719635124952 -0.5214893980044503
Ni 4.10786300986665 6.899455985627223 1.5846635762651606 0.6033895752143673 0.23881845979793706 -0.712636005647721
Ni 5.565975912248522 7.578728831608496 7.964193079008514 -0.028132496570158 1.5436224609125933 0.46614023181018427
Ni 5.137377310908706 2.973670857152223 4.891854339827077 0.4889824265156804 -0.5728479549820844 0.35328885763439155
Ni 0.5542409174314864 7.5732208966891355 6.496552352156299 0.4508701930249912 -0.9097961664749233 1.1274822151696196
Ni 4.8887798286138935 4.463007429945814 7.138334220139741 -0.14368789994067513 0.9976109093970624 -0.8602348106070281
Ni 8.184592643336652 7.120676322552361 9.035635405949014 -0.16954008511708865 -0.18491399646999768 0.2546561981611421
Ni 4.566953900096107 0.41732358767784045 10.429970033725292 -0.3074476309305608 -0.5248770835297606 0.5408387490653396
Ni 8.12133265637757 7.387115902225299 4.562022943933053 -0.8845577036231088 -1.1968837456918935 -0.24518965343160354
Ni 7.051646548030211 6.047613218041328 7.028526765471158 1.39654738966724 -0.5635593305913068 -0.12872510798325573
Ni 2.4495231290637607 5.138433750885041 2.6248244446242945 -0.6095517381610212 0.5911295269000916 0.2014014526020596
Ni 2.446100985892551 5.1644564860286435 11.408005910894794 -0.7536433012980183 -0.06426960861234739 0.19680432014968044
Ni 0.8702175996529418 3.344418083035739 3.665566806440489 0.5442742571094498 1.0692595840823005 0.5803926000985618
Ni 3.56426595093179 2.8527400827669833 2.654652169563009 0.260236520462397 -0.36066072461843046 0.007503507465896756
Ni 1.1598898294037718 3.222674662514856 7.989078109562215 -1.190850137903304 1.2464427875669437 1.7061668314381389
Ni 3.8268951231687107 2.524394926361036 7.126176131010365 -1.0118854170382057 -0.6131996193262537 -0.020020923206617133
Ni 4.0662013513126665 6.924440339597504 6.0726409131388435 0.3306292112533467 -0.22221041892761084 -0.38450230712271843
Ni 0.46095184988008053 7.2005594376861035 11.5230856331034 0.5326484999450632 0.18788490617286352 -0.755572399999931
P 0.20306491931471427 5.5051538636963695 7.9442642869420865 0.504121339039648 0.7017905782927849 0.44164276088945226
P 8.60533566536525 1.6076036737342223 8.145681340481746 0.9902860936008752 0.9831841924487713 -0.31054658157085874
P 1.7057803563214475 3.094664837348012 10.365479339340785 -0.37532321172661165 0.2678457002682226 -0.7612203423143277
P 4.080973452178362 6.214810645749197 3.6648796689857948 -0.5429467965472778 0.5944611623764858 1.252045735576018
P 6.830344946491509 3.954859801328019 10.434621981381776 0.6459143359504553 0.2542198819546719 0.09805750369606983
P 6.332201894743634 7.668724876430245 10.095949898472101 0.03192770194653211 0.13275042709256493 0.31173828788611474
P 2.454173270839942 8.534138834481384 5.851995749089711 0.5006074123491184 -0.12648439157819508 -0.2531986397790091
P 6.933839946566445 3.922498426326399 1.6258168795142913 1.1887176649413334 -0.32476786737656327 -0.26419679066172563
Ni 5.2035267063500745 2.7627079203392055 0.640852742568356 -0.22747295287813085 0.5791564136986154 -0.05729240596356585
Ni 1.656245059653231 1.171935051014308 6.924177584013646 -0.8323116018341989 -0.7750150821055749 -0.6156383106747333
Ni 6.869704107661169 0.5230732293091114 8.974249922742814 -1.8427564297711359 0.472293910116406 1.8522366013474294
Ni 2.5167199350799594 1.4470338267326008 9.120240898070994 1.0147969342580458 0.35745738718978437 0.8648049464762139
Ni 6.2696823187081385 2.28603678537533 2.963655445000493 1.0852526170764472 -0.28050452668281367 -1.1955215752370443
Ni 4.17825622401638 6.842832608775896 10.387839749233088 0.2820271339749272 0.5089856091104846 1.0206240824627841
Ni 8.250471156732807 6.742904222296283 0.39173516674673237 0.04791739250656909 1.0644693617825085 -0.920038670138538
Ni 7.5537986540472595 3.867545488753893 8.254549737393587 0.9079963942620232 -0.8171937723561539 -0.54110768645601
Ni 3.1585478530110875 8.213802757212276 12.465280203930424 0.8745643398558228 0.5710314705986359 -0.28680475786922865
Ni 8.961879642678023 4.844418379009273 10.106311136701555 0.5708941736898232 -0.35665237478998574 0.6270910325963651
Ni 8.5138226810903 2.4321325017609925 5.991167720399692 0.14643358100661233 0.252244760506172 0.001057751840553017
Ni 3.371921640026513 2.8786815532970205 11.644680971439564 1.2267458233586488 -0.9723709038833511 -0.6264670258591211
Ni 1.07389380944969 3.23073791806074 12.608721276272986 -0.9909874905432738 0.3616043194786224 -1.2008512149800739
Ni 3.186168792221455 8.228132417404122 8.113303712557412 -0.4022858563583846 0.7018553700924492 0.014158293778253034
Ni 5.649524964394167 7.7339171553118575 3.3868535612988846 0.09045500875846356 1.0531652496235993 0.7795721053486381
Ni 3.072958156124827 8.46727611632095 3.3941348706742493 0.544400755384985 0.02088044299343501 1.2501757722468148
Ni 3.524355996270194 4.024873780614448 9.392386156556299 -1.036993524959743 1.003048021252234 -0.47244689075450247
Ni 7.076432255167334 6.095125928771945 11.395503801567996 0.2172872705943806 -0.1671741559880734 -0.3900535759582508
Ni 0.5193540188283169 -0.04498989594951801 0.3280941390440485 -0.04093710453399401 -0.12676104227834942 0.1109454154023315
Ni 4.349832911455215 0.4247484645371687 1.641846776009932 0.8653963002033095 0.5599929533962872 -0.6343358870842366
Ni 5.895828978706162 5.391238934282185 0.3660356841770865 0.8236289864585363 1.6421494480459138 0.730189184040136
Ni 8.003923348580118 0.029403343067878302 11.019933972339512 0.6330462217385356 -0.6707982436763286 0.13165796535933455
Ni 0.031935187250482736 4.998830174183019 5.887664593863399 0.5473153579286186 -0.23747017330015877 -0.694952472325029
Ni 8.078569410839714 9.043397079484558 2.4444070701698104 0.05311642020900529 -0.26260630624615416 0.3308048175992625
P 8.703331759922332 1.5072960523913097 3.9274835588984955 -0.988550084746375 1.9109384860640122 -0.45789161864814687
P 1.7496993652522177 3.4021340174694323 1.4332278718281708 1.0193333886758187 -1.518719012802694 1.7266263848440717
P 4.641229756893911 1.0058933866993547 8.38781467423759 0.20159197134631085 -1.1033030468202547 -1.0273462316779662
P 8.54279803052674 1.5995945945973815 12.393586755963666 -0.7050602501829921 -0.3952939984215837 0.33476483068827506
P 6.640122544940412 7.715072794366438 1.371894759150714 -1.815501964930557 2.4709820901925768 -1.570346764281315
P 2.0884193039898786 3.298241723728182 6.102957128699094 -0.8670443773296939 -0.1486053918469505 -1.734649512258864
P 6.74665142392175 3.9694242259590493 6.154920431432583 0.6198829448837002 -0.20874400901005985 -0.8937905350752865
P 2.190767570073407 8.068619010378837 10.451815767731688 0.29114760821895663 0.7284572889506938 -0.6952751457717703
