# total energy = -340858.4390454192 ev
CRYSTAL
PRIMVEC
9.36330230933059 0.00000000000000 0.00000000000000

0.00000000000000 9.36330230933059 0.00000000000000

0.00000000000000 0.00000000000000 13.70413938680661

PRIMCOORD
 96 1
Ni 2.455404297706469 3.041884098768647 10.944249043242248 -0.7395881087565327 0.9858671385975729 -1.1677757725823437
Ni -0.01485207006266088 8.705436653674395 6.356157896570758 -0.00362911211215504 -0.48952312951049887 0.6541174405865381
Ni 0.21558160782354704 1.650300751912814 5.251947405042847 -1.2606995545962738 -1.3827806749004508 0.48838927301637175
Ni 7.902187041730448 9.254631785092446 11.345081713842074 -1.3330809936824783 -0.4238111320246701 -0.9666787385945802
Ni 6.781062680979747 4.879563255733768 7.9591720993532915 -0.8040361519282734 -0.7596697099977561 -2.188066382965109
Ni 5.28487252114948 9.200736617219116 2.905867151995069 1.9989113518305701 0.8640603550007055 0.6657977051379437
Ni 2.537351919184472 5.530294036981282 2.698276186329809 0.9789876378689204 0.24042874170785045 0.1380481851563945
Ni 4.456725888466272 3.7439538663694383 6.205891876400787 0.44044436970597695 -1.8538314566383751 -1.2361473191782066
Ni 1.176405297360177 6.639761086404274 7.576949928347808 0.024961812151660236 -1.0110675491226007 1.7254213087923769
Ni 5.652569401341569 5.65085591702593 12.570450527769314 -0.5217904741846369 -0.6334969361227089 -0.04061006021187845
Ni 7.489443314311362 1.0897479348397343 7.227604184277147 2.1098662803145984 0.6754902498353592 -1.3061245196982925
Ni 5.979404830421912 3.4478394320410746 13.502482999152068 -0.5870329882332147 -0.0006528030926504886 1.2991678858748013
Ni -0.23874079966126324 7.6269527714669785 9.52608983554992 -0.3686103184828103 0.5178266044408824 -0.029653304090058605
Ni 8.916991105191077 1.614832562909309 12.387706021011049 1.207935632630681 -0.2496985970455506 -0.3662348762720983
Ni 8.960801996518267 6.450350844759105 5.813775503885271 -0.1421804621572132 -1.2508257471259876 0.8502666436507227
Ni 4.5241416648192905 8.514593826781725 5.758191196282207 0.3951111929868163 -0.6381501186240042 0.817739617557295
Ni -0.025068369170824598 2.759514992174482 9.177155140448967 0.16551039513240529 0.5840839329072199 0.7435391229844808
Ni 3.9288603596221345 5.740500172970902 5.3188912709613945 0.7030313926784215 2.1279087396386065 -0.042202601509978926
Ni 2.0773703318069163 1.0461430361625108 9.364628114854213 -2.4070109866572547 0.60889764951679 0.19489656160400629
Ni 5.187653353667064 1.3206563321510947 0.9834997349771496 -1.8782944747767458 -0.42227489788580175 -1.740994994860918
Ni -0.21759752680254776 7.924087805742909 12.800475029346268 1.0187469200447292 1.6990492465567513 0.7410317831815948
Ni 4.931089508132471 1.5468737150245575 4.665902997536282 1.1352099228311805 0.18135224726066831 -1.2075111434987527
Ni 8.694902938619236 3.161416015563458 6.897868940483395 1.7386997710688379 1.2669331942108117 0.3006249515817726
Ni 6.935856794128095 1.7060030371244956 2.117591333043309 -1.1241714056288317 2.109209877677522 0.010813545675736214
P 6.34670845191861 7.844022208021427 1.1017235984446663 -0.18033434751911526 0.34107303229449004 0.45972070143708565
P 8.47404136464493 6.59839401696988 11.367104200784063 -0.017944757403878773 -1.2936868081555721 -1.5547640793517095
P 3.31893484967274 3.9276712202336856 4.340237981239845 -0.6605120312589722 -0.4828449461593749 -1.6674632442203539
P 1.0410587630292207 9.571354847719835 11.047701361046638 -1.8281769892950643 -1.1351703278424965 -0.352719872504799
P 7.906110265382104 5.451352035532351 0.1830965669236633 -1.2742430976086636 -0.6905638563390301 0.7088166319016308
P 3.14708079978617 0.6774124473996749 3.3519498534811767 1.7302174446294396 -1.2615066238786017 -0.48697799449114204
P 3.379655864901814 6.961371792817258 7.1042670214392984 1.1131799396143345 -0.39805330633427577 1.0472594256621255
P 9.325830335563051 3.1351613159948655 2.2241681848156145 0.09517221172847481 -0.4289237706608871 -0.6144957124298579
Ni 3.676781535875472 8.385352165531625 1.554597503068114 -0.07282906814658424 0.5385111293734275 -0.5488279379184031
Ni 8.669631385789126 1.0036430071532954 3.044223988006233 4.739820964521063 0.47511261051212367 -1.860305494398493
Ni 6.151680228910689 2.123025793681544 11.372366376660505 0.32332085051739157 0.5533631067845953 -0.837768511183712
Ni 1.7991866213280014 3.219431036436139 5.7157501560773 0.04556149067988283 -0.5686424015411691 -0.48425391069175955
Ni 3.9648997100641865 7.425866491889557 3.6235661437470355 -1.9037406827639922 -0.14242625961943214 0.3078129846897796
Ni 6.713506455092659 2.863063751992265 5.930068654424455 -1.7467846049595013 -0.5418569059172087 -0.6313312959299578
Ni 7.780239392949655 6.443993162516924 3.9236187830106877 -2.4915393455186376 -3.8138528162719667 -2.0143731949115953
Ni 3.405807568145422 4.47666972230404 12.498572201553817 1.133599640921267 -0.1874395911053288 -0.572067368062318
Ni 7.406699812140304 0.09747665829487523 0.12073510113666669 0.021804754579917287 1.5812855226810056 0.31948964969675947
Ni 0.17974263205010058 5.623758520252925 1.7971060955633293 0.16247675051240404 0.015713039859882618 0.1163097650380384
Ni 2.348353662839238 7.8672806508632185 9.659527192547769 0.2793380171785383 -0.09106744553148187 0.1452722137086595
Ni 5.290527955721315 3.964375365136996 3.4207317356355715 -0.2646495619284281 -0.21984706090175685 0.5745523392677008
Ni 1.1062086202325963 5.789807322731319 10.128290621125531 1.9189148194012693 -1.1922652730832757 0.8288506398687918
Ni 5.4777284580304695 7.29230834829241 8.141012111112154 -0.041560597050605844 -1.675927058716991 -0.3206970397412993
Ni 1.2538959869570636 9.110689739276479 2.4792985087724784 1.3347419263246691 -0.02104216538227989 0.6855476340713612
Ni 4.045040214203837 0.3155264325971245 9.7618971126096 3.1514175998483527 -1.1452793912520405 -0.41167475377245233
Ni 4.373898116574771 2.810732255598234 9.265573740126632 -0.29453169419984115 -2.239526498517614 -1.6773841028784917
Ni 1.9181941931956221 7.18481763821843 11.940142981435857 1.3696173980456154 0.7683883208176767 -2.1071211134692938
Ni 3.6634013769298526 6.658787316619459 -0.24189716885690252 1.1530958019726658 -0.03476131474058529 0.4165837610382954
Ni 2.6794962109643574 1.2439521599449934 0.4958458440671342 -0.43053276701921983 0.5633119904671912 0.7090873690645143
Ni 1.3277349886681618 3.327146465764629 13.237691619911727 0.020864245043518907 -0.7223488620601108 -0.20961304187857446
Ni 2.968110640173448 0.9619201322325938 11.698031392956942 0.07973042325210784 0.25552060304396634 0.07320959141445456
Ni 2.8558727358479428 0.8244837088346938 5.554233191898193 -1.7458692922340835 0.2419364366016285 -0.40393676169824627
Ni 2.6853482748838906 3.437614705960867 1.6514037489203675 0.7333135886017306 -1.3626306823151373 0.5166513531858586
P 3.309309374937893 5.772812929108995 10.260905880183962 0.3196889101917591 -0.029433731880084787 0.6580039201251376
P 8.036953051320587 7.133403745446983 7.721693472838194 -0.47978327651491565 -0.8225527226752222 -0.24052850051050834
P 4.290817535521947 2.339505342192904 12.818852382714056 -0.09462225276227576 0.1609932239883421 0.059220476224214134
P 3.3494873049838376 8.849565965535787 13.137171888378694 0.8917632202326126 -1.7125323686448508 -0.18329343014743918
P 6.383459413333276 8.720099585031177 9.729720124354442 -0.09306390713622037 0.7094282973437008 0.8162352650976265
P 4.471894438145701 1.7440274076480526 6.750440000901616 0.6061650810769754 -1.6361173829192208 1.8178234139748821
P 0.38997498528608104 0.9974070478406412 7.435879607338435 1.3030026862398592 2.3501181301249527 1.0647159305756762
P 1.1643547273370751 4.343476747495472 8.251276231318878 0.49243104718591324 0.608663679129113 -1.0482642127775559
Ni 8.270024371456607 3.121762430444703 0.19530069510401393 0.1340460059755369 0.9659086931977753 1.3807734146624349
Ni 4.4755086728224045 4.934038948347915 7.96181723224492 -1.5240774489011302 2.007452556532362 1.8585535447043928
Ni 5.4854906356133375 6.175846912072792 2.264855478505116 0.4587105150050164 0.22641314415504873 -0.11616912569511605
Ni 5.33443248007122 0.18487091270406567 12.093724546940077 -0.43295166087335757 -1.5672174746237137 0.5128445778452587
Ni 7.048534773660348 8.249518739482564 5.930904797317278 -0.4083053230795871 0.20651331990732824 0.2111544182237654
Ni 6.833450357187405 6.066109009453712 9.923975874924983 -0.6723429624556292 1.5427470002861752 1.4960295416249785
Ni 4.904413459961672 7.347074303276966 10.60915518155866 -0.8615136773194517 0.07139490680321899 0.8389951845019615
Ni 8.607683777962519 0.6233637213690963 9.271425804046164 0.1328103337962229 -1.019929884609237 0.14360408197761718
Ni 9.225624274656104 3.9627274239372556 4.227575919321453 1.2051781244902018 -1.4026537596752942 -0.9308337038715131
Ni 7.302813973440755 4.148148898814871 11.689027641492906 1.8464611323162328 0.7864750031160584 -0.573019190452626
Ni 8.63011825020444 5.074179493441753 9.153734712477881 1.0241580637579717 -1.2127451382041823 -0.6292826409310452
Ni 2.4900391528078325 8.94451921386856 7.534316940446341 0.07367804641044085 0.4172213946222944 0.2330656164745599
Ni 5.768412177041506 0.08745043422281794 7.80236955786776 -2.976185863663126 1.1956524443879537 -0.0678436991168509
Ni 1.915516288746044 7.602767361700333 5.647667712602569 0.7468815570941524 0.30543522848622234 -1.4771774419154817
Ni 1.5255722023574578 5.222428658302496 4.962953762091771 0.60240715669644 2.830417169934022 -0.042840492204293965
Ni 0.5286997990765053 5.683009497025411 12.995827222612773 -0.6397501161212724 -1.1893398719063646 -0.4204363020151663
Ni 8.74568949013851 8.234659178778086 4.117998129171211 2.6641783812760247 2.7168505148587596 -0.33355332687867717
Ni 1.6790554531878308 2.141546405574082 3.4718066768648006 -0.42600325457998245 0.9185214621630633 -0.5847282513594382
Ni 6.910426065159373 7.488020092366132 12.646851328981827 -1.5565592235789194 -0.16160437520977974 0.30733733060494167
Ni 1.6577633038230024 7.776971600456987 0.3582511808608501 -0.6267259359474625 0.18788053529748933 2.457775104583999
Ni 7.496353431387547 4.359506720983855 2.4602086081018486 -0.4201753350442958 0.1504589001159215 -0.6419962318429717
Ni 5.116398623382832 4.378326958549073 10.517803995609638 -0.4422482556839351 2.2128921837595374 1.2882684653534782
Ni 8.704444143633642 8.004396849323442 1.5656433907575105 -0.7084517923630445 -0.1671895826070411 0.2709199683181721
Ni 2.472745133512829 2.484496077863251 7.638591356190145 0.3585076828311696 0.059358030243342935 1.044443553479885
P 9.91770339873347 0.4653196060023965 0.5061258136307425 -1.2519696309224437 -0.5157761496697568 -0.3941591134861921
P 7.561896547286316 4.554310224737266 5.1288152985247395 -1.5156280325821962 1.3821237580427423 0.5568274111841119
P 5.8545639212393015 7.077111572192212 4.5049206779168625 -1.1049999749067034 -0.16770714567340794 -0.10850338161974217
P 7.299106105741339 0.5846698747331449 4.32753385271821 -3.393371519951478 -0.09002280631705141 2.5847562332929552
P 6.74744842582595 3.293710113353986 9.498572026504936 0.25702752660679606 0.06100816425225623 -0.0012639543140881458
P 2.282407924942806 5.1112300805291 0.5077784364816186 -0.41647268938172793 1.5060432171072384 0.4920595227791074
P 0.16703943985869218 3.5887196780143413 11.304475880882334 0.5426027829442978 -0.25573143350319183 0.35229512626255455
P 1.5488680984083345 7.1880667041065545 3.624457530123258 -0.814726541762584 -0.05929606665715595 -1.1430520445834185
