# total energy = -340893.8569237386 ev
CRYSTAL
PRIMVEC
9.06110696885750 0.00000000000000 0.00000000000000

0.00000000000000 9.06110696885750 0.00000000000000

0.00000000000000 0.00000000000000 13.26184595965822

PRIMCOORD
 96 1
Ni 6.2972338871268025 1.918037041327053 11.393995212776417 0.48553714827955735 -0.5377588245884352 0.8607986535302982
Ni 4.714312832989915 0.26806016976635744 5.963003170106131 -1.3150459905576384 0.09050231705663123 0.049454655086701924
Ni 2.801404378315188 1.5690666212898798 4.671565247743132 0.6994038232281632 -0.9723331086668803 -0.050011041810804194
Ni 3.0758018864289607 4.096716830099625 4.943419303077207 1.8188932500002932 1.424347956819276 -1.4503191840720568
Ni 5.0737488317964115 4.453207969079257 2.538078637039715 0.30619678924259525 -0.5864871430320738 0.17655765408550236
Ni 7.115469985851826 6.048524617810459 2.442142352766156 1.0045125216129023 0.14451091006260272 0.54651831594862
Ni 5.170004973152704 4.618908435706623 11.507224620064049 -0.012545440765178394 0.37811183021534234 0.0848183792979765
Ni 5.457205825682973 7.932845279396689 12.48789828072827 0.9150533011088048 0.4110875138104146 0.4109317049588407
Ni 1.784258855222911 6.3347196874460145 0.6051179522208219 0.768808696184547 0.39549403024753177 0.04350975035717668
Ni 2.6293158311403118 1.7702322613398704 0.31410056135493486 0.7626159371102738 -1.2026605002746706 -0.6414097632118824
Ni 0.6265420339889493 0.01802344825113447 4.834221182364877 0.10536586443202497 -0.5589020343249536 -0.05971464225181329
Ni 8.53177540153823 2.4614950654376013 1.2045826796847774 1.3260174019674775 -1.2730881580686138 0.215908387968983
Ni 6.776240256011209 0.735935874615927 4.922810720953443 0.36062755738764984 0.6746654399412186 -1.4030821054619642
Ni 0.773341031081418 7.320749368552269 2.8177578645168104 -0.05800100199481624 -0.8037031940688869 -0.7074048391557688
Ni 7.4721514080818086 3.980653108492476 3.6980788572778924 0.9840881923202793 -0.20593893546109693 0.3383358358689851
Ni 7.443110559635333 3.6445947661577143 12.542112697085512 0.3933782694561096 1.0738523456593054 -0.08171017268629799
Ni 7.849455910207011 9.010038759635549 6.918241396862676 0.950856426850343 -0.33218704265876986 0.6599332759373667
Ni 7.101253108718435 0.6258832914984473 0.32978352562674795 -1.0637569090965162 -0.1880240028538891 0.27891378515692605
Ni 1.8439171847616318 6.522728599900285 9.064684484693586 0.6689331654431317 -0.505818781346729 1.3116683323346572
Ni 0.055650601842035366 4.783349408438808 1.4073204218269562 -0.27536540568403545 0.4056761129868562 0.4680708731739939
Ni 6.317666683771671 1.9620740221226458 7.007930953860416 0.524569836701987 0.8568527815086727 0.33882923056563585
Ni 3.671470009993049 4.21881524907506 0.4586143472217557 -1.3259114725172325 0.6201297707871836 0.17492166114397617
Ni 5.92454148854583 5.843952001468464 4.569740149926556 1.3757348237972629 -1.4388690332535865 1.6122390336397268
Ni 5.267448119546902 2.580902335586639 9.414173200060288 0.05000384272195259 0.6414696699155404 -0.8028524160328173
P 0.2529344635848589 5.528598288993358 12.521410785558004 -0.5565685010957705 0.06481365404127547 0.3755926633379144
P 4.1024072053958465 6.093386159357575 12.716505483811071 -0.5045604834595956 0.744975341210375 0.32349182887761707
P 2.321673120858015 8.377881557539805 1.3679725639864497 -0.43213456428870095 0.5115747099938996 0.21308300270504596
P 6.282418976920878 7.833218406177031 5.8534607273217345 -0.35296284175354053 -0.9790989666358041 0.5400859300597151
P 4.513092826296966 0.986455553142756 12.413008230054285 -0.08464534405522196 -0.10200928925496626 0.8976929554534863
P 3.9895148712945523 6.143829342914995 8.275219213421684 0.6247004208770015 0.2035645216916494 -0.9035967225324308
P 4.7910966550602545 1.1162559132038394 3.5840801619924125 0.3765701967598353 -0.5914678840761168 0.8920601826477411
P 0.14109412402479274 5.4457525862332545 3.9126422503740477 -0.13649241063350043 0.8222393051998612 -2.238876009417809
Ni 1.5508537958991098 1.1478248105478406 2.5426273128338273 -0.9781875105651283 -1.2249344811815226 -0.3848784595152146
Ni 1.7229967097169432 6.538159665393061 4.994915387286572 -0.01973501653508214 0.06428529234163122 0.4137884576813454
Ni 6.136797923759156 5.86619701954525 9.267537302896693 -0.38163372732567175 -0.508250273606357 -0.02523100665264687
Ni 8.797582980064714 2.6666657148521296 10.25699027028784 -1.403349757301054 -2.0624003735231513 0.2515071110091991
Ni 2.381630466933002 5.05600718397794 6.983913583223216 -0.39233080202820175 0.5538660145629429 0.7286148975744806
Ni 0.5914139337526625 9.347619367973122 9.38615082005855 0.2608798104733507 0.32064304657491227 -0.08607179208910339
Ni 1.6712759100500207 1.3878082336695017 11.32980723576862 -0.029814769368587363 -0.6342021897198497 -0.09448392741219858
Ni 4.085490118328898 6.599911110685646 1.7936380072437992 0.1885168833299076 1.0560140319263038 -1.529378292288753
Ni 5.800223098316297 8.202331667429966 8.115029712168777 -0.924215427224047 -0.6603207411837724 -0.400685087530168
Ni 5.203666986250569 2.938317707496547 4.743802206240791 -0.19930137553992128 -0.3065318039845108 -0.24679967823120078
Ni 0.8039847893844252 7.6712782990208925 7.160654102813823 -0.05506840172905354 -0.4234527202439868 -0.7066761885198602
Ni 5.311340122627942 4.433681283150347 7.299081543001549 0.11570864111892976 0.8857095578393649 0.05512830843271151
Ni 8.371384743706379 7.450585973041991 9.283411456529572 -0.5233027970641052 -0.9205112388995824 -0.284973875308077
Ni 4.6782133820661205 0.24499059093804895 10.352011382738281 -0.4704293461038414 0.0055232438110743584 -0.6452234805310179
Ni 7.989912132287769 7.355417164544849 4.702903086854563 1.062440504277938 -0.5984877670373757 -0.2080647235548481
Ni 7.233364051105212 6.253749633867945 7.119767668977619 -0.1786739290975568 0.17577835271731662 -0.596025164429496
Ni 2.1646441337823723 5.035193820832369 2.9265183337533327 0.4670362612618925 0.6349429245406162 -1.4658882421549075
Ni 2.385381765297071 5.3548606203154385 11.543031397226589 0.35927978511050385 -0.5496483769371695 -0.31889212532207656
Ni 0.946414520604541 3.2032282364142324 3.741365578400671 -1.1580917125253605 -0.2707649307975466 0.5173275533172769
Ni 3.5306785269473866 2.587843143670882 2.4934653698287725 0.6268663181800688 0.46426821159845205 0.365722455412054
Ni 1.0286531291849526 3.4740556683071273 8.339459744851007 0.6701184440004846 -0.015516607578360375 -2.063523431384001
Ni 3.6663142400192443 2.8384280621692604 7.065792465849391 -0.30950348501832503 -0.9489532962903594 -0.4479126530585641
Ni 4.0397587104944614 6.7000997725491995 5.907608997596711 0.018259717541136294 0.7934972000701626 0.7307723102371156
Ni 0.8531920379252783 7.250235832636363 11.454375712555757 -0.03272268704400171 1.3578021505782423 -0.5656375532765743
P 0.10799299346010552 5.754618545982097 8.065907638035224 0.06737498701054849 -0.5769511785171806 -0.5153141224316737
P 8.511469460393595 1.7892334030535242 8.046306651027606 -0.2942578717131642 -0.36634389104613685 0.23283036053530226
P 1.8788568139689992 3.515555539098036 10.328007603761819 1.2171988031001617 -1.3822235168454002 0.8504545912918128
P 4.0087969073301535 5.935442000458814 3.804902967914411 -1.4244392309815015 0.22397059615182716 0.4054881653457662
P 6.798231563087526 3.97267027308488 10.380179646565287 1.4137938354525137 0.22242433471062983 -1.2469138136660913
P 6.417139518169618 7.799683248579399 10.28051652891699 -0.4753974887423941 -0.10049259550012371 0.2779416510516439
P 2.5978919115108643 8.611920894364776 5.624812749256717 -0.5464447823982073 -0.9265080799129657 1.307119279511394
P 6.9079343874686465 3.863674215062208 1.4591744197691245 -0.3131253980416284 1.2424159257957377 -0.09197478783709967
Ni 5.2791822533185675 2.57363532764465 0.4605706402575105 0.47940146769546466 0.06129021426904928 0.04049050391487865
Ni 1.5275486282846522 0.9437596162067821 7.123229011912581 -0.2728084435901366 0.6772388570953498 -1.1687872445659935
Ni 7.029878767622368 0.7768431489985984 9.39567313757256 0.5492552552638089 0.0321776131738091 -0.6726977746918866
Ni 2.5988252055483017 1.788028275801299 8.959477781685054 1.5494719777148345 -0.7896449162036078 1.9573106455706484
Ni 6.628535148202782 1.9647289265204049 2.574256919595798 -0.9061660259215039 -0.6372021528884382 0.196067699093972
Ni 4.226634984553784 6.874208946620664 10.569744351118858 -0.5119464915110216 -0.14384268035098452 -0.7785516345039237
Ni 8.259153870427737 7.324355689201785 0.36727385649953914 -0.432566509619797 -0.9997485245653557 0.3283638122579377
Ni 7.793240801388932 3.964642132141486 8.14807828831194 -1.4778582700325904 -0.06057056249420535 0.02168725516544652
Ni 3.014032318922056 8.185333030398581 12.498202571790154 -0.1796046684419423 0.4258345902126021 0.17411150653785498
Ni 9.281745118922926 4.848380974523164 10.180536272518108 -0.7067767186534667 2.569400319662175 0.4895203012970215
Ni 8.76122981814045 2.053944587613698 5.768743905933176 -0.3151588835318895 1.4864400981643304 0.4976845822753687
Ni 3.785830243454196 2.8365161685585876 11.430941877219635 -1.1146459826368997 -0.8129596796701483 -0.032812932764962846
Ni 0.9450372323162838 3.4701231477998666 12.507605282689656 0.415992921531832 -0.1571918479643809 0.34818187542512935
Ni 3.1298332684215775 8.194729398523073 8.010168237343025 0.9438069762027294 0.8885040898653667 -0.4155409215960779
Ni 5.702653096421865 7.9627378719161666 3.646092567171194 -1.3195636759223337 1.0624276487621316 -0.625746859863645
Ni 2.9741362640983944 8.055460181480221 3.4767785310085833 0.8983131055359885 0.5261181550257132 0.24155745599565495
Ni 3.6552143837487496 4.301334751977419 9.293543586555424 -0.47846275793127924 0.3874809301350682 0.25976138059819137
Ni 7.527261061826416 6.15008150685511 11.453142495871337 -0.726594267600026 -0.3048382183321718 -0.03403574942847042
Ni 0.517842274170396 9.237798749198928 0.17678129457282604 1.0832098756148054 0.04675808209114528 0.2293418877660695
Ni 4.685507573329588 0.37256735530216983 1.5247940517081378 -0.3014916704574421 -0.982067819456141 -0.41738954476904244
Ni 6.0855573627716915 5.671455704471407 0.2962963918970624 0.007664201413477124 0.10086720523072304 0.2599781245946878
Ni 7.963399332738817 8.729144437688353 11.467451796297757 0.14542133769201407 0.3789764922084828 0.2592985820291599
Ni -0.1485541335492807 4.907106010024447 5.896773725655277 0.0063639945448148464 -1.1536308485405293 1.0106134923043175
Ni 8.107416569933292 -0.2603546042378447 2.533795451685378 -0.3122725631230299 0.1597056155251701 -0.34592881772489453
P 8.500115893122633 1.4818353426645356 3.656105090582537 0.27952493637836373 1.0359023487780932 -0.42460997377688164
P 1.6600491982792926 3.1841817891647803 1.558837537417422 -0.16572148270194684 0.9069003329843672 -0.13297102774380326
P 4.613172754874604 1.0355667539477174 8.096807825670847 -0.5315462680198201 0.06538289628118418 0.08584784900375537
P 8.528024103174161 1.6932672171263385 12.242474568867994 0.1978229912221819 -0.29158135332226554 0.11976867012091631
P 6.3614499535667965 7.8348403443585966 1.570375045163724 -0.14019325652385534 0.11901816510813697 -1.9197167464772744
P 1.7434566896832908 2.956965466030977 5.924955581143024 -1.6549090617044273 -0.02410589190926816 2.089553279788859
P 6.759341291158579 3.9982135341677556 5.756556716803532 0.7399688891347191 0.11329308969890166 1.5244746843395487
P 2.4621112207244535 8.418393767650318 10.23567854624849 -0.489255477671409 0.6034998755399864 0.14858945100735055
