# total energy = -340888.95688385796 ev
CRYSTAL
PRIMVEC
9.06958390093733 0.00000000000000 0.00000000000000

0.00000000000000 9.06958390093733 0.00000000000000

0.00000000000000 0.00000000000000 13.27425280661266

PRIMCOORD
 96 1
Ni 6.358113993160429 1.877041114840561 11.227907429915954 1.7128897519842694 -0.010916132691871522 1.5376914401401387
Ni 4.728092069486265 0.41148793527458316 5.659995458384186 -0.6369578980881159 1.4023981920210622 0.44537240313521365
Ni 3.0855269110719363 2.087382908111639 4.314158974351994 -1.7344242836219355 -1.1516672970562554 2.6399984415957114
Ni 3.1043281588061094 4.569274583199189 4.696391152358791 1.679557970601359 -0.6459210208186746 -1.022664767041897
Ni 3.590693673033206 3.3241658065767914 2.5164395346480974 0.019706991510624123 -0.6017641237958022 -1.4769964362529273
Ni 5.373048330399205 4.853986965674426 2.8481232929145937 0.7922689840900162 -1.5323779983470254 -0.6214554315771427
Ni 5.213160633194313 4.541503516840271 11.442551833860014 1.2227493006047458 1.0956959238969581 -0.2826172021504423
Ni 5.8667239293700275 7.930135926839399 12.474651452542439 -0.5308916651549567 0.3598425995925093 -0.21166246820843546
Ni 2.014953209894028 6.812618058622379 0.37158992808336216 -0.30458007957477873 0.11147094888849834 -1.400932406108813
Ni 2.902802001230939 1.5462098974746974 0.30517789888245367 -0.36681080338022637 0.6574822432937129 1.32868106484257
Ni 8.08022847327106 8.888790960849098 6.889124534870144 -0.3886029595546533 0.7064041658053963 -0.30223960436706016
Ni 8.732440401423428 2.6027166737921603 1.217703214500666 -0.32233380401377393 -0.47528615997551044 0.7347405508562442
Ni 7.103552175755427 0.7894583157366192 4.725686815796394 -0.5873734022917692 0.22967664539766897 0.09684445722457515
Ni 0.8785932808146127 7.563652174575785 2.3312776275730562 -0.669351483927473 0.24448028606940475 0.2792151184474288
Ni 7.803923595209513 4.055809151832822 3.4782262960300154 0.012928278025893865 -0.23015152815155845 0.5004233213627705
Ni 7.658574441235629 3.931909564135504 12.099959726714221 0.24192769485088012 -1.0324398441507896 0.7680684755844127
Ni 8.309589184293493 7.087118089458117 9.087899167316728 -0.03244860744700863 -0.08383801766257819 -0.3972066420632643
Ni 7.222000943439122 0.6950103883225529 0.3315377379633032 -1.418453445711712 0.4000937338030722 -0.288533053414245
Ni 1.9508131114974665 6.312729794577794 9.1705711468012 -0.36535041678461594 0.5442832559705142 -1.0751978039436063
Ni 9.210253297892047 4.970458564035377 1.0567661664212724 -0.6381791720897267 1.2383592392278608 -0.16327430671303494
Ni 6.399389670168737 2.174514402073145 6.884571603677402 -0.859600519457139 -0.7934288087260722 1.2547762471333035
Ni 3.5093122953589484 4.280644140414662 0.045227294778582464 0.37794445139954264 0.24767153931319283 0.9503033825603506
Ni 6.179987362432421 5.896889365917957 4.8800139510206675 -0.473377630098888 0.3661492585368275 -1.5732356557933356
Ni 5.163994418063125 2.7332098490933103 9.503011308377406 0.3483932201049871 0.3553588527895428 -1.7443734244148474
P 0.3025676725930687 5.5628021678784 12.147454417505125 0.4519888800104667 -0.10917932464084422 0.6633109341603479
P 3.9601885272011828 6.366584984662464 12.534823607917438 1.2625700321461095 -0.49752260277620775 1.1065410941415783
P 2.462664156903061 8.678412889241823 1.5413930413861205 1.9357393471577757 0.7186282186754139 -0.9154844751089525
P 6.330660362243235 8.032468043667512 5.679893218829918 1.2600143556037915 -0.9365214982849097 -0.5425199934225043
P 4.757804026831731 1.1213724414379678 12.607500905779595 0.860094685484738 -1.262721470122309 -0.7897346477039368
P 3.9312021365796594 6.466586218389908 8.271028033791138 0.3092818559258222 -1.078180283610698 -1.4870903301538194
P 4.813337089965519 1.3419810038528395 3.594946400993917 1.6184137949918707 -0.5928285118690693 -0.4305595064920972
P 0.32018352569200004 5.9590160166555775 3.4670888468174903 -1.0925833464099055 -2.293533805972005 0.44917197938696196
Ni 0.6691094701945973 0.1746393756610573 4.635913352001331 -0.5611448076125433 0.2756574830031575 0.2059422778952066
Ni 2.053961490890014 6.696073903589032 4.6294621568670715 -0.5033489796499977 1.015104952416768 -0.9350156031633445
Ni 5.979830712048693 5.559147125506537 8.68392356851017 0.5495326772949116 0.9187271504159662 2.3598842083727805
Ni 8.809912788372444 2.1460903256626778 10.352974633223633 0.14174517439200748 1.2908927903502025 -1.543280247081826
Ni 2.330710778569976 5.511250652142248 6.613989633150956 1.2932435499705661 -0.2847496751124128 2.461095170096168
Ni 0.5914094366859456 0.06710131758865429 8.985832789301261 -0.6089765823838416 0.3001552110342056 -0.7992297316785655
Ni 1.6569132403803017 1.174647178143483 11.599944488492946 -0.013883957070943831 -0.15733454418983225 -1.108378661570949
Ni 4.272363610177662 6.989484017167536 1.3279431016613519 0.4300694542295561 0.25373574322940173 0.6622097306763691
Ni 5.707824816826509 8.067404081425366 7.727845203328874 0.006319000239492344 -1.058740943939164 1.0731771739691518
Ni 5.159831478984502 3.1086634199816685 4.948269826658795 0.402858441032403 0.23868579087481476 -0.6781163746042967
Ni 0.9551541745666741 7.639446688475682 6.827121230475594 -0.3524853878964897 -0.2548436315815998 0.51596255464895
Ni 4.979256060563187 4.926452942228234 6.792846365394932 -1.0717777225184637 -0.7520636155157242 -0.8482709533769327
Ni 1.3204588809038798 7.263539638384859 11.299415658394157 -0.4951893266573407 1.3452621091297026 -0.3279267247205191
Ni 4.806779780697885 0.31036025920821664 10.344187113238279 -0.4569199987634969 -0.701208994757702 -0.5430203300976906
Ni 8.148368258233358 7.576866558535598 4.493839224827645 -0.019242393169379764 -1.1633532180346158 -0.18659009862083994
Ni 7.601862332175434 6.2874437942483805 6.690926914641063 -0.12551611412765482 0.6448036193847798 0.99356322169025
Ni 2.4104414919472634 5.414187963646773 2.211331471562823 -0.7763674823684114 0.3605990181425596 1.149295197279653
Ni 2.6726703755643153 5.275015196410455 11.272230487164823 -1.7016154646220305 -1.8172318031374701 -0.5288090715943151
Ni 1.161460002935819 3.3615143536917578 3.890245708929887 -0.27589428160431195 1.1421200196874524 -0.9670656896203538
Ni 1.5016601006245966 1.2778227662881787 2.691992217422918 0.40629446329714547 0.149232226797672 -1.4660759326856816
Ni 1.0530149864584872 3.473696038797396 8.0333124219425 1.1597395325414284 0.12419945219876029 0.46697532611696996
Ni 3.797407632684569 2.655211426269437 7.02806693467161 -0.033889967879225505 -0.36144516819293876 -0.16563946451110184
Ni 4.264337028294042 7.151058657005595 5.830715866777545 -0.8762548401843684 -0.6492889088496431 -0.08202796103703293
Ni 0.6812300623180653 9.396723945945402 0.41017465950424636 0.06890067962645553 -1.0526859959943355 0.3378092739415537
P 0.45703992116213016 5.642133819557519 7.598102989587005 -1.0556509921599302 0.44749407746390674 1.868707602419259
P 8.528492664907098 1.9035696481847273 7.919140870096448 -0.17741794520326862 -1.3988696100425133 0.3684431967773268
P 1.913491773134648 3.320374720444189 10.282900305983624 -0.6854237068989874 1.1226647391763183 0.8681918606705757
P 4.026632299946264 6.201464137461134 3.512460347982456 -0.7880454329269719 2.414529920742119 1.0801379215577012
P 7.002653053207101 3.9077028443079556 9.924123886245093 -0.738440882525967 0.033673995213677484 1.1351469308037287
P 6.429999516335083 7.627592742123263 10.264727580424065 -0.0076323197342771775 1.3511303949850213 -1.1096382450096631
P 2.3744987303599365 8.74071186207638 5.701676545799496 2.2552125417943034 -0.0517935876325237 0.06216593200578326
P 6.805008677605025 3.9840324636667597 1.391393911670168 2.6671300077051807 0.7192123733136582 1.3106110947147365
Ni 5.604612950345615 2.7883710592810775 0.34236954219336735 -1.4291896011822933 -0.38346975209314604 -0.8530015260833825
Ni 1.4591146818493885 1.3487650527217065 6.9120234206777855 0.06756447731353526 -0.5379022921448349 -0.06694689833419439
Ni 7.182312443639439 0.5087147832413512 9.026704869819376 -1.1771045061824372 0.2538576135192467 0.5367982604473788
Ni 2.8228808265886167 1.7958048505110922 9.26337113079351 0.277901798952644 -1.3232791771007082 -1.2783596908801984
Ni 6.6320789185372595 1.8370170404310548 2.595780255911265 -0.08332199725810811 1.4740373536246034 -0.739974545561674
Ni 4.278558136083325 6.823710159914657 10.46150490379103 1.0367598116823822 0.8289740528205336 -1.0927576672042407
Ni 8.328698797885343 7.418284881433805 -0.3268814135123989 0.672694689368093 -0.12501500612152017 2.46231567276683
Ni 7.822017415387842 4.06144136352743 7.861889120785319 -0.35302763355320493 0.2819821396696047 0.11188129695303958
Ni 3.402400038585946 8.513264833288344 12.173512239437132 -0.7982180025845995 -0.10405177360629178 0.36637654405628517
Ni 0.009129443304012896 4.749904419124801 9.986565251549225 0.7233945297158058 -0.11125883287769227 0.1840033117302702
Ni -0.6649057179877527 2.6408452051353652 5.815157902299397 1.9708912124685605 -0.4869854506903097 -0.9419791789653713
Ni 3.8124359334542386 2.801222659878918 11.455865983244369 -1.2708335577064822 -1.07491729658871 0.15661540663562057
Ni 1.0731403934638564 3.3055368809395547 12.55222632579121 -0.03538892102225518 0.9932415766847732 -1.8181314321336042
Ni 3.231810232202896 8.599317046747986 7.85997725246773 -0.6078087873279855 -0.05116366735800865 0.3358526644358152
Ni 5.75771659868164 7.937446011583124 3.2702852216567835 -0.1918382343936567 -0.38907449987443316 1.9444116781207934
Ni 3.3861473439696232 8.643268251050834 3.6875740628892912 -0.5108404029310363 -0.2849633337851157 -0.6669968676523674
Ni 3.465061794782474 4.235314359336322 8.8683290722755 -0.13792322954275602 1.0598236354803812 0.047296728203434675
Ni 7.42634774165362 6.113525450519242 11.314110198470814 -0.9668036942082188 -0.6829119962207271 -1.3126150125186424
Ni 8.22982219258001 9.095432363828067 2.488218616920334 0.18891720409211982 0.3083775989439979 0.36965212948376336
Ni 4.850304714550416 0.3656411879054344 1.5866185222478932 -0.4314208260511279 0.4711286861637112 -0.9970136421326958
Ni 6.3282478528861255 5.733373835093351 0.28261912247666066 -1.2664562545743931 0.009717998618712295 -1.656437582533812
Ni 8.325098173017775 8.846825995453043 11.13634181631275 -0.34638878808044865 0.2500276982501952 -0.14848789243247976
Ni 0.21712221430632533 4.9556116549466935 5.493855189935715 -0.3585652755419825 0.23275477010236045 -0.4599086490781757
Ni 7.3724834819849026 6.068222878193049 2.2356896534439947 1.285474961768741 1.620532126886454 1.8234399888307111
P 8.683383021300832 1.9499061530925375 3.616225459090356 -1.1596937669051575 -0.7361276610117581 -0.36561652596180905
P 1.7624015724575657 3.598103523201474 1.2065303939103487 1.5631903557421918 -1.44668621530516 1.7778090783654734
P 4.9257908625926365 0.9475720023014695 8.208784385419282 0.1641464249053431 1.7143948757748861 -0.8403038760110562
P 8.622009146039304 1.643834900181229 12.393891341375557 -0.06754262293666433 0.4045527980156904 -0.3541141817491643
P 6.698513621698291 7.9872289584296645 1.412247606274695 -0.10987043717059787 -1.2427434843384855 -1.6421515049284428
P 1.884668635026012 3.2421767667712316 5.934905434418952 0.25141789372950246 0.26899601182258187 0.3765889658129127
P 6.875588180676583 4.125073565217231 5.833078493422385 -0.0724320898184817 0.682240166964683 -0.10561011923234716
P 2.325006010202974 8.907646626087567 10.030755892870975 1.4312374848502578 -1.6680767094346367 1.1877720131986125
