# total energy = -340859.0985387498 ev
CRYSTAL
PRIMVEC
9.40848604574174 0.00000000000000 0.00000000000000

0.00000000000000 9.40848604574174 0.00000000000000

0.00000000000000 0.00000000000000 13.77027035228648

PRIMCOORD
 96 1
Ni 4.528229076248984 1.8257825807402766 1.8686260037444298 1.3404407764816593 1.0485547474347812 0.4230377441937553
Ni 3.9346853242143704 2.8636326788117703 4.3704355930217496 -1.7688426132008053 0.2254330396299666 -1.0463363996272237
Ni 7.9437635477619954 6.128988895720329 10.71869584247814 0.40661790807483517 -0.6205717434206086 2.1194022448294922
Ni 7.769969993128901 5.009303785836434 13.072076214710895 -0.6916023249058734 0.30829120987777875 0.8861458740458351
Ni 6.901190389684773 8.907625311401123 10.46274738750636 -0.0674901724321741 -1.1886173919180432 -1.6048532826986166
Ni 6.600005933701954 5.134596594793176 7.61286615193039 -1.0778750936654533 -1.33423978987727 -0.3731735123734606
Ni -0.14353115919798454 7.270680454515374 7.115153475581725 1.0625091527323443 0.6531699890716041 -0.8135201801593086
Ni 2.1458028258296045 5.751426349844079 10.528197520832752 1.9690037656378603 0.29708325697710125 0.2911388664682083
Ni 4.712861206831479 9.442638871611761 11.64821663197203 -0.378075063440136 0.2647223241478925 0.579881207679782
Ni 0.1756808969381722 0.3766677988512596 6.813915391228324 -2.8310452904363244 0.5125501865332914 -0.9825409024378176
Ni 2.98986633637523 5.84175722457515 0.8374032432586631 -3.017802767872964 -1.4836710200596255 -0.3808148309688022
Ni 7.620544417409823 8.625643575481435 12.691121909607425 -1.0175035345559316 -2.6027606402901755 1.0767340380824746
Ni 0.9242049948659316 1.2868550903256881 0.5594803282283602 -0.5646571916411759 -1.065731516324384 0.9024996328135102
Ni 0.5262316793155251 6.833232894821475 11.744745817324164 0.04945182687322451 1.3093270857959902 -0.02408043798797143
Ni 7.257141643064691 1.0318098500163593 2.7996060494273434 0.11301386789558601 1.723843937002928 -1.4847886786038365
Ni 7.263040763828817 0.8508253894821133 0.3706623621945736 0.4439881211931773 3.233015672436819 0.1247157297135465
Ni 7.434613915750056 8.755866431137383 4.112946028032165 0.40627132336869387 0.26390702733544874 1.453278009590065
Ni 3.9831860698907233 0.3905227354338005 8.250939327672398 -0.5166775784381037 -0.33365102879880604 -0.35094966797825367
Ni 0.6433569815173401 3.539557134850681 0.19926138556836517 -0.2861766373669265 0.830708519013137 -0.9666244883178772
Ni 4.32368858914832 5.333162693241174 12.55967124651971 -1.757829035699121 1.7257542666517633 -2.1558671725247454
Ni 9.245004213284414 9.058763231584429 11.234984633717858 0.24459238616723683 1.086848243698341 -1.4656673843933532
Ni 4.611146063959111 8.450880946783421 6.058519335077091 0.39620622582320797 0.15059028348746323 -0.9965618993072578
Ni 8.752545235555665 4.971048881487248 6.697845721163247 0.768856775813663 -0.21799406685341807 -0.12059913644201166
Ni 9.011335053319735 5.107189674879456 4.281163172973237 -2.1366013823165977 -0.3121103265135528 1.0309061811150826
P 0.9430878264027776 3.2957456269055747 6.409923467140737 0.25378228019662097 -0.2510584535075547 2.0788279229515556
P 0.9471052499534669 6.705437428570862 5.058274955816147 0.7224979860434654 -1.1143505628836679 0.515234418233674
P 0.39043429566476895 8.77772234427146 13.41189944127444 0.4113330541623174 -0.732860560224712 -0.20761915137699727
P 1.8651382779593233 2.020519425358931 9.83889984269794 0.4439071314435968 1.0243714653203584 3.4494010000422213
P 2.1033329197223187 4.75692114708412 12.522560414076294 -0.23071974195020267 0.17085546149440253 1.0052188036513074
P 4.00989676183547 7.553085572308086 1.9132278727945407 -0.7533041727910447 0.5680772730663184 -0.5341130003057317
P 8.6412522538669 9.076037212003786 9.072873138139391 1.3370381785580137 -2.0653599703721075 -0.9300330623470886
P 5.216177577481761 0.35385316098693576 3.4002927240841663 1.352321072859013 -0.28306457410050606 0.3910154256508879
Ni 3.2091875550874462 3.073959384843755 0.1896920143894284 -0.4140699934775062 0.18602008504998285 -0.4544905633863979
Ni 1.8979080349313386 1.7692093540182756 12.175576388767013 0.278879589484881 0.8754935365383116 -0.9337843018594048
Ni 7.696884873358985 6.778014490093149 8.722061740697978 0.21790999178004405 1.0491124197104642 -0.907117848311812
Ni 8.893108017399452 2.691212763144485 5.088679419390871 -2.3224887984434583 -0.8662401362608436 -0.4826243455081365
Ni 1.4551070466652085 0.6090348243442387 8.529181190380378 -0.5072161759148878 -3.4785501108023507 0.7170773292485264
Ni 0.6590014121498601 8.659307138629833 4.375971546223683 -0.31052318453209105 0.5558753316834879 -0.5243821461712129
Ni 8.256896781050141 2.8044156675048897 7.6786879204564364 0.4873608317518574 0.5615410146096974 -0.3116375006421923
Ni 8.715400532562407 8.717319863720114 1.54918249885102 0.07261412392230075 0.11273207498910907 0.41985240448723815
Ni 6.199994740069394 1.3011559891478135 7.001039829770018 2.6737588258756078 -2.600835912463637 0.902305257414517
Ni 6.227260532692106 8.42127244112998 7.991590645835937 -0.2611297217006277 0.08750235388804285 -0.02412491807266168
Ni 1.5346087539329463 7.859425878655722 9.750302011100446 -0.4514564045457644 -0.09019584155980595 -1.8024577301520894
Ni 6.922359483335945 3.256117083590579 1.7028174312365578 -1.903493856860509 0.8230108932585634 -0.9462168711958027
Ni 3.112863474731577 0.3250697795615879 0.7851052326055926 0.5646299379476662 0.6699325532419237 -1.3514659239475693
Ni 6.7265688882777654 7.676421416162851 2.3338126029102195 0.28435886743189737 -1.5599569364065584 -0.8453388673318021
Ni 6.103745927602064 2.2676991713160906 4.6056458630042325 0.4994445023892689 -1.3018271778745192 -2.5300436722414235
Ni 8.84058984817241 3.286911058488485 2.700198808187256 2.4960639728618688 -0.7847117405680486 0.542523335856614
Ni 5.06796569646535 6.854844187317806 3.825518660376789 0.7120968453147994 0.8060899491335084 0.03880823111644929
Ni 2.877839492773224 7.483745029992911 3.786425459919017 -1.5279407885112781 0.2912707640603822 0.49220967520372644
Ni 5.48922125163762 8.927787697043106 0.8367888691184756 -1.4998661417622492 -0.471556260619433 -0.5482998333290751
Ni 3.3284495244751198 7.570293693324972 13.27182778240336 0.4497350509792835 1.3837034438250362 -0.5491398127318672
Ni 3.422807231242947 7.35771835912293 8.050265728345348 -1.00136472001254 -0.26115286162907925 1.6189917789825279
Ni 0.04247649204753307 4.543019216346604 11.625592045526263 1.4026450179245458 0.5065394615628372 0.40031767688842024
Ni 2.0943289985560196 8.93567200836741 11.670331278472956 1.434349291006362 -0.08285945579939279 1.0571905687329084
Ni 3.1976527511690738 6.347077602757743 5.838043695124431 -0.009750651628860626 0.7005374226119743 -0.7829219956574774
P 1.468993972100378 4.277455288614158 2.0633920146698927 -0.5515831320660373 1.7198576986616705 0.058608296561511966
P 8.233893032615867 4.267670463104283 9.557944572608182 -0.13065806333991048 -0.25096820778659357 -0.3640242417740247
P 3.6363798649681116 0.9708428603009819 6.102143662424821 -1.6040757811026438 -0.7372656312709431 -0.97243672412428
P 9.494479629841965 0.8927627752779965 3.1792252903578797 -0.0215800401636209 1.497436192164518 -1.0283656740814162
P 7.992085532203071 2.845483709188165 13.094287768618312 0.23677520411566316 -0.44165715906715547 0.38328309000363664
P 5.126702874982804 6.606394295741575 7.1164480832645705 0.9796931485763771 -1.0440272918780729 -0.8780924076137393
P 6.765538837568058 3.324131029370281 6.139131243700757 1.3189522675905798 2.092713422684396 1.613425340638344
P 7.600908906987601 8.83155770154791 6.203424133240885 -0.1387693795931352 -0.3723692713046103 0.7673447100445108
Ni 7.397111690286246 6.696235929197152 4.980459249251649 -0.5120287668121827 -0.8767472064397546 0.7428022448184562
Ni 5.173782939263012 5.849462774664176 1.0809343783189673 2.764764307820903 0.353169815558024 0.2324963742346512
Ni 1.6171682191725198 1.4772169889231004 5.144380479454444 0.6966146905188003 -0.06661316914385947 -0.23088352122157657
Ni 4.663993530198505 2.6533153812658528 6.620814682336754 -1.3561682145192453 3.4985970021508974 0.5018438558593808
Ni 5.507962955883458 3.8476191941486135 13.46441855135009 1.9544181545142016 -2.114711524222042 1.1781388609842225
Ni 1.6398803045387114 8.385642504393541 1.8128007516647704 -0.1909684301941937 -0.654379178888357 -0.30293328799997504
Ni 7.963803623085105 1.5467927433899544 9.585966807510694 -2.701656066506508 -1.471529499601085 -2.659229007690549
Ni 1.2082848231786023 4.02271111985898 9.507669386459558 -1.091790675305281 -1.1083706911511493 -1.3023884496946279
Ni 2.0792471953903178 2.3402762328383777 2.6255358853038735 -0.7984843688721087 -0.3740721129283299 -0.21576106375784132
Ni 6.802589455700644 1.345789847050553 11.699469359823036 -0.011865641089334402 1.8833230383395891 1.4956145655747468
Ni 5.8036340390309045 6.832903597809123 10.816629714800102 -2.2512779826265876 0.1299767210021697 -0.6160442878639003
Ni 9.045111518300939 2.473500395549758 10.991525944000273 2.291451983742312 0.3590905519178332 2.4807036883557148
Ni 2.491639956687296 2.412815660416396 7.784678279397736 0.09421370446994741 0.09831949910820487 -0.44866907160861436
Ni 5.179428030903326 4.946577409226493 5.015628170170798 0.571603541052022 -0.9496536647914936 1.2922786149541359
Ni 3.9964144013011897 4.2519582913720795 8.513152893516317 0.8667471578042493 0.5535191727464854 1.8190395457701705
Ni 4.599376047889058 2.6517912065229683 11.317220447036721 -0.2542422505521751 0.055223439249679096 0.25200924745659825
Ni 2.0406441770566457 8.523900207150866 6.363489765853346 0.8041747343886667 0.07686595722011924 -0.23647875592116696
Ni 6.1734157669295895 3.2594570961444314 9.496831751358764 0.07250433781731384 -0.06197104238615779 -0.47511363895338815
Ni 1.4596701624077948 4.006669651114424 4.517130826084129 2.4305520072019884 0.004628242800630739 -1.2485559772552046
Ni 0.44210664199437144 6.426739254288623 2.7362351915217995 0.4047561722757481 0.4891834867828931 -1.2162302685393054
Ni 3.2638696761099424 5.236076525513863 3.0258378011559093 -0.48702941655436766 -0.5414828104072417 1.9463325492925898
Ni 2.913704641661344 4.314825795273029 6.647006025850592 -1.3978118582019605 0.6954157851146927 -1.907191360316754
Ni 3.094799181482576 0.3568384736160545 3.346161940345208 -0.16258216574201678 -0.18943322449658986 0.6965807519570714
Ni 0.5097480117258119 6.108770059161942 0.08252935808415855 0.6476436599367362 0.02917816422585297 1.3721576479689659
P 7.540600511296927 5.536367175320298 2.6272162409154736 0.4374708888999498 0.41896228857280104 0.3046615835449914
P 1.6432767680089662 5.777299686528846 8.159573519473938 0.4063597693174421 0.8267199666790342 -0.005316784227223101
P 6.315653259293335 6.613949310053527 12.85385861141436 0.06792700285927657 0.3008746056987334 0.987118494506171
P 4.81041779886215 4.816721484527166 10.454320206535979 -0.037824784157257436 -0.5313086980877172 0.048907010113348026
P 5.151390742423105 1.6942707624931241 13.413165823499083 -0.5919831331496386 -1.073627888353325 -0.25940296881750813
P 4.780959828985784 4.035788915492371 2.2985194899749843 0.9777532512411872 -1.714962575352898 -0.006803396075078605
P 5.464702736946529 1.063394137743909 9.572596407960614 1.1022524940685534 0.7424762289376051 1.2494458360593255
P 3.818292943077189 8.143665651231535 10.17046053679728 -0.8244242286663221 -0.15291713184842698 -0.13339551687573156
