# total energy = -340866.30415442266 ev
CRYSTAL
PRIMVEC
9.21926894256086 0.00000000000000 0.00000000000000

0.00000000000000 9.21926894256086 0.00000000000000

0.00000000000000 0.00000000000000 13.49333199542342

PRIMCOORD
 96 1
Ni 6.486511511872344 3.6403204396614943 1.6885422521338842 -0.21501390117917166 1.0343370611735023 -0.20182517040303952
Ni 8.85933001331163 6.235452386580185 3.052353280851264 -1.4178785470448485 1.1116303357390276 0.8700597671172499
Ni 4.012013695918984 4.017775738857718 8.919860965828182 0.09978348524824106 -0.4961663458586294 -0.06534381551313262
Ni 4.647562422426972 0.3126613568318795 10.800184289354272 0.5026766361733214 0.26205994682438094 0.06451334919203727
Ni 5.539895440091047 4.213288770220483 4.62546014764086 1.3292323093603495 -0.8992808687658964 -0.058084305737241895
Ni 3.1967814224095203 8.651048294796631 3.8515099155250963 1.6207457855591572 0.16521883203391546 0.04556200490051508
Ni 6.819087411027358 7.994267592467996 11.111947689414578 -1.302200244943222 -2.259345333015754 2.391323657828985
Ni 2.6649310302613363 1.639739131333114 4.728711347468619 -1.1479934477490938 0.32845662908206014 1.1556203681667323
Ni 2.9701349206401892 6.672869809414048 2.2815062545805844 -1.6403607315766071 0.5483317150082749 -0.8465262027716841
Ni 3.779300915343754 0.2547560520416504 6.3716587843100205 -0.7353187919572174 -0.6177314457583362 1.179891582009271
Ni 4.717490575531447 5.634070269881712 6.587282728419272 -0.08413600851897123 -1.331242654922159 -0.21200185382572523
Ni 0.9329254577588655 4.031208213356495 11.143306109977473 -0.4849316534850745 -0.34353486357142127 -0.2450428434410941
Ni 1.2877566715604447 6.964438401382681 8.331808067819024 -1.374996660079658 0.6315410979479188 -0.4677065478560397
Ni 6.978313400779152 7.217156995041195 8.811320671546099 0.5801066934270268 -0.011305140600174079 -1.4014283719086251
Ni 4.734269644569039 6.29142256686987 4.129188757267334 -0.27322187697847133 1.8313188773581557 0.5821550913156232
Ni 5.800053983592053 2.206558209667886 10.03913273607944 -1.0532814634864893 -0.43381889396965934 -0.6522004260694831
Ni 7.295281078021723 7.750049164552703 2.1017351245264404 -1.8571476654958017 -0.7150189040576008 -0.07974122188538524
Ni 6.729254856795322 2.4643289625750815 6.053877967567935 2.218499502643986 3.742378976601697 -0.33355358398899326
Ni 5.20225816241865 7.851995837859132 -0.0031032058450844832 -0.03921909340162278 1.5855314424415532 -0.09785387232569598
Ni 8.242053877370955 5.516653663693369 7.570218109251996 -0.08594735069609713 0.6008362126648943 0.9684787679177965
Ni 6.795513740956409 0.8443402705822068 2.750237845487573 -0.1777619588062487 -0.2051768604840918 0.9812630641666585
Ni 4.891384421788082 7.279534567078752 9.711002368292519 2.402512327455953 -0.9662331664167295 3.6153009173035606
Ni 5.6581878768060765 9.078462811088853 8.694428641746901 1.1547284524800823 1.8499272364879622 -1.1370572604525644
Ni 7.845616103917366 8.209537516659092 4.488880369528595 -0.5027303722293922 0.43694047031777655 -0.538204396766286
P 2.7246903299875322 7.015310326080174 6.521057033625511 0.41635698973947 0.8487067553627706 -0.48651056793642017
P 5.64405473788595 8.376055947954148 3.5928292207970154 -0.6336319190386764 0.06151312891313278 0.1268965394149492
P 6.515644400970581 5.60650465646281 2.9529750958052046 2.4116744535711945 -1.554555819995645 0.8914731997960196
P 3.3892336565632295 4.834215736567141 1.0063596987506997 0.5342407841328477 0.36681106049054246 -0.7354632879548818
P 1.0254223806457716 5.001628436926288 4.158375118124044 -1.1149324035290669 -1.5984905737053825 -0.8328759589781011
P 3.515639049735997 7.74999384894049 11.225412917037255 -0.3886757217741177 -0.296866770090921 0.6461205384239905
P 1.5819527551091404 0.8886895626730533 13.335824295339123 0.4295675748924731 -0.31551549554035985 0.08824334581912543
P 6.980848699672196 8.68238458911464 13.375682881645238 3.571993512765177 0.7096571255250552 -0.5797523954114016
Ni 8.250563262382876 2.0222281512406153 1.289738814331369 0.23037727100911937 2.6131586956950477 0.019842231536907763
Ni 5.606172762789538 5.061387736652485 10.837088100041402 -0.7516861775716474 -0.6877215017942284 0.2049428900964148
Ni 7.155332579125758 3.7977117949415966 9.325578855157177 1.4972073639831636 2.033893267222394 -0.7962598504169641
Ni 3.4178594858828593 8.71474422225857 8.775549908982441 -2.2705232040094443 2.6568461092806697 -0.02972709475078751
Ni 5.41774012978989 7.810527567237652 6.434403283241916 -0.4618184645063788 -0.09272015064355645 -0.11653036568927673
Ni 5.227887729410138 2.024929396970294 7.72211201460511 -1.0970578372414912 0.10673754796857102 -0.1141397539699131
Ni 2.3289532209552943 4.8993867470213965 7.191122702153691 -2.3549042386596866 2.283612433093235 1.6069050230213229
Ni 3.5071665417988824 3.4853076557065017 11.304807415244914 0.35973667014226435 -2.548372038236966 0.8710324154431645
Ni 8.383652625364574 6.419800883544859 0.3639933230376011 0.9486794738036822 -0.3583235918448216 -0.6848212974282979
Ni 2.0867261550796266 1.2507597462594227 2.2467615966234544 -0.8819014969471843 -0.2865152516532678 -0.4306106714450068
Ni 7.306436393151112 3.5093146314064425 12.251351576730338 -0.6455507819634495 3.1880799882663933 0.5927377519274759
Ni 6.048513275110256 1.2856546782963945 0.521174478991298 0.3089771802012098 0.4140964758400675 -0.44485278318631777
Ni 4.326243250357069 2.71487180881993 1.161534741834847 -0.7149623397880526 0.47776033254761585 0.3941395731021664
Ni 2.9026222159356325 5.454257653118409 10.697742541318545 0.4862393165529045 1.4301126272171951 -1.187383262400626
Ni 2.263754552694933 6.560920229565976 4.445431799989931 0.6261960315859215 1.0045287195628183 1.103115870510113
Ni 0.760460598151036 3.167288981831905 5.219787679928582 -0.7566386364809162 0.48445934183434636 -0.5959562588647737
Ni 4.1731849513668955 6.154968170811951 12.794485431842867 -1.9804364329548345 -3.3641748437828642 -1.1743968774432871
Ni 2.530034690614051 2.760332022789364 7.304034773654248 0.8333482706288292 -2.993869139875502 0.10816502444371695
Ni 9.052344622856161 4.248561692274236 2.2209080014025084 0.45372566019591537 -1.6434067174917826 -0.4339317653984398
Ni 0.11746178060498184 3.3610226943351886 7.532233800272992 -0.3378144161478763 -0.12293344100214314 0.8001154767176285
Ni 2.1196389443456742 0.4118828143100057 11.015483715205214 0.2719813197031509 -0.033148204617194525 1.0594423408815625
Ni 8.573357517445094 1.1358231233519116 5.136493431059987 0.4301486442069237 0.21191597898013825 0.14514031611648553
Ni 2.5080190769537367 3.9679087144487406 2.7789383508836885 0.14946388319250387 -0.4452885851721557 0.8397634301265537
Ni 6.7711840908519 0.38227421094674563 6.475652135268288 0.48080708979373965 -0.9509780400298719 1.222558010529546
P 7.789166521655178 4.344939927284673 5.928699659059401 0.864383285557763 -1.8675853158893578 -0.966364549788271
P 5.3187804995429 2.5235627639852654 12.078313278609244 -0.799166739651114 -0.3789371543301151 1.5643517230401445
P 4.329986273450071 3.2697150571108375 6.136254899200684 2.069649341776081 -1.788443161040552 1.4340767540712658
P 3.5611453600489407 1.783568942352612 9.255035776830283 -0.5907407761021052 -0.2665272385671152 0.5441053356317532
P -0.02244799736243674 1.2346721223744777 3.131275752501384 -0.22870759661618031 -0.14553266645889773 -0.7337334497479686
P 0.4676999547392376 8.400450132939572 9.838068783031217 0.38152985475795587 0.20882474164932424 -0.09934254105608052
P 1.1055101678598207 1.3461699580561528 6.473047691859981 0.8854809867683268 0.718522289225169 0.05980848751720023
P 7.541085220153757 1.9546232538490396 8.179428307005315 -0.8363299789649724 -0.9856316255479993 -0.6773062199981755
Ni 6.287946902569225 5.535110639634722 13.358573762788115 -0.10131766250458034 -0.7464578392931724 0.4279511223349726
Ni 7.827998081427894 0.2134961368928355 9.976402987977465 1.2433348380655813 2.253799206386544 -3.9420143384422692
Ni 7.632005648092626 2.9731864985805423 3.5860014303963332 0.4724132093030896 -0.18940622791339637 1.7299521067831949
Ni 1.471754836314444 7.105271950074037 11.254018463965739 -1.2496373832448413 0.9588695269628067 -0.39850916292477173
Ni 3.9237576366349862 0.7878067929748315 12.93772981929979 -0.9979405248223395 1.2081091820940677 0.4466201594993856
Ni 8.849400860919603 9.155978422335052 1.1499654815407399 1.6061246932118725 -1.5702930282252439 -1.0065609195014988
Ni 9.055221034691176 8.897479347200399 11.974994778119962 0.16444107332762647 -0.08927410107648495 1.0835649449613791
Ni 1.19330526370872 1.1687727896927669 8.96809986738439 1.755822032571421 2.160939959061962 0.9512976281528196
Ni 5.0628812581822045 6.336366501791994 1.7581947491041687 0.13860277210828387 -0.007727707661560885 -1.4653100010539346
Ni 0.9994424814436086 8.070759864888275 2.9621372050412265 0.03412573803911542 2.1079613499824017 1.4817079827959838
Ni 9.21570084498644 9.230608402477532 7.6546721421232995 -2.4736164424916303 -1.6156028079056368 -0.8181499656218361
Ni 4.1135455021338245 9.150197940858913 1.6924420027948193 0.6410557223065734 0.1179159331828937 0.8486170238624418
Ni 9.080979671444492 2.138123578093132 12.544629421116316 3.6888810046835565 -0.006262950190576311 0.7939749110375294
Ni 3.5054241000142095 6.572278368606809 8.396441594907953 -0.5760767463320272 -2.9660716580472593 -1.1791439052099693
Ni 0.03946953316689153 6.550004615422839 5.639672819471901 1.8626035464040502 0.16968715221791422 -0.45662123657615555
Ni 7.195611564084682 1.3533978647185003 11.778815193630045 -2.1185998035328546 -2.531388359194776 0.5830979148448666
Ni 1.9573798151909299 3.173133998188957 0.6084035117418962 -0.6057177091269117 -0.5225162966070679 -1.4357816525775144
Ni 8.722211829907168 6.143517839084099 9.818719381879513 0.8741372796207332 -0.604392819667901 1.8368827445991787
Ni 3.040662326210291 4.444249889742339 5.2015980627795875 -1.0128673213355008 -0.008139855498315014 -3.291808059984679
Ni 1.4909770115580598 5.628492612317018 12.987723147689985 0.7946454547419927 -0.6604413259220369 1.1180825191222745
Ni 5.177716469133994 1.4245060842168267 4.98285800584907 -1.2757829312919577 -0.4389251048479731 -2.488911678087804
Ni 1.5787444496008534 8.62746540545698 5.5808280712009415 -0.7292417325252022 0.02532768013151122 0.24607205603655688
Ni 2.7886167391670207 7.869171335450909 13.275509073710198 -1.9848836700929104 1.2993915718498332 1.0917819335545325
Ni 6.971380510715268 6.210348317904709 5.4955101928522625 -1.6682600290900367 -0.3042640909962566 -1.0458360629520373
P 3.9138192649742582 2.1244790604142105 3.1956391550173455 1.325429904895124 -0.052261271297561605 -1.306387800662008
P 5.626150918066717 5.4405578198272755 8.64015849460586 0.6733734606026726 0.34093753515789027 -0.2536953769097695
P 7.861648412190099 7.79772200301061 6.82666749375412 -0.6096720657889694 -1.5393677994012973 -0.35198736521414864
P 1.0297185598608916 7.179689887036372 1.1204057403016003 0.06547802709815174 -0.03577510071708032 -1.038259279046044
P 0.03996092018870675 4.104658127105123 0.13151655574114138 -0.9952691486377633 -0.048084514212052676 -1.0778069594316793
P 8.549433515163471 2.4002734836337654 10.364835670417131 1.0455807524081218 0.09777185413485097 0.6018687676944667
P 7.435653663277981 5.821802238460011 11.620700125756837 0.9342252460515652 0.46672567200000914 -0.3348504484235459
P 1.2995942125737796 4.898271215508457 9.146940773226506 -0.23382409190713924 -0.21413818344243765 -0.07045516859776897
