# total energy = -340868.43300561025 ev
CRYSTAL
PRIMVEC
9.26940311471661 0.00000000000000 0.00000000000000

0.00000000000000 9.26940311471661 0.00000000000000

0.00000000000000 0.00000000000000 13.56670842400985

PRIMCOORD
 96 1
Ni 5.64385210518581 4.125273627982544 10.117345686055877 -0.9149877379781919 0.4070603949288925 0.40268514867933225
Ni 6.26068452453971 3.2877552631785325 2.519161397894993 -0.34557349126800485 -0.7721364750061992 -1.1343493746030981
Ni 7.533456974296486 8.929994492250923 7.091616978547254 1.6342844434755401 -0.5891896295649014 -1.437564198399234
Ni 4.991072941189121 2.5359881450713875 7.634122690341018 0.4260117392204147 2.0570709908904377 0.17053355937860953
Ni 2.1667229397246097 6.955389198082387 9.49721150537094 -0.6983959507889391 -0.11396209074146825 -0.20888156302918864
Ni 6.436960760453049 0.9506977748319791 4.010427579304041 0.3747007476512643 -1.528227980734394 -2.446702648819922
Ni 8.179589976377528 4.717384549666945 6.673450110993797 1.8718111810452476 -0.03379895082731599 -1.189027225761952
Ni 5.731837277993794 8.810002071054194 0.4589837565065401 -0.24887661536488753 0.19080079426807783 -0.3649693792961134
Ni 3.3271131481071774 5.056514926021018 2.311549945306835 1.7126274994618182 0.8491325300462795 -0.7916814870176624
Ni 8.565716225691618 5.171918992757152 1.5540524822955708 -0.27815968059972096 -0.13006568117155018 1.0523052156161488
Ni 0.6233395402252869 3.4915430870495294 10.568493089307902 -0.7584882880951453 -1.3085205307342946 2.4412616803100082
Ni 4.44921145290043 4.00612472245433 0.4416666579140545 0.449253997577807 -0.5754293425560155 -0.04689563611027407
Ni 1.6655170527776604 7.1653226361096936 1.4990126214549429 -0.7555695717864537 -2.2005699147487583 -0.472809930520876
Ni 0.6131218773527375 6.424604646319775 7.32231851388559 -0.18147951686715197 1.7929125096658152 -0.6947069319731262
Ni 8.012629490429637 1.4945985317698225 5.361481990860014 1.1202070216644449 -0.18667005992915592 2.147627558223772
Ni 2.2026882231733005 2.037924585724723 5.79226544276966 0.12486279681437205 -1.3192803403539601 -0.06431948801367633
Ni 6.874356077487424 4.123799792913383 13.439940927164887 -0.3644790699232561 -1.4661003581657137 1.7041081491368977
Ni 6.12982836308477 3.1211192063339155 5.11368582260001 0.7738691414265897 1.1051696677153484 0.5441865824916499
Ni 2.681768045276944 2.126410306292043 10.6912172035542 0.06537338319948742 0.6338031545092181 -1.6744000805495034
Ni 2.6830472228841398 3.4158954895689195 4.05304087854897 0.3199802161799328 -1.00860700339725 -1.0525636114838584
Ni 5.25061622380854 7.143521000369662 7.362340088065505 1.207625814699746 -1.0094636949705906 -1.3607674038541533
Ni 0.4808057849330628 5.453467837981517 13.187396970713536 -0.8885861080562116 0.7770657939870166 -0.8708938329827711
Ni 4.467472176713296 1.4259029865022328 4.8710313921567545 -2.940191190736072 0.3243621472977124 -0.21035069137554743
Ni 3.4268519238566393 8.401944414358764 11.452337149238595 0.27079835513864325 -1.0693176910137456 -0.44828572012726664
P 0.537558631438979 8.459034667132087 8.368800737168266 -0.6642360170777787 -0.733624177863614 0.9204191934064084
P 4.453095332736771 1.5175773816845919 9.361272930278135 -1.473399205819972 -0.24878868363677153 1.5028383370166956
P 0.4842206329800984 5.9224810884807075 10.755088951526247 0.15377408053208355 0.24920417390763533 0.809046203548355
P 8.04393226419413 0.8961695850342294 10.8832542053046 -0.09224449655871855 -1.1308776140044134 -0.031705044412764755
P 5.379256997958263 1.8333025155881637 0.6918441357920924 1.3142995993099171 1.262469244902187 -1.6711273233355024
P 8.783575003241767 2.94007849730392 13.145773643703743 -0.6532350379815847 0.5025745633778184 0.09468987277541757
P 5.780992921841321 8.548345364562019 2.724724312431048 0.9319585615045757 -1.7204377395348562 0.5757653857391956
P 8.136635563104015 2.4297700566593905 3.348005455417745 -2.1486750256516802 -0.35985262689483827 -0.4249784128598939
Ni 6.573897650243644 1.9109337653002219 9.48600479720355 1.231207458674428 0.21731658117041927 1.0752618244123224
Ni 5.160860595036974 5.586669158382982 5.4762427610313695 1.3796824955911013 0.691721366982241 -0.6157385836980235
Ni 7.678198701371566 4.507998006413729 11.37944256443434 0.8973821090812868 0.4691203974844308 -0.9028724427718967
Ni 7.872040455876468 4.660433337937883 3.9621024739608957 0.2793606428863576 0.42451561429086243 0.15615723605227944
Ni 8.551116916044275 8.347032471278856 4.999508097874251 -0.18228607192884735 -1.517477427086109 0.5001618401712676
Ni 1.2708907609577853 4.966101169639953 3.1486159632468524 -2.502744470205838 1.1188628489317247 0.84357509056316
Ni 4.274334896832646 2.1219795316816117 12.322234465489672 0.8405486450320104 0.3533546778753205 0.7865971305162196
Ni 2.445926626002449 0.29904113553261863 9.210655328672612 -0.01966791074257258 -0.5859173865715329 -0.6407163366892836
Ni 8.446687822401763 8.789368380085952 2.744558980864942 0.32179824322527806 2.380818901642919 -1.173868772853959
Ni 2.838726845441037 4.6317723440143395 10.139975079479406 0.8213407046449919 -1.1028009103728555 -1.1777094867562878
Ni 7.267350954387977 2.415281979847456 7.307870295506343 1.7011390392062444 1.1093736784943669 0.7574197376213149
Ni 7.724304711648316 1.4446364498655844 1.239197745329069 -0.6169531728314148 1.3740525509988335 0.17517620035694345
Ni 0.8035561993329653 4.627183989553745 8.876194877525098 0.4951911264295536 1.1012675044474647 -3.4080476339064147
Ni 6.798078160606167 2.042244127499746 12.332978630449821 0.06575802023241577 -0.5943536902643441 -0.04369281290226023
Ni 7.850869139537084 7.04044523955795 11.42155346203934 0.26517715229712396 0.20768754272108747 -0.5928663070855402
Ni 0.3884667735591392 1.766998476281853 8.554026581630499 -1.2079150638053908 -0.9746432448572955 1.0518223624424594
Ni 7.587673712155093 6.933485598909899 3.1367585429923253 -2.274139460605793 -2.4451988105808855 0.1616498837357345
Ni 2.5531550793360713 2.175232251633346 0.8612007624027381 1.7346783086142705 -1.8896384390346554 1.292033331712549
Ni 0.5318134554901391 2.8008335261786024 2.109324942773325 -0.04460761140704576 -1.1705723614908743 -0.07449565721572977
Ni 7.604404984481095 8.599521738252797 9.325442980112525 2.292686370370045 0.01767196335846634 1.7103309901181576
Ni 2.9661069807894678 7.0223420955952465 6.689282251233583 -0.2857056112677789 0.021635833102220805 0.5658692096714061
Ni 1.7393478472799342 3.3853064598316314 12.793840367994171 0.36682057357223924 1.1304081305671627 -2.4715485042190077
Ni 5.713697056419286 9.159217557818623 8.315591583410399 -1.6845196854820084 1.3802123999526423 1.1579626431466639
Ni 4.690345701259771 8.064093215611887 5.038458129073066 -0.016098705334075498 0.3672046963845353 -0.4117693703687876
P 0.199137364410634 6.282161731176467 4.675955880119115 -0.27666252722890416 -0.7233014557813673 0.1865152795188465
P 5.976549515892103 0.9929013664664867 6.2873822589182975 0.40224703270064915 -0.6266043227679337 -0.2631696349487919
P 4.087945742300101 4.6525265372209414 11.962227539810048 1.6830040201684306 -1.420475361237747 -0.10603383703332706
P 5.5497769346392225 7.643456979112367 11.851428512459817 0.6032219392882514 -1.5689887075915236 1.9481621463021612
P 6.071356969271796 5.392679093430868 1.7965845566198766 0.5251030834976376 0.24357654330821277 -0.7508909353638616
P 0.7170967702506666 3.080092828874146 6.938963816053758 -1.2247285358183035 1.1250723201765462 -0.9007368844861326
P 2.6940592735895637 8.964495210033403 5.482266019068731 0.5127535607933491 -0.29859455141530516 -0.8761435114174846
P 1.6296351939555256 4.260671796883324 1.1168953889170286 0.9629259564203673 1.978883486645418 0.20872575417761471
Ni 3.085209539302929 6.201128610581504 4.39006431961235 1.069594598824216 -0.8159511581983044 0.16745877710802773
Ni 1.5464423024730516 7.731284572070187 3.7676786009506893 -0.7202510989908176 1.889595758722178 0.615611571201856
Ni 4.576165195713129 0.991529494829784 2.3749063144748255 -1.7250865511607774 0.16673244046496447 0.9407481347717477
Ni 0.8812819969551206 0.13583197695887264 6.523944837742357 -0.6232158659116751 0.24912061305489352 -0.023471343649062802
Ni 8.192873030805872 6.013849593365692 9.015688268649493 -1.0556175678188335 0.24472865463478496 0.34406296816074944
Ni 7.161105057767129 6.311026651964927 0.008241426163461605 -0.35044496042769324 2.4333719931492865 0.10617756170004296
Ni 0.5789715430017924 0.2904632300420468 0.9479317849914921 1.7396482510250362 1.388837422617492 0.059246444366143125
Ni 0.718372240096682 1.506231632472943 11.839571092205292 -3.220349132712744 -0.7342384144088452 0.08240282787794842
Ni 4.170879090499955 6.537746978735941 0.27998417000628784 0.8903951362404923 -0.3036233720884642 -0.4963257542546291
Ni 0.447473938862664 0.9751597292188593 4.064029755747017 3.0727914654040176 -1.7888342258313836 -1.712254432393116
Ni 5.839835091772324 6.951319930187032 9.703709702664721 -0.2775433871719607 -0.24667677950009131 1.0061444007893705
Ni 5.688651129646512 0.2053589876711395 10.87763694711648 0.04005624459093747 0.755140454668835 0.3325104874364596
Ni 0.5920330586996146 8.642429804511558 10.588096949608325 -0.8521314647736035 0.2103002977535862 -0.4877151297674826
Ni 3.697027211660503 7.67558472973947 2.693778410680158 1.46814412806862 -0.05715768015791447 1.085572205199395
Ni 8.014557526243381 9.14969788098826 13.069543000777536 -0.26443538903509295 -0.812573242865007 -1.58872012458218
Ni 1.7623915830153583 4.981905501670885 5.79333698575076 -1.4140802563446808 -0.6083062957896943 0.5597294153222554
Ni 3.886855314687756 0.646918120510966 7.083001995444879 -1.6562563197609408 -1.4476668340508745 0.037170438402710185
Ni 1.2133370380369293 8.004963694189414 12.738786603049117 0.15776109020428958 -0.10851289470143893 0.27440175621918544
Ni 6.241459782819972 4.8667424394114684 7.685486305971401 -1.7117875200590262 -0.21097418389215924 1.03088509806916
Ni 3.864200893876261 3.7943744814486866 6.075389159555347 -0.3237126866391715 0.13827881310996185 -0.02624762084261931
Ni 3.2081867082497793 8.629063325456658 0.8002720498675346 -0.32627761915287035 2.693820886732806 -2.7924180649824297
Ni 0.318560644266189 3.126365688404008 4.669376457904712 1.0984680873254566 2.410404071499203 1.788279124658862
Ni 2.4915691661316637 2.7233135093019523 8.125183215758433 1.224795127390181 0.11583925315952308 0.9704819143907545
Ni 2.496315100442419 5.914666981793273 11.989646433738198 -1.3407937889457038 2.020628688903004 0.6456680242676043
P 4.679741504284177 3.997022168756748 3.786712392969643 -0.4884255255709459 0.9932060954611476 1.1483127787617255
P 8.898608293859875 7.63508670824789 0.9063334853696648 -0.7418769047907094 -1.5304612409402867 -0.6323918759839884
P 2.50848582651668 0.7807136096415713 12.405710073762142 1.1285679920346305 -0.9709015184266763 1.9765687224693118
P 7.2609736051579 6.750461237648454 6.125436519966732 -0.9583465645798013 -0.2331221807441082 0.2958218737661744
P 3.5909574336957175 4.679963969954994 8.052764151325551 0.6731009236675763 0.4895136164288021 0.0761805011173204
P 2.236771817823 0.5809051404573071 2.429729271286407 -0.2872788692921698 -0.10327530045158344 0.6004500329700692
P 3.961446200231987 7.965865352543389 8.879410433408694 -0.3619452477578089 -0.4606558116568454 -0.10965420739473372
P 7.782692680834733 3.7357455077855506 9.21149606352024 -0.2543263256255491 0.7925158099934997 -0.2102928415544185
