# total energy = -340886.8040299169 ev
CRYSTAL
PRIMVEC
9.10224321407440 0.00000000000000 0.00000000000000
0.00000000000000 9.10224321407440 0.00000000000000
0.00000000000000 0.00000000000000 13.32205301264708
PRIMCOORD
 96 1
Ni 6.690449184134039 1.857158002955541 11.62624891889693 1.8012727087050526 2.4550559058806236 -1.2975146665420945
Ni 4.946605007759459 0.5017575198606256 6.133153416681927 0.0304194928321218 -0.9866924627123458 -1.2864856624214422
Ni 2.916204008473654 1.644010772089897 4.674335065899038 0.3342071584125922 0.8464634678545486 0.03324924897143306
Ni 3.334306451253792 4.737135083178554 4.4072552231563344 0.03727276830852935 0.6666857641698518 -0.22159695371332802
Ni 3.815787813985993 2.7757108834614317 2.6041281363052673 -0.2490581352480743 -0.18179319145282885 0.2791906929673966
Ni 4.964873210020524 4.738818998185179 2.3447078312818888 0.7052178588067789 0.9925291239987808 0.019655312337082276
Ni 5.106085412251791 3.057388903975085 0.5820274726656327 1.1640214477462338 -0.12369911552357409 -0.6590534444355747
Ni 5.914055139160436 8.086396520139834 12.236292186151168 0.48603954183727255 0.957632569231912 0.6534803212231713
Ni 2.048177680409801 6.752581096756872 0.09551438984876941 -0.34584705664436566 0.45590492723542125 0.44766171339002253
Ni 0.7632777124084822 0.042662214248933364 0.058453696113766836 0.7034255427930466 0.74343756440961 1.4349799826118255
Ni 8.234926925967462 8.93839379778927 7.0235330337904855 -0.9505882607906209 1.2195050826358351 -0.7846459203271197
Ni 8.941734321072683 2.525326375341172 1.015448080660093 0.04086614208674252 0.3425897260493326 1.0278208573215395
Ni 7.134392895583415 1.1825634468148971 4.690788280850259 -1.3044923834115083 -0.2803960261294074 2.30014154109651
Ni 0.42731755387585346 7.392568923950545 2.1366305499226788 0.24625177614753077 0.5716791314849639 0.09505471231400404
Ni 7.809997800728033 4.131171441361989 4.179394216030097 0.1884160960859852 0.2914810802989754 -1.8270901839887888
Ni 7.81552286239842 4.035789034040766 12.44638106327505 0.5061003171428897 -0.5030805564799594 -0.24389304610736703
Ni 8.568196461386803 7.45545632276554 8.868197297621194 -0.2958373003851421 -0.9150772123682047 0.4601721871522075
Ni 7.01820276012627 0.9262533783199719 0.4085896883291967 0.7060274991922679 -0.3440467702108333 0.17347387295385608
Ni 1.9604138507131472 6.659210285200319 9.061926712899629 1.6470638546283958 0.7805560665284621 -0.29448824255641537
Ni 0.6532243093700774 5.122715210722626 1.1923820366400142 -2.2908449462859317 -0.5907960548200728 -0.4869435417087807
Ni 6.5152127965256605 2.1095996180568677 7.136184217060732 1.1557867185412676 0.7947943216150312 -0.7662463347740094
Ni 3.4430236449788314 4.785322359097875 0.3175827293522156 0.5938225003512224 -0.20563220285395553 -0.09774228644849618
Ni 6.013451635767724 5.762247925752348 4.7132626297305755 0.44069762336736357 1.4068176612449965 -0.430295197087117
Ni 5.207539015840145 2.7971284618970493 9.326409685634818 1.7367567884098543 1.044952889016136 0.9636720905577726
P 0.32119631993400066 5.7599359559594685 12.183963389539878 0.6789532686832952 -0.05881629880725999 1.173398775196076
P 4.285736634483631 6.551102941774976 12.54633643761967 -0.4668925365951765 -1.0236433289050821 0.6122236285662295
P 2.5989999324418473 8.653493583154832 1.3469262946021148 -1.001801293329326 0.33209705404812484 -0.48822189420057205
P 6.594475130999677 7.967557631888485 5.791136625471415 -0.4059807887114686 0.18256889327658882 -0.28648825507007436
P 4.9134728422236975 1.3669657934052835 12.484056158431388 -1.6159324233309138 -1.7442811218113572 2.472954126317283
P 4.189334775915154 6.319050351618735 8.50950155582614 -0.7804493657472688 1.2724656939932666 -0.4725821307807862
P 4.991205999826832 1.4473021925862277 3.9472178353652603 0.5825623540563709 -0.8430331020167611 -0.44283626697692124
P 0.23707247732464132 5.6234114090169145 3.516888349188367 0.15673419160167198 1.1496970607037618 -1.611733554758218
Ni 0.5893065366158934 0.4840846043100113 4.693239514965308 0.14843184238356372 -0.5891387217223079 0.24829580316075303
Ni 1.8251454133431027 7.03941098696647 4.662665079790961 0.1467724524032698 0.1240187036465219 -1.3711598028320708
Ni 6.229311335130525 5.664626366584478 9.143058648143162 0.6028015639213812 0.11714871599956599 -0.5217555071816434
Ni 0.36653459370697633 2.7955446715664936 9.760602163859343 -0.0027883613784145528 -0.646701607738441 1.3802121428423262
Ni 2.640615388713689 5.552805307901281 6.780898175598013 0.9248309493208589 1.4717223323381816 0.6444197536827999
Ni 0.6862035572187514 0.2677779848022073 9.354625729575561 0.16302105305164827 0.10846044419694871 -1.4624769024805135
Ni 1.435696832405432 1.0692041090175393 11.363112167942713 1.7098471085032034 1.100508514794253 0.03392339222032222
Ni 4.504372518046546 7.464403827908852 1.3163454878574716 -0.9993163221239435 -1.418485327390912 -0.2136152210594321
Ni 6.190645005681098 7.773770872477392 7.945832397630035 -1.4767856057937019 0.5157285842612731 -0.3031867987716778
Ni 5.415798342064936 3.5395893439263317 4.568198358143611 -0.49413723124374254 -1.8812653844796117 0.18972890136013776
Ni 0.9944746916964932 7.681683477223188 6.880947303048408 0.8051144725941167 -0.5359474824113092 -0.3785165218529287
Ni 5.186503731622247 5.039684547531082 7.108634457328015 0.05760788032145563 -0.002352302282260465 -2.112870614358561
Ni 1.3551874906021855 7.615628497747081 11.270203750344738 -1.1983760139667037 0.04975264594309496 -0.3941724832226308
Ni 5.128240272393013 0.696663855195042 10.423787058049689 -1.3652881745426422 -2.2883844005605813 -0.35496778799871126
Ni 8.171129302824562 7.243119191551733 4.5321361804963205 1.151248978571914 0.7377263729574456 -0.49144734311640526
Ni 7.700097315376717 6.07390873562721 6.679358100698509 -0.38863895499891127 0.34026210635742044 0.6447527115421864
Ni 2.375721904806615 5.913727458402391 2.3884177137322413 1.6759584261755587 0.12607481484460223 1.2177495333973094
Ni 2.6656101487579758 5.435085995573254 11.271655558147748 0.07210093173130809 -0.6164849749457447 -0.4858688205873633
Ni 1.2138114479918947 3.5485823602860385 3.6068130514394685 -0.12210940243895098 -0.16629535292754585 0.533209771765172
Ni 1.88270799983985 1.2942479718489088 2.4022194452162733 -1.4208016342289143 -0.07583314508023067 0.49155790055234055
Ni 1.5447235024019592 3.629737961362098 7.769261621156948 -1.5400062043162446 -0.19265867341242304 1.109212213215838
Ni 3.99710450010478 2.5604792388848843 7.058463802598189 0.19148753592245732 0.06747243182036121 -1.087519815844069
Ni 4.337200717983412 7.127884791638889 5.668586752635195 -0.2361923350289997 0.5488083975343775 0.06210525397117691
Ni 8.341350354386181 7.48399185544538 13.13272024391866 -0.041821049800844105 -0.917351610224678 1.1781743422078486
P 0.40271419029256633 5.692533844478062 7.865446846335384 0.4974387848131498 -0.2522918116940236 -0.5496769161822599
P 8.925741679631383 1.7376364464582625 7.844171262894919 -0.19194442095421782 0.6636315507245603 0.1988519467073285
P 2.4965268776062404 3.3216998443123 10.282786938086824 -3.3145826346770333 3.5878705890067497 0.7265374462201617
P 4.395409563752972 6.523668780531903 3.3903025416822135 -0.5561005603204164 0.21791513398636664 0.7954293840958688
P 6.923220851509326 3.8962425423295652 10.254477141040306 1.429896397441331 -0.3143387016234393 0.12931440482782244
P 6.80194256205919 8.049814604401309 9.999985700752536 -0.17750099183537815 0.31177531177163725 1.6226121493439347
P 2.7336130082958 8.73611464539882 5.487500353271368 -0.691773303266099 0.6013689452399127 1.6612118639940037
P 6.903350654431147 4.218425545435015 1.3624865794876604 0.6080579272243142 -0.9252824350359806 -0.22191834160848878
Ni 2.94496709723547 1.6971587705963027 0.2575243077483512 0.02008494367533315 0.434364224950168 -0.24570824493923493
Ni 1.7370539028884031 1.2903067005090776 6.756132792084359 -0.36361800747454154 -0.2609893394680215 0.6923697991995172
Ni 7.268478041327182 1.2202467339901872 9.358062736637734 0.5287198543146184 -0.6481779351736515 -0.8240822719458711
Ni 2.9103512660452218 1.772288686621627 9.193349452484274 0.19955642897352083 -3.3269699525977927 -1.711491586085162
Ni 6.631685101524456 2.2913987230694444 2.576125084857253 0.33032710663189563 1.153556800769484 -0.688728345792188
Ni 4.56860704886684 7.151969327355271 10.552358064815005 -0.5250290357265925 1.099758524002106 -2.262124181312472
Ni 7.533134866909001 6.214674927937804 11.11397648760034 -0.6449033781874377 0.6243890602841697 0.21518025155370685
Ni 8.040184431012069 3.9222931625942223 8.152523407337846 -0.45952786869998924 0.2859526942815785 0.004311482891160316
Ni 3.2191812782602973 8.622318399924067 12.478860597967703 1.4520539073749767 0.31777755210165914 -0.5050024560930206
Ni 0.3508887477346077 5.3017199270485325 10.073923222908304 0.011539368098167224 -1.4648199487913933 -0.21473313671395922
Ni 8.813201543729141 2.9150753303070513 5.8917045807887165 0.5461699314702658 -1.1948834274324132 0.7032044279211761
Ni 4.027260232088291 3.0487599773465406 11.514170266728936 0.7019885532362039 -0.2023414479178257 1.7375898258341105
Ni 1.4588620415506282 3.7249019148446236 12.676519451669705 -0.4066325633628546 -0.6732335925906986 -1.0537031244049402
Ni 3.2948573288823653 8.457376649464301 7.777614749814137 0.6554479864725035 -0.14045139528124842 0.4172705026926749
Ni 6.057369959589166 8.334523671926888 3.614566342264568 -0.6018548837373957 -0.39707423025045807 -0.21698362331103277
Ni 3.520201565741943 8.608774261924832 3.3866525421273126 0.09804876194532146 -0.2364877547822314 0.11756677737359109
Ni 3.704449174196586 4.231378037621112 8.595748041568175 -1.722895971267362 1.1677480046682018 1.877548854859973
Ni 5.277735516008222 4.933898276141898 11.157325921216842 -0.316251602375436 0.08937540254103962 1.4827911885578333
Ni 8.205189897174789 0.19901326750192636 2.7836034386087007 -0.20063372119809963 -1.1058263274627407 -1.7287801979622808
Ni 4.999907744401609 0.7594911792043951 1.6778993340421489 -0.8277946878004516 -0.5232716867158537 0.153375045321452
Ni 6.584371640959924 5.9091854390061425 0.05133028052357796 -1.859408179395204 0.18302037899171059 -0.09294743616301412
Ni 8.240579419043756 9.044198273665012 11.480692215948569 -0.05346943267304984 0.15770144061094776 -1.2491874401916165
Ni 0.7194094509250739 5.243693126144554 5.5471965055927255 -0.7915441901088497 -1.2051236171031825 0.6876921912181898
Ni 7.154126559012406 6.129778304874054 2.405389756550368 0.5982064883515311 0.39614323379575644 0.6925484908692267
P 8.639885729452645 2.0943351560778916 3.551859167866499 1.3265426783433283 0.7673899614601494 -0.17489800699489233
P 2.0466667080254775 3.506238724551872 1.608518394871876 0.02623322266491611 -0.6308486998665845 -1.448375687192441
P 5.000799764242956 1.017366833543318 8.252545228058404 -0.0159071581485597 -1.3528661467292054 -0.44754421397555183
P 8.851886077665126 1.9519396622203464 12.240648519784525 -0.6115003772469597 0.139486717375134 0.6992526423622797
P 6.515986487204381 8.030554257622828 1.1489989247233796 2.367276129961478 0.3034984164748257 0.7306769223098319
P 2.4679822426831217 3.544276999215045 5.929659114813722 -0.6763055466478031 -0.7206989851615136 -1.6461721960520617
P 6.81273782258815 4.17992305636461 6.084940654481426 1.1893910368592742 -1.4469374120840177 0.8691717080853417
P 2.8102083854890525 8.776483094341431 10.042683413750257 -0.17495225727159547 -0.16252045926614592 0.06249529032074399
