# total energy = -381168.07571823476 ev
CRYSTAL
PRIMVEC
9.23398905278993 0.00000000000000 0.00000000000000

0.00000000000000 9.23398905278993 0.00000000000000

0.00000000000000 0.00000000000000 13.51487636467327

PRIMCOORD
 96 1
Ni 6.93937953747602 2.2245879496475873 8.192433667741998 0.6415856266681144 0.7385817789792054 -0.7380395333224903
Ni 4.088717911546722 9.032946419694495 10.819198766646583 -0.9279473834626534 -0.587833372647323 0.22381864395499518
Ni 9.072523295795785 3.1520774891346743 2.245117877000829 -0.10798350456053017 -0.6288347547603492 0.786468061137523
Ni 4.128987336809837 2.3893961821851017 11.885157508948527 -1.6369661040727614 -2.574701420160114 -0.9724799186573897
Ni 7.3263944770833875 3.2390893658267967 6.042149779366422 -1.7710218802403113 0.5920216996970579 -0.14257126983772864
Ni 6.107941949740122 3.7210020085823055 10.29598433867739 -0.04307523392291936 0.6811147951109884 0.36780710585522464
Ni 0.7247730126288504 0.9648871942258216 11.436517698123902 -0.16800539364011713 -1.2992465616315365 -0.35811816070223484
Ni 8.737911242766767 4.2542833311678345 4.393307496711036 -2.2983710794596486 1.6154138318232825 0.9799032077046544
Ni 0.882551409474365 0.5604320199258498 6.7944687040572775 -0.6588374717700266 0.42125674103393257 0.2757500427169638
Ni 1.134044635499618 7.558693933938287 3.235569369286943 -0.37067799964511644 -1.7680905655261292 -2.5569330404330994
Ni 1.7242442651986183 2.8698683226840074 10.447080097810705 0.3897627841907094 0.508218391927157 0.03531024526551983
Ni 7.857856703870514 7.9873172271883055 2.142621524449106 -0.09271757954039515 -0.7003376478963423 0.3592885268612522
Ni 5.951176521468642 0.09604456456012953 7.532083424944192 -0.4064289319924807 -0.34595170054303 0.5432455587346193
Ni 6.527829889562279 2.4648563388579254 2.6901767469593594 -1.1625690315704236 0.6250192376690009 0.762118685758881
Ni 0.9026602669372147 8.535123614194582 0.10234768533165055 2.1096526216418954 -0.13328367388821563 0.010750296537968582
Ni 2.8661100892324853 2.5689972648192705 1.7954918761697607 -1.6922209107810082 -2.1937256381334156 -1.5240967321748398
Ni 6.127139412506006 8.405552283010898 10.074651166950325 1.957847749021041 0.3697068939810988 -1.2649683571749568
Ni 3.042506977744595 4.259260451144174 12.804439879168504 -0.4327734834242805 -0.4196618857429869 -0.693355303041238
Ni 6.3115421693288525 4.690783216885047 1.737404546071123 -0.2379270583319193 -0.6844775409356341 -1.051305313596725
Ni 8.63121250190107 2.275467228069915 9.977249206033012 0.4209227547332815 -0.18044207674157312 -1.7035926429530597
Ni 1.7722702410742126 5.570099036675351 10.61500295477868 -1.12793910020138 -1.1790814274031498 -1.0621700242253709
Ni 5.055267223760931 1.9309932749764611 6.382697440411751 -0.13711924558422192 -0.8060786362795989 -0.06513555615706847
Ni 4.5120408952115465 2.8395254354070985 8.38358831719323 1.7343679764627034 1.1104412005269326 -0.40904220124561164
Ni 6.202562633223533 1.6397440334667273 0.4416284431102737 0.4017626368650629 0.3689417336803001 1.9376201091202563
P 6.1439175701999025 4.778801598359027 8.339435076230581 0.8421548131768659 -0.7557402930363629 -0.9717494682492684
Ni 3.5947826153418707 8.761171660615377 5.878916865322348 1.2181683661022826 -0.7626768722551962 -0.47494317481379494
P 0.9971230492117281 1.0317320393255003 1.3446340612295202 0.8820434218416874 1.0662565355899185 0.4840099130017535
Ni 8.262019160724753 9.16013538176149 8.548023496582239 0.6003826700672434 0.9684574277615579 0.9051396415395185
P 3.1397685820317776 6.185036522434861 3.69722448735953 -0.26652466746395387 -0.12249635346472451 0.5544491407599225
P 3.618135373078725 6.494984591313962 10.917654325688757 0.06835072066025648 0.5508547385404449 1.2579651863842465
P 4.538200785551012 7.480029583143404 7.5327455019429 0.3096958035347892 0.7095180288440296 -0.985926788190915
Ni 8.202552272695753 0.9491986472132018 2.2231705323630453 0.33509830276829383 -0.24839839017688836 -0.18690120210335553
Ni 0.18820069642631312 3.9835797147923433 11.968787898933162 1.4221512062782733 0.7862412898386976 -2.6394348557827576
Ni 4.764692063435376 5.533606312841406 0.01238647260902182 0.5314953601772265 1.1005180278759499 0.4384725906915867
Ni 6.852663148426279 7.961480526457693 5.571791626826859 -0.05656375532765742 -1.168018484720769 1.479739031995071
Ni 3.243826402093703 3.67105536303124 3.5556692854795666 2.1873611293679684 -0.8820174536997584 4.704465982060537
Ni 6.043811897354812 0.38508041894865996 12.207528062993063 -1.5870414513281763 -1.9504859093393312 -1.4545388785803595
Ni 9.058792354413931 6.444391566545192 12.076717530509148 0.24840044705941736 0.10646372548189408 -0.6520235341719867
Ni 4.904947119688867 6.301338611677913 9.30161301813533 0.8287773634286953 0.023741052370681692 -0.0690750004207907
Ni 5.897065346957782 5.818040870598748 6.175312208803908 -0.4964864482022095 -0.7780358712097698 1.5442852913075726
Ni 3.1989307484295733 5.044214139138149 1.8924884649776836 1.2815262615336382 1.549788480513989 -2.923015193177418
Ni 6.19888750567143 4.929417190073472 3.9745359461377463 0.22282362703157754 -0.4419692909909356 0.7066268233391637
Ni 2.826597851052968 7.841207822020159 1.3601102264991793 -0.2712606394870425 -0.5896516568029845 -0.7651047649703985
Ni 9.228780854681924 2.8122851683751806 7.393245785975243 0.248563712110159 0.4535495396293673 0.5449340021806357
Ni 1.4270298669083354 0.6562401943720754 3.4716473743687786 0.23786869429015808 0.7975068354501879 -0.3381903114300563
Ni 8.156373094585033 8.533581538060911 12.796668554173907 -2.814958926397423 -0.6612591938376419 -1.1206176268393022
Ni 1.1398989844142744 4.499962837829258 0.8720745257542247 -0.3936227813667479 0.9302611191974947 -0.6272026184735651
Ni 1.175837668918757 2.8296358333761886 4.561379020899085 -0.0008047552894824851 0.017681476440163095 -0.18593883819008622
Ni 5.023068304730322 7.075109939205565 4.463017648542919 0.08905607152840792 0.06512578596505558 -0.20703859628317892
Ni 4.211437623022716 1.2823332620303185 4.144418255534257 -0.7053536130536948 0.22935345773029533 -1.1289300033597396
Ni 6.190456873874772 0.22953757079752757 4.095358996309215 0.7823028740162399 0.2438994738652703 -1.4043265193920265
Ni 1.8515255671538564 7.989237896863777 11.071967206528484 -0.7482828083170532 0.8764335318540777 -0.7586721219711773
Ni 8.736489208487813 1.4288397287179138 13.266350778731526 0.7338450356251685 -0.7796250700737605 2.7692866211712888
Ni 6.006109520984872 6.713239151166983 11.559989979689085 0.07548578904314096 -0.9815535988238838 1.1744043336424548
Ni 2.363716459264504 2.599718745637979 7.873186048717865 -1.595066378515182 0.49700761081300204 -0.27284546747565913
Ni 4.7270081550430865 0.14554059145656514 1.8741211378071116 1.0875966918285915 0.15211751876526705 1.2996800496245293
P 4.739547911866592 3.1930856335037414 1.1951247013762372 1.245001941355359 0.47765748842116446 -0.3957673385135764
Ni 3.780958298018998 4.010182836595378 10.213786140359419 -0.2667686651539599 1.099174626474178 1.4476681196024552
P 8.439293278175178 8.219422770277893 10.618651303763194 0.23599590274747742 -0.01806559925245921 -0.3669563278191551
Ni 2.485485069891588 1.4915200448577974 5.598821358913582 1.1227539564560147 0.5705013091267788 1.070686546336814
P 5.879216046560257 8.283266569009648 0.36324849917118096 0.26940635988712314 -0.40758901373885287 0.5638514079104289
P 3.5735536750346237 1.5520303736239522 9.889875356978974 -1.3671195713244262 1.6189771236945083 -0.19107795918886447
P 5.179972242834168 3.106193798666336 4.7042851553440554 0.5362495870327604 1.768514026216793 -0.8753454409962215
Ni 1.6981213108144504 7.485782358180991 5.405004550484281 -0.6860816521979604 0.6944390230237202 -0.4438184283845324
Ni 1.5585311017563148 2.5151538759843173 13.162353902995843 0.980016593354067 -1.2942593928295905 0.045959497449249875
Ni 8.479618107371241 5.561215939426298 2.4006745761351977 0.002876550216846659 0.3611592615214038 -0.07981321277390124
Ni 8.978512055574782 8.610833088565665 4.6173434569669976 -1.5012722780811565 1.098431063439934 0.0375141948953741
Ni 8.127230625855294 5.416168442972955 6.981690597668207 0.48624754408302073 -1.1656152745959152 0.5145523045649848
Ni 5.1394534998727925 6.855756534682445 2.1224711140365464 0.2442272895183342 0.15172259731969354 -0.5097415134399027
Ni 8.067403612262144 4.59173945275476 9.554949348329927 1.0412361022861811 0.3559532918404321 -0.10917958175116035
Ni 3.472025967910578 3.953984780610209 6.249251527517357 0.8757534750679175 -1.3491874123260377 -1.2541766658760916
Ni 2.2421417624027318 6.474909899609764 12.805831441284338 -1.6286431860293626 -1.5747469502315397 1.7558009495254987
Ni 1.3731126061627872 4.84789030274303 3.3464861962476173 -0.19521203596189607 1.502712867182425 -0.10992931543299132
Ni 3.606398973282939 0.41838372304266475 7.95815352028427 0.47562914513722604 1.2242580239397884 0.31241551645879745
Ni 5.690482548978777 3.5452792012543757 12.674642315258623 1.8659179554892638 1.99328423545178 0.9432541890230529
Ni 7.409758928189881 2.0431216012708937 11.743711268136689 -1.1724855193531871 1.501707308736046 -0.8572479600645623
Ni 8.134599348937149 1.8802063364423773 4.415634358289501 0.506888874482456 -0.9779036607761223 0.4438809061913517
Ni 7.156738400413075 6.482647982244593 0.43606958183799766 0.11617298234985798 -0.3506442209226929 -1.0636550934113294
Ni 3.997938567414252 7.720981287526746 12.760934864221326 1.7546462670957652 1.439530063876353 0.2944432482510929
Ni 9.176027076528246 6.635387391388643 8.809131151771435 1.003968476183974 0.21002236150185122 2.526115797941927
Ni 2.5890534885458214 7.68813598927843 8.545037224596436 -0.595709175850974 -1.077574274595583 0.27124469864744255
Ni 3.3324542268300914 8.304938740780464 3.486932396069773 0.1549745285980879 1.438146039044633 0.7641745398466452
Ni 3.316091598633292 6.248834151222495 6.052556484771498 2.0066933097688344 -0.5397015501371029 0.751991367516892
Ni 8.14223585769491 3.53763345850779 0.05530605266473482 -2.574521442938824 1.0697853746787833 2.462740933229707
Ni 6.957404283661208 7.2587185729895145 8.108020235505057 -0.9471614944972591 -1.4062381345924426 -0.1813944133525134
Ni 1.6129931678425016 0.8083636964615402 9.167897472767264 -1.1640985808410726 -1.2146163870849662 0.4631847487262862
Ni 1.2970337722387297 4.995661825899566 6.14253801226954 -0.686850669153501 -0.23764243721196493 0.5080790381358152
Ni 5.741888164764094 1.506257491021506 9.977384022269847 0.09638860063407917 -1.3052130636276167 0.7324296433348805
P 0.3414424345624103 6.5482739408194535 0.7691792648852884 -0.2925617149576639 0.2722631126096279 0.6098767256006078
Ni 3.1002194078969625 5.067336047154394 8.331948158091775 -1.5519885734891012 0.42702603941754197 -1.075796870980186
P 7.711211727350553 0.5206640002558974 6.350234429300765 1.4726163049073606 1.6469476407655057 -0.2961188361813029
Ni 3.6154390483420062 0.8221722033495162 0.07279153390257864 -0.8296829059621001 0.13006953782629213 -0.929597774581883
P 7.4268787434702785 4.96808913526997 11.855221840578771 -0.8529735010589246 -0.5841564380163681 -0.029612166439478033
P 0.8761402510335986 4.588812278297432 8.667022833960893 0.6302943700250112 -0.5049183810196466 -0.7853501454829959
P 8.373353363980288 6.5096758675335495 5.151478923518782 0.7370859111599692 -0.9955599404053048 -0.9552820667218646
Ni 0.07601881299669908 7.691367885366963 6.901033552085023 -1.2284134408690588 -0.580467162090239 -0.4472595928555974
