# total energy = -340863.91615602904 ev
CRYSTAL
PRIMVEC
9.34556661028311 0.00000000000000 0.00000000000000
0.00000000000000 9.34556661028311 0.00000000000000
0.00000000000000 0.00000000000000 13.67818139850054
PRIMCOORD
 96 1
Ni 6.433170138431614 9.026181637313165 2.8269104648250147 -1.2929121347730765 0.4661188916539456 -0.18259460430820165
Ni 0.09162019444471135 2.521246894742159 5.596811105692337 2.2415196176882426 -0.4926277365777516 -1.0088656563752754
Ni 7.754287436902353 5.936873836462297 6.0639754081795205 0.2975090316606102 -0.007062563273736224 -0.3240327889827516
Ni 0.3642686822195546 3.6859381033463605 2.8980919056230467 -0.6421785230571069 -0.5959621724020446 -0.4034369392436923
Ni 7.61071150079173 3.7027975050741193 5.685869680395597 -2.00867537319587 -0.14141195942230486 -1.9022723257485818
Ni 4.756126944837979 2.797969114896786 3.5323353090795777 -0.528686944194154 1.6194013557161204 1.4753794694747946
Ni 0.4169010428905046 7.359343802193317 8.814315778638749 1.3433576930181381 0.7023155975583195 0.3629775456770652
Ni 6.466253443374113 1.2791650510450672 4.603077408100178 0.8016028598964324 0.8784317932310289 -0.7974867808455298
Ni 5.7217482442387455 9.214074249140547 6.461613369672432 0.313700296708492 -1.0798795256899918 -0.5200986883045108
Ni 0.6787479250572859 0.40760126979777006 7.654187075535375 1.049396012389154 0.6208769333658533 0.4624080184612617
Ni 2.9368161944252322 7.2429821553461275 0.2919349330883557 -0.5633284455274233 0.11923285222210432 0.44272056733466336
Ni 4.802508990722052 8.499456171249843 8.582675636086416 -0.03059252807487635 0.5736681368905345 -0.25194059900219196
Ni 8.481951925442697 0.25854789723889926 4.9815934062476535 1.70544486567045 -0.22168231433828275 -0.8194064637367566
Ni 8.455223605630396 3.5785295090796554 7.8616717326965 1.6031794945406197 -0.796765586408789 0.5405497570700111
Ni 2.589020942042441 3.7582634414678284 6.030163149060322 0.9815070618566646 -0.7160805125528958 0.7346994132056638
Ni 8.259761085044985 6.250539080469381 10.626455675977377 0.6845071086219888 -1.249902721091086 -0.6860358865616893
Ni 8.376085349626702 8.112418885688083 3.0868237493102693 2.443066594729231 0.8807622411364185 0.3220358131573809
Ni 1.1308322216531643 8.089288608927438 6.203356119547575 -0.4170033650742173 0.02861252153037008 -1.9125271707073705
Ni 5.381663084109503 2.998263293294421 13.66299840911487 -0.19162971792727643 0.1465161134180896 -0.5023349365631865
Ni 2.4462300335067253 9.068348832765299 9.959274758413688 -1.1834859842287488 1.2850797832128513 -0.2031839984237791
Ni 4.5680474216832385 5.823942012472141 0.23403073842925223 1.6663342728222335 -2.1617539703228252 -0.9871686310178159
Ni 8.582865351083685 1.2675111297842492 9.218409657378633 -2.912313747599513 1.8637638852607388 -0.7845806143068229
Ni 0.9637428405608113 5.61656389476761 13.779126416802862 0.5262248558069067 -0.8562056348429771 -0.31209310012237224
Ni 6.929877645321121 2.0258758038432676 11.433837845636228 -0.5069966037049138 -1.0037185649566973 0.24729024471437408
P 2.5237795432278696 7.842388091052899 7.730511381505683 0.35234526277419964 0.7311240371495795 1.3693919122983707
P 7.733549625131899 2.7027377936075037 3.433976026726947 0.3768067382506737 -0.7691357405066624 0.23474146151508601
P 7.103938818923956 7.878873182153327 5.173922358429895 -1.2591106128425993 -0.468347009653516 -1.877291230323212
P 3.8395044499043083 5.544789945061851 4.814651685103914 1.1372837746410738 1.1244192599735796 1.9055381409840473
P 4.217233551363603 1.1016834001515676 9.527249785469952 -0.5314071713387944 -1.2245130773733879 -0.838832433671852
P 6.841720917772367 6.498233971485194 12.22804743949947 1.092584117740854 -1.5947452477303372 -0.10619633075312035
P 0.34803356432517374 4.782219766137261 11.747984386311261 1.1367780386492488 0.4133259162226301 1.0953912481723456
P 5.670142026754996 4.161748923837159 1.9391424060523506 -0.6308209319524426 0.011497202006322134 -0.09358609818827754
Ni 2.8710701350267924 4.744940301895558 10.282258466646242 0.2590689825168571 -1.4566561820336785 -0.2901353649043584
Ni 5.8290446917090355 4.7172400431809915 4.306369694267717 0.7001985512153167 0.5669053642454044 -0.7052767370691725
Ni 5.155967656323814 4.2672977503966445 6.466483344306764 -0.5773422433080122 -0.028771929926369802 1.3870967857773013
Ni 3.3901041999693016 1.414787910176575 12.089733991810634 -0.7780271294590213 -0.4881414186716239 -0.19578462063591442
Ni 9.323454757910886 6.136719427674271 2.304568069388256 -0.7095871915190683 -2.0563086588031165 0.813978864963282
Ni 3.5652401137044487 2.9678902025986247 8.192027223680084 0.48920431271849935 2.0732506859740942 0.8069350707426233
Ni 3.249472117264579 4.15879572486489 1.3225752068241368 -0.28939745829706937 -0.9374085288755534 0.6661792568470785
Ni 1.6435860659964192 5.933116918782386 5.586688922759224 1.075699169060057 0.550159255135317 0.8734441102084506
Ni 9.238372721697184 7.358811104910345 12.554408635417397 -0.8033329552136617 0.6874908738406611 0.7631005900561761
Ni 1.6515017607100624 4.824816857642318 8.03325072387201 -0.6404746529921228 -0.12125322508624278 0.519007512122861
Ni 4.955916462651746 7.470013999122432 4.15786584101128 0.2291446841535989 1.5010642758354085 0.5918730899343355
Ni 4.382192143324066 2.7662969904758463 10.645126248467243 0.0505903113530419 1.6498781841487393 -0.06288018446398848
Ni 4.618569553468308 8.784318379710944 11.110813951468291 -0.9015125863098925 1.176148055806439 0.7979531789589871
Ni 4.253101835083747 5.871856731240556 2.6778598959360544 -0.0746506947363553 -0.5240383896785491 -0.8525572394571123
Ni 3.049336813495199 9.22587769946325 2.461497885282024 1.1328933588828616 0.5007249117635892 0.03904657237950049
Ni 1.5612890085603621 6.813263668181998 11.066770166289476 -1.1262033484571958 -1.186111594777054 0.3826377431101539
Ni 7.834949020224021 1.2202132183961178 6.982683833526514 0.32732662924267497 -1.5973885988904555 -0.40617696388267466
Ni 1.09174906310245 8.026505094067634 1.577778325859951 0.13770751398752415 0.7291504583629765 -0.6037289608316571
Ni 7.343250736907729 1.5389904872064635 0.9250456539010926 0.28329263095091206 0.18311936646342014 0.4696413029849073
Ni 8.514483841969486 3.9093438673719048 10.239923985556123 0.19915379421846346 -0.6824952203982827 -1.277466746752284
Ni 5.643217450048968 7.799697543884161 13.227471652453065 -1.2069110480209084 2.1309053603730854 -0.3314280530055582
Ni 2.9314051114981967 3.753385055823765 12.667363823323472 -0.3300612545650186 0.8427924467608647 -0.8204364476631676
Ni 3.228949253520588 0.8775860642147961 7.496409616772035 -0.4318216610339725 -1.092132374915416 0.4744245833061635
Ni 1.5888490837794098 2.522639384130981 9.866454593247333 0.02992686946641943 -0.3018074019256479 -0.556225515934055
P 5.168434641858642 7.693999188262788 1.6677537006239054 -0.5811994122705733 -0.3004074362543278 0.34654999624866123
P 3.6602564869672682 6.172643784792623 11.70863207544915 0.32964345030130976 0.1545711225120822 1.4650423492148448
P 4.360052496598422 0.6931550501700982 4.181501712912431 0.086760847736328 -0.5151277174524805 -0.2517251405572762
P 2.9015647180853725 2.1247051681842057 0.46500454209955217 -0.7346685599677283 -0.061686421266203446 0.9162401223280543
P 5.5934616547060685 0.8701516661691018 12.75066366003081 0.2185499393568881 -0.0267070769775411 0.11801183533080965
P 1.5220002475495533 2.3671665420339743 7.195667421938534 0.24901314094275181 0.28510962955499286 1.6075431708259542
P 6.567166869015101 2.6979622091934874 7.33347433993023 -2.913563817956531 1.4461205726096773 -0.24930136160713193
P 9.44649848471115 4.8777501455503165 4.769649979372384 -0.8847122269231023 -0.9107973540459281 -0.691137726564629
Ni 7.660476641700996 9.289464933030699 12.762111978831534 -0.17737269378763 -0.055965716732342324 -0.8499977062600523
Ni 0.8867802324075729 0.9656586816662384 0.011781955520058713 0.22109687414845794 0.29855521353693737 0.3717511781046372
Ni 3.889886398193859 0.14631325249979155 0.2932816292019755 0.33493812304134574 -0.7055418178051011 0.14695165829361145
Ni 5.485838112412901 4.672465434712203 11.400448940673497 -0.24589876368348618 0.9594300274519668 0.14554089398901385
Ni 6.675052087166571 5.371495107901187 8.196677577504769 -0.6007883901460944 -0.14288880107814744 0.6496763740960488
Ni 8.203538157775473 8.461672046424273 10.452524405747058 -0.19326596797911877 1.514522201112527 -0.9017319014095502
Ni 3.3213395226340174 8.650162774499202 5.848872245315251 1.6077897396191212 -0.3534611215461977 -1.449287400373433
Ni 9.029564732338358 3.197024798807714 0.2615842717518421 0.43272488957453215 0.8718687953015307 1.5466190816470717
Ni 6.428488009681277 3.02345894022238 9.392397001007161 -0.44587453958261275 0.518949662301732 0.02381767124488801
Ni 2.435407867652654 4.326744898063094 3.914230664025699 -0.9115905393711848 0.18980629156529244 -2.3414409140659287
Ni 5.240825398944685 6.551410244118759 6.363773700809858 0.012944475975809963 0.9160303203100933 0.5793176218668281
Ni 3.2972092702720035 6.950185561038649 9.656056923049322 1.3823842107929805 -0.2791873505332869 -1.6092352138163966
Ni 9.323819234999236 2.285504983110937 11.845167996414807 0.08406530318203587 0.8046066797197626 0.5142926231456949
Ni 2.032623302760918 8.61764020353878 12.453874639770948 -0.3924429021260338 0.965981969637872 -0.8201399994686714
Ni 7.526367764321094 7.0613323818525275 0.858528585277298 0.45438283416394004 0.5582222346491096 -1.6695658923856536
Ni 2.5535358265433827 2.1686760579453517 2.94162916110472 -0.7490927058128583 -0.5695895959457868 -0.5639439676242353
Ni 6.899242878767022 6.423441403842591 2.946033726533929 -1.2682817378189062 -0.9703361328415095 1.0639690251073224
Ni 4.84955457181825 2.0740054706381454 5.98141387121525 -1.5457186813199895 -0.06400169966294139 0.9225886902539013
Ni 2.1899185302996735 7.66952314994516 3.8194264351194316 -0.1842336825735214 -2.1092062781330965 0.5196957964391372
Ni 7.5289284495059094 3.999491200557029 12.36538988284268 -0.027355766305133533 1.7877471634147923 1.1423092528801229
Ni 8.341815157755475 8.068812473015287 6.865462394573475 -0.9167628276007437 0.3203309146511322 1.628713634255982
Ni 5.166658984248734 1.4519458820554945 1.9160943702757434 -0.5380606720995702 -0.871273584919693 -1.3407215409468718
Ni 6.010825303131786 7.2257395853972834 10.345820467184495 0.3958748106257182 -1.291751281695756 -0.7871563454537992
Ni 0.2823529238913095 1.0180218900257918 2.6094961433979553 -1.4204956729527214 1.1281368180344828 -1.2628474541772123
P 2.1093690937744203 5.969022584768002 2.110940083480871 -0.12399504949743807 0.10724276973976368 -0.6190270246413081
P 8.611378674072263 9.040620537351627 0.9669764065241176 0.06710630673019409 0.24700150982936173 0.6039631883296502
P 4.542291040773203 5.44039996873199 8.64117701243643 -0.10505321828761262 -0.8336287779837256 -0.3793379893129596
P 6.952802319621671 8.913081593128386 8.354920445473233 0.5274271036451239 0.2273521110295504 1.307867213421012
P 1.3171267416316292 0.2223385003463257 4.173295371084746 0.10347121851247341 -0.44470031676885347 1.4800858738115283
P 0.41992620272380593 0.6936410196212309 10.662101535217966 2.8274568017541175 -2.5712489428351395 1.559529876171469
P 7.692550625475758 4.885749950361271 1.2209674056020106 1.1697452376038886 -0.32772129357793234 -0.13238995842935264
P 8.812822357133154 5.659871249316631 8.163726979604697 0.3561625796377608 -0.10078672970177481 0.09652975419763377
