# total energy = -381170.49218150467 ev
CRYSTAL
PRIMVEC
9.16432585066727 0.00000000000000 0.00000000000000
0.00000000000000 9.16432585066727 0.00000000000000
0.00000000000000 0.00000000000000 13.41291722670165
PRIMCOORD
 96 1
Ni 0.6618338642289532 8.65982968357345 1.491341899390266 -1.0814070180781117 -0.9870727288698999 -0.3356058385323317
Ni 4.169181731230406 6.553510201439118 4.885869584087326 -0.8939180617920863 0.31386356175923363 0.2785625724650944
Ni 4.507785241626375 1.3399069138108797 3.7483201487070352 0.2563834652648939 -0.8984753421454654 1.4775044862375974
Ni 3.5252137201874687 7.953516763977311 12.29900087889957 2.507086549224618 -1.3488873645871156 -2.9378157485253595
Ni 6.039409851590868 6.090821719440857 3.717550924766511 2.303997938728122 0.3566516034590374 0.23937073275698129
Ni 2.3648267848638325 1.770813513865511 10.570036258890918 0.6823612659235797 -1.7101307011818936 1.622205657934135
Ni 8.872588671809698 2.9535064182349355 11.990558081209679 -0.12173350715677099 -0.3123584379686169 -0.1342270116380914
Ni 5.203632501136119 7.679054369995258 6.610099913377385 1.6495745368653913 -1.1990015633658446 0.07809288764868487
Ni 7.470391835400534 4.8204720386034925 12.656374761439986 -0.05892299958845336 -0.3555653123733941 -1.2230727453824355
Ni 7.017784111804232 4.6302297989068935 5.618630747999878 -0.17270177067452191 -1.1271883380782846 -1.8730913333092516
Ni 0.2917197359336245 4.590768211926135 0.4018428571492024 0.8032522225743973 -0.5552898914936629 -0.4517019448976672
Ni 1.3724219418201062 6.862760376233748 13.421903888754398 1.126822984319066 -0.9739485327831163 1.480870831606669
Ni 2.6491133361248855 9.217570552976364 0.3534304731400872 -0.6258543319757867 1.8974193685316547 1.2901564264048102
Ni 4.509645599767828 0.9166341971642772 11.71288359102773 -0.16886002833092853 1.1714907595400856 -0.04771684645998879
Ni 2.5078177606327055 6.525375721171834 9.787486229231092 -0.218615759597817 -0.802759599208695 2.350830325700629
Ni 3.5794482003900066 3.3148832782935123 3.315190283208481 -1.1574661631262195 0.5475979221660441 -1.8164707566017297
Ni 8.259953490745213 9.231683614739104 4.973764633026585 -0.5378256732706286 -0.99870954177788 1.8045020142756278
Ni 8.570789093906697 4.696826954640559 10.14157378453247 -1.7681746405995031 0.7422885384068313 0.6427310531264673
Ni 6.980705249536665 6.67211490620107 10.181195747215078 1.7713047015880525 -0.08816004207669978 -1.4305481720927171
Ni 8.567645730150451 7.15961121819397 11.937965848194079 -0.7573302632313021 -0.8586553819350503 -1.162851595807849
Ni 6.929815748258413 0.9618784737374315 9.170103010959284 1.6766526240291058 1.4742648962543772 0.036705840061465815
Ni 2.078863161977726 3.241229591678475 12.632647405459524 -0.5907410332124213 -1.5617219987267814 -0.46631738081799695
Ni 1.1459806151346557 0.1757085353787207 9.119214426113615 -0.2503555139032591 0.017787405890408076 2.6366472657352915
Ni 1.5030868993611297 0.7396124138955559 5.19016827364143 -1.2866754098347453 -2.810600135208095 -0.09982873666387969
P 2.9339130896318566 2.5313792423158286 0.962017771489895 1.8337169452766868 -2.2518945331646636 2.113566869094637
Ni 6.792250053374958 0.34360081726559555 1.8869832572571001 0.10939889685081804 -1.2844264658995685 -2.4896971501035767
P 3.879570706667954 6.582130390974861 0.3355591213585785 0.35738385363937164 -1.087055988833773 1.4885478885359524
Ni 1.1316109522489548 2.742314529713903 3.935255899647792 -0.7205519180606881 1.1695871147594696 -0.44697908550070115
P 6.089282112703104 2.4898281890481195 5.579920635736356 -0.6646142263528038 1.0543353586723003 -0.25467213900074204
P 2.2220557529146383 2.4038026625761324 8.590825975879463 0.1565855818389497 0.7964819937300993 -1.4958562492719074
P 5.029895212241272 7.342998542177238 10.333982470852908 -1.4577782114532636 0.9426147556668412 0.19724809255531836
Ni 4.242542159419204 3.4264222878482746 11.557628914446582 0.7918504084953587 -2.3989096977063586 1.0522625353036716
Ni 7.846156686996451 7.8881384635776985 3.0570990408712087 -0.9681542946988423 -1.0146647795555557 -0.831120409739575
Ni 1.420470502094169 3.7737319077732088 10.40370282882602 1.1145518802611964 1.3503840037373003 -0.01875465489968383
Ni 7.062286077985969 7.067940467016886 5.4662335082093945 1.5747250958546686 0.31097595579879345 1.7035895576292661
Ni 7.625928773216936 5.61760342707546 1.6721082261890239 0.7204485597136044 -0.6023847880989368 0.12394722697863816
Ni 7.573426350594371 7.689318414913616 7.851814741757696 0.016529365113590887 0.23571796649574242 -0.48763593979011505
Ni 8.315599277124024 2.4238175501669303 5.416940432488981 -0.6968116370209547 0.015257697490018885 -0.8485661160198483
Ni 7.665518660759173 1.0755710998598849 12.94190949387772 0.5358906610314448 -0.904246697411604 0.9125878702874477
Ni 6.480113115947039 0.7235638465196377 6.726980808452604 0.07175229014263772 -0.2960846405092578 -0.5279207554520908
Ni 4.371804975109774 2.6273114049991952 7.423580459112166 0.29565192384721345 -1.228136533058588 -1.613819233642653
Ni 1.3744839151295978 8.168649312600927 11.635383636866054 0.24473328262047528 2.5260147535876882 -2.4374186524148347
Ni 5.1905641725168525 2.2382216236610524 1.811186034832773 -1.2851756853607674 -1.1766550773498445 -3.202883628938129
Ni 4.281188121401986 8.700739234033763 2.1826299068045785 0.049862946268714126 0.07691583662144819 1.1122677122127103
Ni 3.8994572936972727 3.853388227800322 9.271008653265145 -1.0534611835974632 1.9884017105484981 0.014206116297052953
Ni 4.258763016120538 4.071462525012146 5.464382314393763 1.9649738185428611 0.4376984315297236 -1.3797033215267076
Ni 5.502325372586153 8.735517850520521 8.58108796326317 -2.0238952754694175 -1.637854934435618 0.35796877960856416
Ni 0.9807753135781939 2.4317721849786573 6.703159059916194 1.599461422259084 0.37668872461557057 1.3878529472170356
Ni 3.8785809594793985 6.845623086950419 8.113447079591802 -0.17368521763371378 -0.6288039015224138 0.04190589620516654
Ni 9.048186318845996 0.4178950902554485 7.273878447545335 -0.6682353680451589 -0.14136696511698235 -0.8922249903603796
Ni 7.411648506894575 3.0816603505012896 0.9883377152448269 0.6750351645758116 -0.021802954807704385 0.8548676327578438
Ni 2.891134016704272 5.184845633205197 12.00402414156953 1.5586215054245867 3.0666850953959637 -0.10877334745167719
Ni 8.639099978568696 0.7482442923853785 10.751137083582105 0.4472570217524362 -1.2255597734703472 1.5787817824225454
Ni 0.7272167467914749 7.623811813952524 3.991013490801607 2.214569057241328 0.5965653532036823 0.576350054598072
Ni 0.8237665850351064 2.065006701337943 1.0204055241540393 -1.3603400865087476 0.03649218138876296 1.0559186439990202
Ni 5.189904341057816 0.18172766457727202 0.2905027134647335 0.6722185210626229 -0.09342309024785202 -1.1217355424938293
P 6.076699493352295 2.4969397058844103 12.782496962672054 -1.53508665552744 0.48988488372529176 -0.2760786297009762
Ni 2.39228310502044 8.8333836859519 7.529810574719424 1.197852537363066 -0.7476965967962801 -1.5336969742687652
P 6.475741732530917 4.4095253401847385 9.089571497816365 -0.1915800956362636 0.6157889773199846 0.4550955439602485
Ni 2.956869725810862 4.594782186635278 1.0398604714372373 -0.05544635389376257 2.0585871704246483 1.0454311142041348
P 1.1550899549996982 1.1655281221086353 12.52751700895066 -0.9620250418726529 -0.7889777149332542 -1.8448187116168033
P 8.906560827624299 7.770431862746102 9.548038891341951 -0.5948110895167369 0.3168226443875576 1.9418331187603393
P 0.8266359354493367 5.45681533056422 11.832473460815327 -1.3186761311110582 -0.5442287485834949 -0.9801315216653763
Ni 2.170231490402751 6.58726241343404 6.215518868007921 0.21240834523552451 0.6819689155811673 -1.28013478050275
Ni 5.2031926134967605 5.241581974356583 10.685198842874895 -0.004881753572333529 0.38890943505147857 0.2950996508881692
Ni 6.195799071708526 3.6182316272600867 3.1401516600471995 0.8165386552706584 2.4654513901823343 1.7276093175826313
Ni 2.836120568807038 4.60662249559467 7.172074701309119 -0.4520724408632085 -0.20071573938894466 0.539959946004812
Ni 5.7950522679273915 6.893295909865863 1.5436252946257334 -1.0643783447305992 1.235784793632465 -0.8273270041354139
Ni 6.528225826501841 8.805707421975614 11.427912464627925 -0.33554181806361566 0.2953750160367429 -0.7869138904256899
Ni 4.60180206021337 1.7758630573923102 9.593575509908762 0.9401704078914066 -1.1642014249675239 -0.16087778145640036
Ni 6.256191978862079 6.753054231842979 12.521990920481223 -1.514633786989727 0.4693299423920756 0.9795669074111581
Ni 6.676202195516774 2.917655575627243 10.59688864997599 0.35834133245663446 -0.5282758247986644 0.6614332575216608
Ni 5.730874494210195 8.665135828223208 4.456816927146073 0.23895729936864654 -0.4287800459941712 -0.8978834741977375
Ni 6.902955109280103 1.5421819133090893 3.580283070472205 -0.9459232512147837 1.0629434120562855 2.6657295278132285
Ni 0.6753045067517159 4.279245284328154 8.268486394516179 0.7264829388331424 0.6141257306849489 -1.2793014859681775
Ni 8.924083018592066 0.9041193938245367 3.0522034580181847 1.7599213994517755 1.0801705745678494 -0.7027033199150414
Ni 0.44829957402833776 4.582217895936109 5.83424350729646 -0.20733350181577842 0.4021303046171268 0.33195410071235737
Ni 3.000821832443402 2.251363266886878 5.30873907039785 0.3748485860830383 0.8901778780233637 1.0535953951824824
Ni 8.417763181364965 5.858286116085131 4.115404550886285 0.6287414237155946 -1.962074642618195 -0.845820177843595
Ni 5.450501110074265 4.891633028595501 7.249735031172643 -1.2235483994672733 0.9400819619426583 1.232280894244265
Ni 7.76131335855524 5.29856575230511 7.629172944557202 1.294296416715113 1.247440889814155 0.7941006379821163
Ni 0.928373698539649 5.904620947430861 2.2148076876236304 -0.3980260526407661 0.14490583150817624 0.8947811811233298
Ni 1.0026322306588042 6.81617810809088 8.141694281066673 -1.011217958657536 -0.4781840503485959 0.08247610431804506
Ni 7.292668064774004 2.9212204983712082 7.632620563930672 -0.38386904441409375 -0.19798162828723323 -0.13100619070794858
Ni 5.373245843411983 4.611717860750569 0.4386009680130716 -0.15760091047734148 -0.0481333651721171 -0.06311621173419453
Ni 3.9963242176142755 0.17456207821864342 6.049225760976629 -0.6426935150203125 1.6229826453094758 -1.5058745527398583
Ni 9.031351452314727 2.2327505211465346 9.108725855212668 0.4343909644230454 0.639983058067685 0.02809572979495161
Ni 2.273586757000287 5.001870703883827 4.390436965934339 -0.3817052039935555 0.18292293418189787 -0.40471400618390296
P 2.9211838410679283 8.485395905916286 4.132801190590318 0.8627632334558367 0.1483775921068606 0.809931691477102
Ni 3.0193887565546453 6.813795383377689 2.7459463520363543 -0.1418189650527364 -0.8909733773414655 -1.14457876564059
P 9.095776662829062 3.9309092599113833 2.470672915219234 -0.3482577229683873 0.13123964687499332 0.6477467611735038
Ni 2.2527837373889725 0.8626169114836729 2.7094897474919613 0.066732211220227 0.7570957786229928 0.13473994671876796
P 7.884426911620614 7.986095942267277 0.3018948868915287 -0.930969715228745 0.5888962666941988 1.9384834855618163
P 4.581484749870513 5.111494369342218 2.7946886517749876 -1.8153073324212476 -0.5808296876359803 -1.0947132482687147
P 9.321952224065734 7.454803317180779 6.21110624512561 -1.2408714641267533 0.6850105306209686 -0.7586898625829901
Ni 3.536430854991103 8.826391305351267 9.900986404511325 -1.0735376426323642 -0.5157206138414732 -0.11460409520084135
