# total energy = -381169.5501806752 ev
CRYSTAL
PRIMVEC
9.25217890288873 0.00000000000000 0.00000000000000

0.00000000000000 9.25217890288873 0.00000000000000

0.00000000000000 0.00000000000000 13.54149904894872

PRIMCOORD
 96 1
Ni 7.913268216591309 1.008672528604766 2.265046237454556 -0.06408114675062511 1.0855264395631241 1.2748390793214495
Ni 3.3118729008369803 7.454943037271053 6.5112938957859114 -2.8318909262660714 0.13267997886594568 -1.1802757048215675
Ni 7.7012082793722545 4.7178247332920495 2.332766634683227 -0.845994241527614 1.6594869108830967 -0.5816760947966756
Ni 2.3312252217015215 7.494366570974822 1.88489549214586 -0.689721820053709 -0.9567316546841974 -0.9714334796707462
Ni 7.806849656473789 2.9589762985067383 0.528126391552442 -0.7335596431742657 0.5900859161269257 1.8153965497009446
Ni 2.835302424998576 5.612584436982288 8.574950733787327 1.6859985840203802 -0.9010711278970999 -0.08139752654188563
Ni 7.153618079358743 5.538733546106088 0.26086332975147364 -2.241369979484256 -1.3011190960639012 -2.7001108335065758
Ni 0.7964904626260574 9.10490258020946 3.266520570982689 0.9630640246601286 0.18619389162368577 0.1481942724514609
Ni 9.111027522549731 2.403410720400608 7.360617074795126 0.9351032777811445 0.2465104291255561 0.5047440602253114
Ni 1.2755516249871222 1.658776869298344 10.074699304093153 -0.4108059780142537 -1.949088514771172 -1.1456935959713237
Ni 4.644279164314988 7.9937899283547225 2.2958930014461933 -0.9866225287063588 0.9778275561225482 -0.11746496168840417
Ni 4.809449059569549 5.98911110387001 0.8484164654905642 -0.5771622660867222 -1.0932469481358333 1.2168583890416074
Ni 8.897320697511088 3.280545023549733 10.136976644556292 0.27100172939870104 1.8657140670085737 -0.4738555981765711
Ni 7.790084708557518 8.369668942729122 4.08018862869779 -0.5791594990224089 0.7636235524391817 0.7077696786943554
Ni 1.6540675103086189 5.7654211779474505 -0.42559004564334774 -0.4930298571121768 -0.8924113953395728 2.6799294734626944
Ni 2.3148858740082905 0.4973851023986886 7.10594252741738 0.5411837911095841 -0.06990880917599573 0.8473289011786376
Ni 6.312974369245916 3.4136468672161078 9.94308891164317 -0.41918211789309096 -1.037621388351729 0.630835587240462
Ni 2.01451389050844 8.471692717934816 9.631458877026034 1.054464428050997 0.6817393160688646 0.35004258278295197
Ni 2.4186953197150003 0.9259302939385358 12.501836311710361 -0.21595595337746679 -1.0219836818144723 0.5930516836234689
Ni 8.971097570957193 6.421613452266254 12.226253690766839 -1.8383043075370535 1.245431829803926 -1.2841004500187174
Ni 8.865326663352995 8.09184451887163 10.041522841489307 -0.2847435044648257 -0.4000744505293626 1.347994420459201
Ni 3.135008251627581 6.594814238686004 3.8873177102305836 1.218708811986785 0.5572930379666209 0.9047557758375386
Ni 6.414387500653335 3.4354079916637175 3.840572002254774 -0.14565299408684593 -1.3140319474708273 0.06155606633592624
Ni 5.439041319948352 3.484416782564648 13.31144266294906 -0.44400869001846754 1.095279662295146 1.0459165384809859
P 1.850602291565475 7.997277999747897 4.924163123164845 0.055780597304729736 0.9265006237137979 -0.32211114648000655
Ni 1.9632938288834538 5.052540804355475 2.527046659975847 1.3234154455682563 -1.7604533606958457 -1.065423755275978
P 1.8991577257070804 2.7819543622583893 11.692867435588347 0.6175648382734849 2.5183307546798694 0.5177548706626826
Ni 1.8131864806530034 5.3893663721765765 6.697164615801987 -1.4737812717497392 -0.5161247912584273 -2.467130063436338
P 4.469690551080976 4.134576636330796 7.345789533111563 0.062265947918757274 -2.3925027657387505 2.647904840926982
P 3.7040450020108038 7.117266269003871 12.893456983029987 0.15473053090808192 0.36179560955382206 -0.452465305426253
P 5.355716198020133 4.062529920313136 1.928160530471503 0.334104828506773 -0.2594973283035273 -0.8839018152066649
Ni 6.749381137079612 -0.22189315280702973 11.43551160680545 0.7467445172956558 0.1724793702510707 0.2954439216014654
Ni 0.9619860345730319 7.059634447497 8.028104408946259 0.42179667269780263 -0.013721463351150563 1.6141696750035361
Ni 3.5835723823542027 1.6597483480683266 10.505602875999365 1.0495307381948054 -0.7543950918623782 -0.22916319609636018
Ni 3.128540978673126 2.9795161353577986 0.7427334535846025 0.024023102387474755 -0.2865795292323 0.22460308752950348
Ni 4.2585095708442875 1.651800726511993 8.002633160815192 -0.1761727599422579 1.1572550755566777 0.424372660955095
Ni 7.8802379384119 7.265301129191692 7.955915209375668 -0.860184674095383 2.101307849221626 -0.4352029188013795
Ni 7.246954058707164 0.6531279527129142 13.6337164040137 -0.2590121611369926 -0.4569058576961099 -0.26706588467940456
Ni 5.348083150541697 5.4992174906147016 3.6069951981074206 -0.28198085411802404 0.5719246718368666 -0.16663165322104206
Ni 0.6523063592388719 6.45570773100326 3.580818933954709 1.2456452313663129 2.3187982369657485 -1.1603069750091242
Ni 7.973647935190417 6.045873220573278 4.444469111776477 -4.0460954226245995 -1.3557192999072845 -0.12182066755393857
Ni 8.662435635286824 3.1541972703794277 3.457957401741827 1.5353018568620398 -1.5313189609548918 0.1925450306526942
Ni 7.746062842009166 1.585240552500044 5.2560110188121305 -0.47072322319517645 0.8659593717956312 -0.20871315577212443
Ni 0.255720043577823 7.026918743395492 5.907126622644366 -1.0975661443364777 0.540219884534418 0.35763530752854533
Ni 5.412506071259686 7.691141908879483 7.1940834083910845 1.3811310551121696 1.1406112963524098 -0.48048981566363697
Ni 6.1218428603859145 8.157423961934835 9.323253998986496 -0.08156156292357566 0.18199373749940914 1.07095445528622
Ni 9.005062319191536 1.8691436578039997 12.413600133295411 -0.44144041507065906 -0.16175272786218595 -1.1662655065854044
Ni 6.628603195523874 7.12742516128426 2.1677910351826624 2.1670591845858223 -0.7300616573233363 0.7201731945650306
Ni 2.904508722136382 4.428749660060282 4.87198731147377 -0.6576210828644222 -0.9680326815193135 -0.6222164781128833
Ni 4.321387377709065 0.21417406006611103 5.987577092631314 1.6448357366288253 0.8425906151627036 -0.15783642352691526
Ni 2.924669219658211 1.7935533573205935 5.036380948930222 0.8375101153160027 1.1041864778664725 1.3195965860427983
Ni 5.286297100770806 2.73071579627588 5.846271342056905 -0.36296623282315554 -0.1501172005057866 0.40126847083746375
Ni 5.500299995529825 5.242765599696825 11.118409833668622 0.21264668649857568 0.4682464795199097 1.3411588855946064
Ni 0.7935390176010627 2.0484601343852593 0.9462240228345337 0.5465995628085167 -0.1980021971125235 0.631133578096855
Ni 3.5149674768359094 6.484269206840748 10.458762795800187 0.5817344588384368 0.7683320136584445 1.4861932722608469
Ni 8.170377012201268 5.110413182510151 7.826173757035557 2.9115005076695986 -1.0332798235535816 0.6021541601453694
P 5.7233052602240155 1.04168430242665 9.586162060244314 -0.17110408717009887 0.7675848510797748 1.0121319858313729
Ni 2.44625756024622 3.0583076896927666 7.1329440859156374 0.4233509045588 -0.30507270294048106 0.3486588150615479
P 0.4047199060104935 4.848844836737033 4.964299999851144 0.39372356861067026 -0.23446506792524782 0.49945658657412684
Ni 6.012352576919499 7.752964967365422 13.534335051062358 -0.2573705117685116 0.6581306755109891 -1.482964480910904
P 3.739212533484173 7.746580964019822 8.540961929888203 0.20489583890856322 -0.18871434405269438 1.8159483084393564
P 0.4639153457280984 4.143930589058914 1.375802682742067 -0.7462626925632309 -0.008288979481669595 -0.6211355863438786
P 0.3360964961346767 9.319627144911895 11.770906787789986 0.5518057895998045 -2.468520516025962 -1.9007247787558041
Ni 5.775441287546414 0.987984656893518 4.101165168386405 -0.6480331820656711 -0.5425978978482914 -0.6776823723906716
Ni 4.731332914284189 0.6041376661695073 13.551926218542054 -0.2216211220830441 -0.29133992673542086 -0.458865552525642
Ni 5.793020427193718 1.919281214513862 11.722266233603774 -0.14957212663559402 -1.1292436779454165 -0.39068169646055295
Ni 9.294183653317113 4.131023799686289 12.404284114500218 1.4970492411387442 1.1044880682672915 0.4847696739859135
Ni 3.279221961986804 9.261153375137704 3.8210721102965337 0.20294257183693434 -1.1083349528172073 -1.2429910815729173
Ni 5.579637428411735 1.768248648407238 1.731253811628425 0.20175163685262676 0.7195196201414319 0.6978809588257335
Ni 1.7529825534503687 7.5265178921718645 11.843083034310311 0.5364735301181083 2.327410661225108 -0.515116661708887
Ni 0.4091951848775465 0.3719163062107485 5.862385861806226 1.0497703650094372 -0.10763820540596947 -1.373647602250931
Ni 4.491729240891439 5.604572050174621 6.061432609596894 -0.31528718157963764 1.0496865470463792 -2.0203060154562626
Ni 4.325643379939465 8.697140557822108 11.350836591995893 -0.487885851017392 -0.14001970706046854 0.3442177485710588
Ni 1.733377186654244 2.0521795102474787 3.131647860301318 0.2433428300308519 0.5635647299079456 -1.1739662176637717
Ni 3.663011589202492 3.9042251416997846 10.112425988212019 -0.04014623320158247 0.6363002098994589 0.17448765893035112
Ni 8.920044048549919 6.412028195069092 0.9660745723678443 2.8864193963312545 0.8784644462411775 2.143793529189663
Ni 8.126290380401583 1.358876746915342 9.360425552379658 -1.9691521182902667 -1.1083012713657945 0.15250369846009218
Ni 6.964716345580322 3.2593760385428743 7.845985447418068 -1.7733541279179137 -1.479483464340839 -0.1955894739059728
Ni 0.9198247811736643 2.8278914298104225 5.186800095584943 -0.7182009013300084 -0.25855321922270313 1.0248692308923835
Ni 3.542039351892757 4.914498297230331 12.636127985565498 1.3942804480099342 -1.466338956539081 -1.5531139453427962
Ni 1.0500945329210707 5.609040852516541 10.33527859195664 0.17085828970787992 -0.4716313368317425 -0.409484688099669
Ni 7.71767715756815 5.330661297933344 10.084056032474898 0.6153686019531144 0.30244863505407266 -0.20368150688548792
Ni 0.3260254995525239 0.05216840994806433 8.170872928982897 -0.7773380738117966 0.2975367995747521 -0.2947091003179699
Ni 5.438032832463323 7.617485313757281 4.761110126410968 0.228363068792568 0.2808529111611679 -0.42025323947008264
Ni 6.637522295850189 5.910976454227127 6.465822212825594 0.3927735459925752 0.4180454331854865 -1.2350808255869052
Ni 6.359281523948419 0.7607733517342409 7.4827347318355635 0.7676748396904198 0.07024176703538225 -0.576874045422342
Ni 5.553620301733726 5.89439654988609 8.775541670213329 -0.3654362916302029 -1.5180469264363339 -0.21404793772147654
Ni 0.5373924485823234 8.878770079093801 0.346335882370293 0.050884445554693014 -0.23406860381777753 0.25606439136257836
P 1.1270171471461672 4.226228719144581 8.43470158202751 -1.6365465000368395 -0.22238576816321054 0.9891293542886127
Ni 4.054110437639953 3.1539104528378137 3.339659044094234 -0.2931373849554758 -0.8463200002981489 -0.19185391812294056
P 8.534607533514642 8.26664593221716 2.040406112773166 -0.6515198550626908 -0.9237104625631705 -0.8643519180991953
Ni 2.7011550851321244 0.34690211571051144 1.3026965922561877 0.4880858828433401 1.5770977098519032 0.5416507034436736
P 7.292123195421973 3.5308719721273385 12.07659322277058 -1.0812769202581507 0.3573290891420362 -1.5721367663022021
P 7.096624658186432 6.926569612545673 11.202990476254811 -1.162918187379726 1.0728727553548556 0.8491836949991891
P 7.724181439237652 8.869147813181593 6.228155020447676 -0.558395012781548 -1.1690291853734707 0.6253316267030973
Ni 7.640911830382003 3.9646696255502247 5.827015707617974 1.211648562705894 -0.4816390987767319 -1.6043413760592047
