# total energy = -340890.74455300026 ev
CRYSTAL
PRIMVEC
9.06027964999510 0.00000000000000 0.00000000000000

0.00000000000000 9.06027964999510 0.00000000000000

0.00000000000000 0.00000000000000 13.26063509487231

PRIMCOORD
 96 1
Ni 6.2363625433549155 1.9507416039977348 11.457161978703754 1.4700842825141263 0.5905620844323959 0.015457472205650798
Ni 4.529886075389817 0.3941910175242414 5.950550589525866 -0.07784709018646593 -0.8375990754853834 0.5080890654381444
Ni 2.8357497081397214 1.8825448800022726 4.949412352553824 -0.38783908480543533 -0.9645424089778679 -0.29634329348728317
Ni 3.3410143164903174 4.415191996864701 4.752267012254308 0.2603383361475839 -0.6220966647055673 0.29588512290394203
Ni 5.104624907149102 4.52579082904387 2.9106428847331705 0.8720870819599238 0.859328753852991 -0.5700845333043343
Ni 7.2159780863119165 6.294257729528823 2.722713660767942 -0.3855937404146843 -0.7634286628195561 -0.6166140443244412
Ni 4.76486442490786 4.492394638709437 11.471615842632271 0.7920954346266293 0.4821150099718858 0.7126056666304178
Ni 5.740103852853595 7.7390280233729 12.500535614716219 -1.37580475780325 0.20775953360960348 -1.1364060000218106
Ni 1.8659555081893735 6.429745149567104 0.6040207491607639 -0.8272964080077945 0.7865909598686324 -1.1882463817318698
Ni 2.648999226540882 1.5439441135404144 0.4799583416053152 0.9837899443535703 -0.5171856284227738 -0.7021600458170617
Ni 0.4177223755102935 0.4156448534148824 4.981556412257704 -0.8861098786015771 0.2842213134127686 -1.1663660367190105
Ni 8.654895439581919 2.0443886531829474 1.1635673042101253 0.761440942965566 0.8311574336250976 0.22068704030454897
Ni 6.968007295952969 0.7645598420896322 4.922944557973255 -0.9017925794441565 -0.4944449922921485 -0.615267814709192
Ni 0.8801517943158185 8.004838504119395 2.8542852279948985 0.07966486012149505 0.21720910905827753 -0.6550646349911557
Ni 7.7334197103460385 4.158478036762745 3.732417486004275 0.24025493513414756 -0.5471590348564125 -0.5873443488260465
Ni 7.763671983684798 3.803867756377679 12.708475372043527 -0.3590059626238269 0.29350968069322997 -0.16516483886752845
Ni 7.802332196424088 8.722467004290056 7.153131457376814 -0.08804639931697095 0.5189193232844289 0.19559384478134703
Ni 6.914705671498963 0.5938832023986378 0.4867073438245552 -0.33615862571200816 0.09323539971707814 -0.8963523822651919
Ni 1.9785747827029372 6.52701631056289 9.08658514201016 0.24693234715432313 -1.3787908370147675 0.7679833720697741
Ni -0.1767977645390526 5.024378011383484 1.4552349166971077 0.701530896873495 -1.0249054834469575 -0.9880070677587113
Ni 6.360144082245045 1.7716108174806255 7.197567598314205 0.4131263986173143 0.5408834862603459 -1.2800674175999247
Ni 3.3881730714254013 4.420582863182928 0.6012800146040179 0.6499280850955388 -0.05098960367398961 -1.2053028229935243
Ni 5.885385435059949 5.8665309933654415 4.873363084292802 0.6293944839185612 -1.0908725343663856 0.6614947068872156
Ni 5.441277713512777 2.943032478012216 9.043156504156109 -0.19231414558881074 0.3369376699698778 1.544274235563979
P 0.29488944788658183 5.633400940870792 12.507086196813827 0.04835576559556833 -0.9266330355266043 0.3472729904576148
P 3.810373037077658 6.314072560853132 12.631841715753051 0.37645089757315164 -1.1294028292311 -0.35767670228944204
P 2.4182973289593157 8.61874492427145 1.375459155466864 0.09831538534314681 -0.5475716969137989 0.9144609189404445
P 6.18176529892863 7.80563013817171 5.949741506564156 0.9556145103606187 0.2182131248427597 -2.2702380686688577
P 4.676200529462187 1.0683338000798344 12.735407958963801 1.2576839076984017 -2.217174613184975 0.7348007146702183
P 3.998102028865352 5.969836300525833 8.10279190416352 0.4553215439281255 1.0220898683750332 -0.46485699422238647
P 4.658279296558901 1.1604587223046063 3.856418283658944 0.8576439099514003 0.09824647977842434 -0.5726859754829233
P 0.3183745984470491 5.964744423431977 3.313342410760685 -1.1599953573059762 -0.8675506275421511 0.4790322572815041
Ni 1.831843555772353 1.2418834544086605 2.77697567485175 -0.8554301901295331 -0.6136745020801432 -0.3972686056494513
Ni 1.707962353807433 6.715071472413536 4.677357527157711 0.26807658533210604 -0.827829140582813 0.2989933295156206
Ni 6.284644772951278 5.549394029101704 9.201594518262798 -0.5019955509458968 0.3291695959886847 0.4235427088546318
Ni 8.806193047393826 2.2983935897065 10.243323713541214 -0.5200395529318012 0.7054608280555206 -0.6883876746233176
Ni 2.2987197597694515 5.43560597852923 6.798011083254409 -0.9486018264882115 -0.8941941982716084 1.2917211997887688
Ni 0.9478683234963797 8.692015404801715 8.803496708206758 -1.4591614649540354 1.900918897044481 1.2862419218417525
Ni 1.5225799744170851 1.1538265976912572 11.416624476046588 0.29604247441741277 -1.951106059421833 -0.5760644050368531
Ni 3.94943926752888 6.927353821717863 1.5637208916907124 0.5050119691747174 0.24833719792164977 0.8474757111691469
Ni 5.423483324522863 7.6602941942881975 7.8343032047890135 0.23135120488661445 0.1870032748988586 2.214703011716031
Ni 5.1414187023059466 2.8824192079803783 5.208260008484254 1.0966073799676341 -0.08671533921037324 -0.840309789548327
Ni 0.6956237992848133 7.436559651662458 6.921614134637868 -0.22093849419372275 -1.0983796413767082 -0.43067314925182604
Ni 5.4353794715410695 4.44597882669552 7.187264248436745 0.04916746286358629 0.8295710629745842 -0.4082032502840841
Ni 8.28408537940359 7.054514844871352 9.124191644240527 -0.32677307073205014 0.1878172861597217 -0.26229983074932894
Ni 4.647062670505178 0.059895695893344036 10.65526472468569 -0.510031790986812 0.5356708317111548 -0.9418454816009842
Ni 8.15687905485247 7.381953346956645 4.84519739332898 -0.013580309787595966 -0.16525302770596056 -0.18140032688978439
Ni 7.392581054841151 6.124132860860988 6.962535793146956 -0.9311149825573578 0.38669494389866305 0.5000661951336679
Ni 2.2932564112150122 5.012255357377117 2.5790738012117767 -0.16017972694811125 1.3280292901911839 0.7473615820543645
Ni 2.304418675591578 5.001283358870606 11.34587909542034 0.2399286621429803 2.324501457998113 2.024549107003333
Ni 1.1397378630276536 3.2886730816661127 3.688074665946006 -1.203550873299424 -0.03574758991325456 0.8126305784655037
Ni 3.745809485172296 2.7869329220513 2.569831410066862 -0.46187708565845614 -0.8852922677962882 0.18321321172880706
Ni 1.2376976052674487 3.4917411266920584 8.204712800612274 0.006639102583072437 -0.48394897785683105 0.5418980435677894
Ni 3.710429093621574 2.9260263333411007 7.108495990289841 -0.8749955138559704 -0.8982097471889048 0.8916076684913548
Ni 3.7558029734899514 6.840918755035691 5.840792551286751 1.7834297669863608 1.9194601503817783 1.4425043160133286
Ni 0.8945648869864683 7.2423163188952575 11.142937894307764 -0.36424047154988887 0.18769130210481869 0.7467635434590494
P 0.3491677704735373 5.494225987065252 8.018095505122472 -0.8783605736734614 0.034941806182507563 0.13235576275730754
P 8.488838636421452 1.5645924905811555 8.08459795684649 0.06722020660023907 0.270687797702708 0.30883474108607456
P 2.086845123043813 3.1899703965051502 10.450428113096187 -2.3587354394803186 -1.7928708577946026 -0.7301439326244974
P 3.9040382068219235 6.217888633400518 3.8627831300262634 0.18416683389132799 0.5354114074021811 -2.388554836834596
P 6.7505696475981 4.054257641370184 10.742015995123335 0.6027611976017491 -0.35711851579312687 -0.9674053323479597
P 6.313710149672075 7.767939375341748 10.165297492287525 1.050225964489617 -0.595467235043497 -0.06862325759535277
P 2.073852682202908 8.591491603455939 5.778613664952746 2.796119167983101 0.29181172416551676 0.5174329685468896
P 6.8842359514515685 4.044599383395007 1.591899267045872 -0.27554075491963514 -0.6373898434192119 0.12532610960403578
Ni 5.216075405603756 2.800804210006269 0.4179298559114488 0.6261353535513151 1.3393151475176481 0.9058770339261754
Ni 1.4828506486936759 1.2947773662839772 7.062455273848318 0.004437466946063325 0.21197100058778975 -0.15479480848711405
Ni 6.5461878620408225 0.8199208680799964 9.38928545687648 0.6377335999118758 -0.8074014688560804 -1.0172515664461257
Ni 2.7555662343307885 1.4129415318677179 9.255432511264768 0.18265656789438864 0.23412362542542905 -0.2793238761111512
Ni 6.393032896925996 2.033144846290644 2.6292124820831044 0.35900776239603976 0.3420909320360431 0.1471653169663143
Ni 4.378978059597547 6.6318256241246685 10.372667358032622 -0.764847911764586 0.7831719068847545 0.010144544633169626
Ni 7.9246187891923565 7.22864435708987 0.07411489858212818 0.19758850661387262 -0.11988796930759998 1.663442295986419
Ni 7.788361245394329 3.893945055429477 8.258524518803616 0.015162823783367434 -0.9145498791098249 -0.28409970023323977
Ni 3.1977441163388303 8.5741683490014 12.429776643670682 -0.8381827159029953 -1.4691733406640826 0.9915911855655439
Ni 0.18516402665376094 4.822868334436086 10.292679586261459 -0.35013719937928733 -0.5176301721593601 -0.4465260571236826
Ni 8.415704060084085 2.403619676126494 5.896354715482602 1.2251226859329287 0.6414460157664565 0.2552807191190184
Ni 3.847465821458875 2.3652312717729966 11.39345824732545 -1.0089379043741076 0.7523117269707883 -0.7773352455983193
Ni 1.092379781942988 3.0239770153013694 12.577659432129073 -0.6729939657760667 1.8770986546964321 0.413087832069895
Ni 3.095698188032614 8.224559342914924 7.982783065668199 0.8854354782423718 1.0606278765492314 -0.9871958847113257
Ni 5.547119898940569 7.856875079173216 3.6488626821835557 0.26890396632940783 0.8335860976712482 0.12452855340340489
Ni 3.283843952678524 8.435799760073714 3.753966454829943 -1.0306449570338958 0.36438342488565634 -0.014448314214846084
Ni 3.5047335675329636 4.3648621440953645 9.363507149567873 0.5165089140707233 -0.27766808567528306 -0.7748425610834526
Ni 7.543634035105844 6.186757512947694 11.373673314923577 -1.3428254746637518 -0.47944517644920653 -0.916319312305422
Ni 0.519975784217665 8.76434361626123 0.3040548266555216 0.3768337348338671 0.9122741957017707 -0.22672579029946113
Ni 4.766105683202981 0.26408902763647246 1.7013791547035266 -1.3165539425617327 1.1412569003562087 -0.08063133779982243
Ni 5.769431977680658 5.534634833753144 0.4215902088401278 0.224246218410717 0.11279403857529607 0.02071409261889981
Ni 8.253008620627925 8.9220377814188 10.706544094749397 -0.02561538657525911 -0.9295630646892055 0.29595711379245804
Ni -0.02912698662157718 5.067740509196994 5.792789378299803 1.1518521593735518 -1.167050978601177 -1.0528096660563935
Ni 7.705396265770781 8.584560489618218 2.6648837086066246 -0.1133941340531402 1.454044455442444 -0.4558419352079698
P 8.541922814166824 1.5379009070962835 3.3047759164684423 -0.08761368265492653 0.17953781975974886 1.0913132214482304
P 1.7612458577023862 3.199465569448852 1.4512302731464244 -0.7326813543343704 0.3137679167216338 0.7923777417537385
P 4.606119267325226 0.963207376734631 8.211263382709884 0.07762391843206631 0.09495161107723647 -0.22664017256419033
P 8.460615865696614 1.2953209830555632 12.188751463596697 -0.10862628035085165 0.9291987393712513 2.0951978796691466
P 6.082908589015718 7.686858933859698 1.3735764293812713 1.521410186481612 -0.8670328073654682 0.6348637345632485
P 1.8427158912040729 3.4820556878783013 6.00326148375475 -1.373759445238447 -0.889572383228881 -0.10215352814231439
P 7.014196600978725 4.012018618217954 5.748723802795043 -0.54839779235952 0.6288599515713298 0.8021453626634637
P 2.4829786644985217 8.464366821420557 10.320885142455198 0.5607020636481698 -0.048450896412535915 -0.5661779991610765
