# total energy = -340886.8107342576 ev
CRYSTAL
PRIMVEC
9.15644120300093 0.00000000000000 0.00000000000000

0.00000000000000 9.15644120300093 0.00000000000000

0.00000000000000 0.00000000000000 13.40137724785698

PRIMCOORD
 96 1
Ni 6.886916437137609 1.9180088693760755 11.478815784245317 -1.1442998009475907 0.39407786662629546 -0.4575954275639667
Ni 4.8874976501231835 0.42947188110736845 5.628028485008862 0.0027999313426403396 0.4516520654963383 0.08477621320613142
Ni 2.896392911608998 1.9607419798943724 4.686447842051115 0.5618449190033614 -1.5716557129007254 1.3672159876929744
Ni 3.851510437058763 4.300762062186193 4.720956637191753 -0.5018543973823422 0.9212576301473037 0.2183987584910045
Ni 4.0899624756526105 2.8543282212895087 2.653499083447457 0.01683686905168068 -0.3220404411430712 -0.04935026829835372
Ni 5.46688977231437 4.761816339865173 2.7089807068808223 0.055518859002910835 0.44619387059524446 -0.10811385949080735
Ni 5.229344221387399 3.576835517554185 0.42520955778483427 0.16275828630856484 -0.6632152891227482 -0.3220707801603744
Ni 6.110972150732633 7.869869543469231 12.128500988960162 -0.9743449968905864 2.108661204262904 0.7496575771773928
Ni 2.088419394307728 6.967355772021526 0.13722300423879466 -0.7326109061077511 -0.35317727175719177 0.5868072453756539
Ni 0.8563167792690117 0.19776630830093953 0.3908472657014693 -0.7337424486090331 -0.2206497593087103 -0.5308788096391502
Ni 8.397994752055972 -0.06847919154579772 6.883013961949501 -1.199319865937212 0.9363237804518068 0.038778920540410634
Ni 8.69028666419762 2.5389895469506136 1.0496293946288542 0.2731776540040972 0.91181268268432 0.5045368293105117
Ni 7.4842002451982514 0.8765955493279086 4.71873162200942 -2.981704736598826 0.4681801450583485 0.5688290636306784
Ni 0.669281819913314 7.586422753410436 2.2648328820111385 0.17082280848425418 2.0006512173398128 -0.8984303478401431
Ni 7.971680011832835 4.3349796825005 3.4202860131287673 1.2896308929186435 -1.5147029496647655 1.3094232450542225
Ni 7.7795961908658695 4.192532928625818 12.562330420377293 0.26122562384854364 -0.7549275673270804 0.48004989991274094
Ni 8.469991848264536 7.467535522433456 9.11312378809874 -0.5733760595714125 0.26594436948045164 0.553066401479783
Ni 7.184427520694605 0.7456602731784464 13.473476884474804 -0.31192443575499185 -0.4913447561002699 1.200207410748488
Ni 2.2742493660173557 6.83408377210856 9.120468169488653 -0.3186905508342318 0.20780324236334538 -0.2140332824334572
Ni 0.785683992781302 4.864789676245881 1.1565693012852272 -0.6033270974075481 0.2221731379317722 1.3233203147512889
Ni 6.783155646824059 2.0274558096000312 6.972026472616208 -0.1363923947205264 -0.026450480882044772 0.3787425218208058
Ni 3.0391052022749876 4.784606721712192 13.682672262531248 1.2033091896022632 0.6032124262065547 -0.8373897876880546
Ni 6.300940833810221 5.816546787819448 4.8578518408399 0.3886271279243694 -0.9345024109723519 0.15097029253470126
Ni 5.372093137817708 3.1045829124349056 9.230506615806348 0.3635670996319481 -0.6739589007924973 0.17488746547193104
P 0.4125223930249988 5.599502508469608 12.565238506064158 0.32016507849722925 1.2367625841647023 -0.3191672333603342
P 4.242179152159181 6.428032235994484 12.718241720859465 0.28248221923447475 0.30482896236079116 -0.5237260006444528
P 2.6768397674033584 8.65031879888535 1.494253354434675 -0.12962705097223481 0.1990131548755411 -0.27589453871462805
P 6.612809216979964 8.173085089818791 5.83643366220014 1.41571804905842 -0.46447775650609685 -1.950561756882589
P 5.111189505696784 1.5737816234311754 12.693958839116476 -0.2569722478888284 -0.9237906809818026 0.77189401997809
P 4.2446697041328205 6.354213008011089 8.011316413978026 -0.1680046223091687 0.7468604740482299 0.6477881559344005
P 5.217092903222951 1.093855920687227 3.5032140686981075 0.38449048004817654 -0.1175894030814104 0.5500350708526268
P 0.49781647296929665 6.022310331759273 3.598417249178703 -0.9990910934870149 -2.790061648935111 -0.6897375037829928
Ni 0.44659076334970993 0.3034609389704924 4.523795569646173 2.6276658881722876 -0.16242892799360414 0.4955955609568239
Ni 1.961538590268294 6.965561109569932 4.671666599216385 1.2051261882063438 0.7425651891069858 2.409211336742683
Ni 6.125430171197255 6.075692383253096 9.232007356499288 -0.5046759259915373 -0.7023611060842743 -0.8018712830664706
Ni 8.828603863145423 2.6371282824413154 10.293973224194632 0.6401069852400588 1.0325658282056929 -1.0293843451539175
Ni 2.6626381272889637 5.457834052086687 6.709305286940992 0.20391624860411334 1.367668758959677 0.9779111169752901
Ni 0.8222676374705676 0.0355269913886847 8.890781591940268 1.0715905462083222 1.15607545342628 1.6337823070281414
Ni 1.5787261016141365 1.45728422357596 11.218949576898707 0.6644015961213654 -1.2111384558386948 -0.20214501563630347
Ni 4.713094916880845 7.254584172246178 1.5467866038404228 -0.46372416616952394 0.12323426007201357 0.2525116410143135
Ni 5.7506845071341886 8.258349869151633 7.664448450425781 -0.3051755470669325 0.7853095220530475 3.0359475571027907
Ni 5.5373028042161705 2.8115218592425752 4.846702042537322 0.9022566635647686 -0.1036401399901699 0.43920689775445
Ni 1.008810895940293 7.777215516185184 7.171331063018513 1.2099868587327547 -2.443658205566643 -1.6562074688008765
Ni 5.642922352068871 4.650098602253486 7.245240024124489 -0.7509050764312486 0.5080538413248348 -0.5099664849665153
Ni 1.0287627810526498 7.501167130518673 11.37163140061212 0.04799606826330444 0.7454826198640967 -0.545240477677461
Ni 4.76434351760313 0.5271555414764162 10.570926266239804 0.5497820743015563 1.2771664419030455 -0.12667028233675603
Ni 8.567004341502452 7.309559444487844 4.9336094873998375 -0.7790445149799421 0.5610255084258595 0.3244320813036993
Ni 7.360295284509674 6.455721313819068 7.047891249536777 0.8417886880866986 -0.468648857164651 -0.23128178510125977
Ni 2.6193098481004955 6.1935724057113255 2.649853904253685 0.18311448136741365 -1.0390473221649783 -1.8951395713585426
Ni 2.548567184319831 5.533035902673096 11.209688752390843 -0.24489114835457826 -0.5586235838525863 1.4348365150554256
Ni 1.702557810774078 3.5693363923100274 3.591542593216171 -1.6280932270631638 1.901590726300525 -0.3506406213782671
Ni 1.7529457060348852 1.3789417136992628 2.6343355679120504 -0.25007912031342094 -0.4398249909544232 -1.2265923284999198
Ni 1.3841059464681331 3.5403562562932263 7.962991464892443 -1.8642410820074733 0.9729157206432277 1.7722572953093092
Ni 3.8504391334524546 3.2165844997200583 7.088939574896435 0.09176010072313229 -1.3057524810708545 0.05905669695284022
Ni 4.486930822215764 7.059002590786821 6.008025368031056 -0.33895367195864207 0.275028591169907 -1.2225348706010946
Ni 8.386292820356298 7.555821927322554 13.17609948495757 0.9124521160405318 -0.36467653064604294 -0.14812793798989973
P 0.09003986335583274 5.747113495113161 8.171181465718352 1.6957068124470795 0.47352006921402323 -1.2029824023904636
P 8.897963904323074 1.7671015639438816 8.174451230827861 -0.3997106394320406 0.6066366213967552 -0.8120443669447306
P 2.1383219981913184 3.5794908854672567 10.040070606923138 -1.2318579477742333 -0.5653377626479683 1.7188516259946593
P 4.285049609293671 6.237523322893202 3.933370851598227 0.8194460587254403 0.9624029940373621 -0.30522259825478404
P 6.902903583262518 3.8334814045731136 10.463045077440453 1.1281352753725862 1.8590214854797467 0.018003121445639963
P 6.564765370635524 8.02773574412189 10.026950342500239 -0.24204030916934444 0.4174458519282746 0.7031316657017116
P 2.4123834361435663 8.880969549679413 5.47226460322807 0.20137651290139513 1.402497436603088 1.5781446630591787
P 7.127959748556972 4.393388620147001 1.2932117871595779 0.629921817176941 -0.7339054565494587 0.5709872476242618
Ni 2.946158168876395 1.4210430297830698 0.17876760870496483 -0.7875944614324824 2.1148488211308547 0.031570318607113367
Ni 1.69775067920731 1.4472762334760034 6.95417599073161 -0.2020717391962068 -0.973464394057846 -1.0038414636878066
Ni 7.104336130571712 0.8222685531146756 9.243506015206997 -0.7178761710007379 0.3987464757465584 -1.11557775042255
Ni 3.050898698385458 1.7517919944588607 9.070279884643382 -0.6435949437886592 -0.18921519494851283 0.49083644900528367
Ni 6.78397057008014 2.3517769526379726 2.6022926023541375 -0.8078838078091377 0.5532751750564794 -0.5372949975781391
Ni 4.368364066676569 7.426679482336469 10.464773813516272 -0.634484753957275 -1.783538267539767 -0.26419241978635144
Ni 7.265205643898464 6.123827794008332 11.31361710557615 0.13363025859435695 -0.21742585305477394 -0.16266058438843597
Ni 7.7590766064065795 4.191012959406612 8.254189182325083 0.6477706724329038 -0.9414616158990045 0.8008752377017885
Ni 3.3609449497803685 8.594107407097944 12.487550681724649 0.6758142088336813 -0.08648985346312846 -1.0421146482363923
Ni 0.06696471619123885 5.422014054583458 10.406504053774183 0.9620484389114207 -1.5615368792991688 -0.9703214775534902
Ni 8.96365221262782 2.7381604533131574 5.831153142629558 0.789713307547698 -0.8163116268615168 -0.0476926780902727
Ni 3.7432629906162296 2.672911654180228 11.443020509133001 -0.48287425673541357 0.6158342287356232 -0.20112223079874395
Ni 1.1172048454400996 3.4101516641419125 12.537765520249053 0.9024045019965428 0.832567940819379 -0.022883589466392847
Ni 3.381363813387783 8.86218968902524 7.558376574383749 -0.6645358077063845 -0.23381277905322959 0.47811848721798306
Ni 6.311598931226826 7.919534079884753 3.619537496172811 -0.8651476745276132 1.024568668932829 -0.22818180601969734
Ni 3.5418395997481147 8.779507026076832 3.569376680650777 0.17297739293341177 -0.7607040647995416 -0.4393426520013659
Ni 3.7696976360129133 4.735390850909568 9.391671882179972 0.28186361181386943 0.7417887159522774 -1.6392703267259057
Ni 5.061286901813194 4.667175364866862 11.34529747606731 0.5216333797814823 0.9763108623677057 1.131406232814374
Ni 8.30505687509846 0.5388135222589093 2.489131809628313 0.29577019459263254 -1.8053957297344907 -1.3514669523888336
Ni 4.7162630454943715 0.6308549836347334 1.3978708243430327 1.2593720940341022 -0.3371536426354258 0.21685301127043946
Ni 6.335405678033678 6.134046382253119 0.24033185594748044 -0.06436576787057947 -1.0740852876057179 0.25755023187948545
Ni 8.493285834370932 9.254323434698389 11.031410097639526 0.12507079906012009 -0.8506214558869802 0.6407147940273868
Ni 0.38901323055323384 5.122186391433333 5.7775476739733955 -0.7565293645965616 0.35953072477904535 0.08636258385664482
Ni 7.749508125478442 6.348755769127672 2.5198745605529287 -0.6149590252195215 0.8797775086256462 -1.359988873816916
P 8.908448029359167 2.2815012673523656 3.5920114029994443 0.4382849001608129 -0.23366314084924275 -0.1921189988588691
P 2.3618673507076458 3.215851984433694 1.4154667571656192 -1.0341907654036253 -1.0375403986021485 0.22954011981980468
P 4.9193162828746475 1.3658388465144151 8.113983925226677 0.8472713084678247 -1.4670377823783185 -1.3064788177139177
P 8.917787599260317 1.7395315198533328 12.450160354576274 -0.3197061365829397 -0.5250233792996377 0.011073741315658348
P 7.000108361763104 8.129509586721175 1.3274935025614427 -1.015520956908264 -0.29421879094511266 0.6073755564453088
P 2.0386632934814104 3.6162539964016815 5.96560998601822 0.009905174928853908 -1.6518674466646261 -2.17197590516115
P 7.280789906615872 3.997949399244133 6.009861234467507 -0.8197592190904849 1.1645426103570267 -1.0570396449773407
P 2.618559019931972 8.89985928762654 10.168147242167562 0.35673362164988237 -0.49525180446416 0.4910377663828124
