# total energy = -340859.11681377917 ev
CRYSTAL
PRIMVEC
9.43714947880331 0.00000000000000 0.00000000000000

0.00000000000000 9.43714947880331 0.00000000000000

0.00000000000000 0.00000000000000 13.81222218391977

PRIMCOORD
 96 1
Ni 4.2828143626954445 6.884825217281216 0.925809844277425 -0.9033347271202958 -0.5403965193215984 -1.8580025572969292
Ni 1.5826760278181344 3.1558677204090144 6.232931467801443 0.20632948603129625 -0.2927563474669732 -1.671796067267753
Ni 0.298365861670061 3.564175429804444 11.283176713628636 0.39212485666498276 -1.61072593942931 2.5690208248355693
Ni 6.989294462023217 1.5854222383167726 0.18702542839177724 0.7438132025814739 -0.5720300870664793 0.9783178654954054
Ni 3.022011192186743 2.8994981176392582 10.144980045447271 -1.9619419736950727 -1.8821508724083582 -1.531511279471356
Ni 4.876194010540321 3.288006687425952 11.4455674070182 0.019548611555888912 -1.7661599241623196 0.21359310957224503
Ni 0.07182991955097252 8.925372863562982 8.782183938220081 -0.5261348671962617 0.8901742784789378 -0.05244407673232904
Ni 5.027679133990962 2.9499302444596065 4.203404524682252 -0.4990516378262244 -0.24210690074122174 0.6263862932198567
Ni 9.364719357597657 4.7593809742786695 8.163174879817813 -0.608383685994849 -0.08892340260528556 -1.4396210809282628
Ni 4.5324741521850225 8.388701046942558 10.706364925410593 0.4050683041995281 -0.852350779873261 0.42286470895100076
Ni 8.388663298344637 4.837652692064592 10.208489230301854 -1.5560630006687912 2.1313064524662453 0.28415215073773
Ni 6.823512057110595 9.226229188980778 8.676451059162728 -0.651078139539582 1.4948278080073933 -0.16205328982174028
Ni 4.075574560117817 8.629678658910668 2.2569311029904258 -0.11386258904912648 0.5459439315023888 1.3622522159297958
Ni 6.417299394899693 3.1596992030978353 2.3356057870591376 0.5394053590529225 0.3391670735210288 -1.378855885924748
Ni 2.750976259125292 7.181557508376314 5.7516991295153765 0.051206604780802134 2.5155061407468806 1.5838196019567692
Ni 0.8146232365356629 0.9707051954979417 12.128636779804674 1.6550988091177303 -0.6583535901550726 0.6278597924415897
Ni 3.6492135837674224 4.927371672169578 7.954486474795028 1.2657707984715945 -3.014521526018531 -0.4883445358213654
Ni 2.745068603550902 5.455691611500331 2.804557562727068 0.06020752272783179 0.46387534703540756 -1.4080451058941943
Ni 4.9330811476048915 0.38330964413824087 4.278736570405199 2.0495158042509996 0.04753995456249232 0.5715009540358867
Ni 1.9082010619762717 1.4102215582232542 8.096945908483136 -0.27390810441221863 0.3489341802101216 1.626269286480548
Ni 3.174147478951494 1.0107470207409688 6.1313009176229825 -0.19704703228810583 -0.015896873735914557 -0.7964858503848412
Ni 5.368766027641382 5.677766613060292 6.124698687846875 -0.9843920967139433 -1.2760618959849572 0.047581606433705154
Ni 3.787977429719219 3.0545221721448454 1.9800234318076604 -1.531897202055865 0.6689215954789061 0.8761787355307942
Ni 0.8777351173971447 5.84778629808937 12.155363730846574 -0.7858939338016078 0.5524855892756485 0.13930545460226332
P 7.372499353802232 2.0891300918040625 8.007456251110508 -0.47631742945350225 -0.37053658897124575 -0.17896369242383373
P 6.53570730942344 4.193510617167571 5.163395724375714 1.9117607248549915 -0.38465708753302785 -0.7096296147212294
P 4.942197434002432 6.397226577956039 8.591022207211283 -0.30544114202349326 1.0002164653407097 2.370331886068666
P 3.8365126894941155 3.255184281535014 5.982432715723105 -0.004431296298476239 -0.5527797234772995 0.9140945367399612
P 1.7799313262460752 3.610257030714579 8.1856201961407 0.16697103883833178 0.03260235941605353 2.388424739014635
P 1.8172930010368233 8.465208017775746 2.7058836714806462 -0.432406587003165 -1.129231079539926 3.106226862244328
P 7.674818437389404 5.364679741916604 12.28673168275101 0.29284916429109564 0.5968494601030042 -0.9428497544957826
P 2.601557871410739 1.9303500518054928 13.533947245438613 -0.3037208168982769 0.8897348769486741 0.6596357993016059
Ni 8.28788397904926 4.72078303290606 2.065714636514645 -0.006194044625853849 0.11853145527970556 0.44535877628845877
Ni 7.910077136772723 6.523335206455349 4.25365357080269 -0.11708880929590801 -0.13909745235651527 -0.27791156914465687
Ni 0.9386330429906526 6.801768864709008 1.6867347565577617 -0.83208174521158 -0.03100364747036596 0.288682948728548
Ni 7.897780531000471 5.398247682616451 6.454506300438971 -0.7473032180126034 0.9305521680753521 0.4188648437629883
Ni 0.8146647599933742 1.656729339786561 3.056299187391902 -1.3296223457099166 -1.696007374406634 -1.8139258786926886
Ni 6.910711318304461 3.42141023247319 12.811733520324644 -0.07362251058215707 1.2767625215964076 -1.039204416568133
Ni 5.098278449249762 1.6447441599471444 7.224455015051946 1.4828634365566655 1.035671720824526 -0.8100533046566308
Ni 0.23860416887392777 8.129453113581445 4.6039313043315415 0.7072276901479563 0.7729502291567463 -1.0879952128185906
Ni 2.446769745642148 3.7555985698538343 12.265722700578952 0.08199402247530395 -0.47592687888330293 1.001358806475269
Ni 7.19492051203979 2.7464936131223605 10.068681635617587 -1.179013293169376 0.227511262315234 0.21507715031693928
Ni 3.12347942339415 5.062134166741916 4.976405213437012 0.10258418792182979 -1.4785591527543567 1.5551379177513605
Ni 7.778532710173017 8.44662627044991 2.434114528189662 0.9988252414201377 -0.021740734111201268 0.9909098432278031
Ni 5.851957518159466 5.519467867685195 3.3503475531749296 0.6803666040910541 -0.24485232469684282 3.312456589472966
Ni 4.648569965086206 4.866709675313067 13.21112784203635 0.6751989438471856 0.8610732473479235 0.40830943684464516
Ni 4.39804195784448 0.8757948394640864 9.233263640203061 -0.6280554533921635 -0.5589737681031534 0.9629781498145414
Ni 2.1080515765111727 8.307890735946554 12.545227475298574 -0.16268475275815208 -1.2743425993010054 -0.05590066782236179
Ni 9.336889203781563 1.7885096951232637 9.900780590646736 0.4223720855852984 -1.3940706459919732 -1.057167943025089
Ni 0.4164095022238861 7.119734742133781 10.169745956827255 -0.39385495198221204 -0.6528660846779402 -0.349336814965179
Ni 8.424279100481613 6.252932562409049 0.23139229924142216 0.3456624514373854 0.6061116021312206 -0.02911028710239503
Ni 1.3859680840600255 4.7695070356705545 9.933115095909564 1.1897198809536027 1.850965962165122 -0.40735298646864687
Ni 5.6563537208905 7.868034635839966 5.778771480228238 -0.5621534513827158 1.9733777263358403 -1.5360665029422063
Ni 8.240301871371829 2.255110676855762 3.7513858263260267 -1.445386008436498 0.34348446994946 -0.34598358222222997
Ni 9.09669487522028 3.957242142789908 5.145895474380269 -0.5627838858778631 -0.4585580485875522 -1.2435117299630778
Ni 3.5959597492525983 5.109150045450556 10.550051756286058 0.9806056330883175 1.5041133470743775 -1.3630736833898267
P 7.2561393007156125 8.769584399949528 4.430007470562647 -0.24329500751205196 0.35951092728470346 0.8851853099047786
P 1.1312216710008047 1.1629021818046799 5.169472304925793 -0.3386399973729652 0.014425174286394511 0.1363098623090491
P 4.841097251624738 4.998074796072657 1.7281157133119802 -1.4469443540625533 -1.53388260791701 -2.6722377612453916
P 8.541111011042224 2.0834300535182297 12.12501763297915 -2.891844166891252 -0.2895779497389916 0.03432628408569572
P 4.205042813831954 8.79880181473916 7.255698585834904 0.11663423825699266 0.9907028694233196 0.2994553567537036
P 3.004165542520336 5.9920142535900025 12.295032599433489 -0.14833234069122198 1.798897780714973 0.6400146826365687
P 4.1184947159522 6.841782378503595 4.324178332580599 2.212763114380841 0.4808600545188622 -2.0007687167542834
P 4.922294485749417 3.0399040276005493 9.228857435110918 0.6534972905040358 -0.516250261092698 -0.09662128547017552
Ni 0.8659377368323774 5.930399104636026 5.764807330142896 -1.4771067365785464 -0.4330401068221058 -1.5400465706358768
Ni 6.4537079175929755 7.128917088577681 12.807824653010087 -1.8997475024441992 -1.2011466347333057 0.12367289027132895
Ni 8.117316939350351 8.656791589366293 6.508968090087218 -0.24712517989141955 -1.7517396349719316 -0.08906069951409823
Ni 0.24788843653220966 4.0796702829920735 13.700646941280677 -0.7101795736874286 -0.6866202983102498 0.7380367051090129
Ni 1.996787584143676 3.3074094667565346 3.747256129713642 0.6371497023839479 1.1720268345492137 0.7884084726933455
Ni 2.2514018771101787 5.357441448265556 0.3753399714025028 0.2976113615664294 -0.4503343751261793 0.597874558933409
Ni 6.471317638522386 6.9430996153193245 1.6829363038921197 -0.16306604735697078 -1.2902867813350873 -0.9762450421267769
Ni 7.719475028728081 8.852555818176418 12.629246417117729 1.233472600559521 1.941303985729747 -0.08727018327257874
Ni 2.143837247338785 0.15636224230183063 1.121272084304193 -0.40499091399437354 1.7428137932372116 -2.6096982479502735
Ni 1.2371914225101026 8.971143038540282 6.755764648424607 0.4435610609580877 -1.1216951761741973 -1.397675332624096
Ni 6.124568455184054 4.569713144032533 8.322016261288 1.0436133442691058 -0.5078561234917317 0.11428836373263544
Ni 6.592915309570325 7.095509579418992 7.652426912818551 1.7835426384151412 -0.29644382362088945 0.6233927578091716
Ni 9.033815148236004 1.266909006222168 6.9237628960351 2.8127128106757238 1.7178941471773963 1.2957017817030718
Ni 6.010907426848673 1.220582039425557 11.73813791519268 0.4891166381006996 -0.7937967335884523 -0.08597331883802613
Ni 2.631454760962921 8.439208670958743 8.780941065633586 0.32275237960843123 -0.5485687707197455 -0.009636237538183405
Ni 5.939185090801772 5.174804294381912 10.885909525409689 0.9417218115389264 0.4507372669915528 -0.08985465617030332
Ni 7.130379846747058 7.0817030297299635 10.051237064804074 -0.44943988833636794 -0.41210027134564514 0.050158623132262
Ni 5.871426357536408 9.104008666067168 0.7445524016477354 0.3160675113890879 -0.20364731121344282 -0.12985459360200863
Ni 1.9531502049488239 6.145858664410607 7.692289432221461 -1.4401746394388875 1.765402991391637 1.4024347016859526
Ni 2.8262564005260997 0.767248746146788 3.6660126535565136 -0.1555741098552998 0.4264575685085817 -0.42875279230066154
Ni 7.2492218701468785 1.2276599015354488 5.760401125050752 -2.7417182246347167 0.3512769694106853 -1.668511225868894
Ni 4.71296907313674 2.5637998363418366 13.800620328010476 0.6062165031402011 -0.9611207848908287 -0.8784631606895968
Ni 8.880168917554474 0.4166916729933339 1.2265029070092184 1.4246773151342367 0.48320952858764527 -0.9537849133510475
Ni 3.5204531162642736 0.8766564512115973 11.8827924298498 0.06302673734418178 0.13680248567475148 -0.5716009699488608
P 4.145428340567707 8.706912290253806 13.364526819401506 0.04222034212179181 0.014381722642968778 -0.575758186650344
P 8.667417819680612 2.6021712861269295 1.3076255876530047 -0.3789800917529086 0.6381927989364815 1.1151735730055956
P 9.309983890614495 7.044152611949618 7.531998504591166 -0.16247469362987502 -0.501234504410156 0.05364632457054632
P 7.9820354015566215 8.94185012655481 10.421294119927754 0.727575657676689 0.323271742447011 1.0072967692262587
P 0.08109248176545075 8.175714020331698 13.752359689285441 0.8307154609916726 -0.21310845662634267 -0.6175766653480267
P 1.9607942960275067 0.4253502576411013 10.24553381687008 0.046941401746544965 0.4737260145772421 -0.1184736054585766
P 0.36061235592424024 5.396511247112158 3.469008383304737 0.9565015409512623 -0.1446888304013637 0.841063636995216
P 5.13568730978791 1.4278973391990237 2.2538923408579126 0.025603302390401067 -1.7683078237432577 -0.08032923317837133
