# total energy = -340873.72404572956 ev
CRYSTAL
PRIMVEC
9.26609447831432 0.00000000000000 0.00000000000000
0.00000000000000 9.26609447831432 0.00000000000000
0.00000000000000 0.00000000000000 13.56186590020012
PRIMCOORD
 96 1
Ni 8.730245553934699 8.126420503575313 12.376803085137304 -1.379975601351488 -0.39346877228738686 -0.20979096221733545
Ni 7.801625357941962 4.057215088623649 5.08481848626534 0.20267414866689612 -1.159408888674887 -0.5689198235722719
Ni 4.570250944731195 0.6431225572814189 8.153204149828113 0.24485900956506218 -0.38930821315179404 0.27581791984042175
Ni 4.6656546540613615 6.903889055033669 5.436843903908069 -0.14105740429636351 -0.6708668921307349 -0.5214081511445536
Ni 9.102140258088372 3.1830887945899926 8.260912306091022 -0.3305253386856308 -2.2169085040077823 -1.5713145275112228
Ni 3.128604158725446 1.5002826322218803 6.079662533288747 1.2126741757569308 -0.39202098409726677 -1.0323940785145187
Ni 1.2116159891796645 0.30780946774163226 12.256224323565574 0.3030577293929813 0.3659826510519762 -1.021593131244273
Ni 4.988114743871944 4.830424347078941 12.088315277719609 0.022564515564077268 0.5857412660049848 -0.10828946583672318
Ni 8.613613222025338 1.5719651395429917 13.04826413933446 -1.126781075337537 -0.5352645974116718 -0.37512832210698616
Ni 7.2810469008831005 4.480573681823527 7.699844722352956 -1.3520989295458778 -0.366356232341311 -1.3194286930063663
Ni 7.844351319841865 1.653395578314699 10.245379882476936 0.17916886645610433 0.583350397175305 0.8207940881129024
Ni 6.795716667434567 2.081600338956271 8.054283957621996 -0.7949647857546245 -0.724968559071145 -0.5340888319360156
Ni 5.771989277136776 4.717730105346863 1.434181093639071 -1.6633548784789354 -1.192811632505049 1.2727968520804402
Ni 4.975864966896956 1.678951467041641 12.155080268671107 0.8801464619292906 -1.553541776908834 -1.9239559813696028
Ni 3.1559669358866715 5.688464701000208 7.714382298068583 1.1211033082264694 -1.1927488975879137 0.8810121523636956
Ni 0.5088160766564038 5.228264115930016 7.105129169530716 0.24893549362728093 -0.7230181202129935 0.4924104783606229
Ni 0.45395801718210504 3.438406763401511 3.155900220006021 -0.6138236260634977 0.31158196481390854 -0.08932886557382035
Ni 8.699936158711411 7.450301383655517 10.138389848540474 -1.6224617398089993 1.1880139540060894 0.09033390979956701
Ni 3.3768428313123864 6.5655190809068555 2.0306182868258733 -0.30689664352309726 0.32007329011437136 1.0305315713844834
Ni 2.658757569244542 8.2398097023975 8.48848017498976 -0.3088681654271713 -0.9135391784571235 0.7873116400847409
Ni 0.24267994247552216 1.3120326556531499 4.108865226170004 -0.1284641410123852 -1.039560257245655 2.3306816186668957
Ni 1.5718632125031091 1.2750146079866762 2.255067188304202 1.027969724194578 0.24123529676954583 -0.7323005739561841
Ni 6.426388671467031 7.138358311141916 2.082166497332346 -1.2066058580756638 0.06646018850576295 -1.7162486411541733
Ni 0.040274153285997746 5.953715923153016 11.848595852447952 -0.48228753099400806 -1.7482321360393056 0.4250195505104745
P 4.821973668863215 6.577574269896614 0.4798530449690205 1.025144853151273 0.18210506626629283 -0.8121286991284208
P 0.6393568164624815 8.239448324710642 4.7061437807405655 -0.9918984323933177 -0.2664279939850896 -0.29405295479120974
P 0.6158941384909477 6.937460115533202 8.608529842563552 1.5123568180300921 0.02380147329497191 -1.7983429366527672
P 0.5494015707187704 0.8455876494759661 10.333992471122556 0.8009328304126013 0.4990711782102501 -1.1350641412819356
P 2.052069295673905 5.024465632731913 11.866592461253415 0.31823109469931 1.211518721996249 0.08743396254395264
P 5.446165595010065 2.212808237568853 6.092532211988113 -0.2834502395746989 0.38196308564063247 0.25296235539848694
P 4.0573633461362055 8.473009503554481 10.347392170429313 -0.003952042669212548 0.6479419079034454 -0.1253207102873971
P 4.349263856171063 2.8291888460228773 0.22251506754891892 1.0489769225738643 1.3535063514163657 2.472066067285375
Ni 7.984260081222612 5.361658812852808 2.417429549961645 0.6598682270273861 0.22752977425799523 0.9076809199041336
Ni 6.50797663384583 6.141104152930011 10.798093155382439 0.6234632060357908 0.6182716345325223 -1.129410542540584
Ni 6.7158614647337735 7.984686321571211 4.197723366320798 -0.23865802296067284 -0.27836048375661737 1.474546174940222
Ni 8.386102802912715 1.539728396656468 1.9600968211499707 -0.845344523758757 0.0575518302725396 0.42478429457121686
Ni 8.819756027140741 7.31449750215368 6.672220939303288 -0.5930575971607399 0.6320236940112921 -0.6510267174763561
Ni 2.9060511001889346 1.2736802903736668 -0.08382943064676353 -1.3737447899504276 0.43618482309867457 1.6123809585342295
Ni 7.347392137752174 9.024277265712557 0.5689326447791943 -1.1520239090647255 -0.2720723367550605 0.37095079369052886
Ni 7.114887293685301 6.565129904936395 8.482174597658839 0.7283122787323972 1.3107170241649813 0.06473369273295948
Ni 3.138037042961859 3.1962466488293906 12.093318968768394 -1.556484918697558 -0.35255429346121214 0.07070276583220081
Ni 8.94810996863661 0.6720244327448727 8.20313913327608 0.4033916878280536 -0.269940120903406 0.5781557403482429
Ni 2.961193628765451 8.600038393531875 4.157593764109542 -0.4974287575108208 0.5885602235110187 -0.13968623498044974
Ni 4.526199931312818 3.348182800916291 3.8508647229906656 1.8313800696133942 -0.04754921053387295 1.2531945044684805
Ni 2.128820356705545 6.659690399663895 5.946674617916033 -0.2387410695927824 0.12518135649605536 -1.8821063923236683
Ni 1.7110121541320038 7.526931985458204 11.020087468418504 0.6253182569666585 -0.04032621042287248 -1.0537943985671658
Ni 8.048705768712054 0.32365448939611785 5.851782397004186 0.9260092858996761 -0.10834243056184566 0.8349842635703556
Ni 4.878635836943437 0.19361689852327904 0.5410750581698109 0.93502254514188 -0.7774604583222738 0.9472075172438461
Ni 8.500798521064308 4.79633438528546 9.673814740240408 0.4243109544792241 1.1116161946716405 1.3202151934634037
Ni 0.46882917230098453 8.913065599106046 0.7047949026766 1.1317633590434766 0.17722845490028188 1.7899081756218527
Ni 6.5099317797926695 8.79787877794411 10.146296607007008 -1.0510826560629576 -0.9158541997435454 -1.1164794363012127
Ni 6.675711477114541 1.451635635914249 4.301254367167425 -0.40358194946198883 1.190070579424802 -0.8722210364346269
Ni 4.125811986464677 6.373358812444445 10.282647188086397 -1.3829513961503603 0.39607458534135015 0.7866601225436709
Ni 3.327862255601503 8.492922340709738 12.507892377739841 0.18138592871208117 -0.7392415240503915 -0.4675175717736852
Ni 0.40115425086616846 5.686287168784533 4.229837796759461 -0.37687487248444773 -0.22164940421781826 1.0704109240779243
Ni 8.475919057238404 8.319683437287361 2.6707386294780213 -0.9544261464794723 0.7546789416513842 0.5346513893077051
P 3.421561003537268 8.448009580499626 6.345624464892374 1.6450015727827283 0.21988614166980838 0.93629832653051
P 5.213790476266679 5.360102108970964 8.823648713454805 0.9604854652996748 -0.6790412004114111 -1.5355677089289166
P 8.792782425949976 6.749525186178654 0.8662890312761333 0.40437230657376816 0.6678080506997531 0.0624289558591828
P 6.238537136963296 0.17511992061293744 2.5620130560351924 0.036863705795568774 -0.6845672724359628 -1.038244880868341
P 9.068745253385 2.4434598627287687 6.089251087913345 -0.6210715658751627 -0.3618017802014092 0.03551079131210013
P 0.825411655235921 2.7900766609915415 0.7807481529687947 0.3863681566868636 -0.03912241992275843 0.21932692673222873
P 1.9582130241310485 3.6224314008623786 8.01640508977324 0.9450884140183143 1.2008188190802418 -0.7144666310985566
P 2.6650492474336622 2.1283663180733403 4.026097689956927 -0.958920177695084 -0.017306609599247614 -0.029852307474742133
Ni 5.947813420934357 5.451678921258263 3.8526818041289377 -0.2359064283574647 -0.1446564345015315 0.11864021294342793
Ni 5.139142818694436 4.493444287132346 6.181566407935066 0.6475469864578719 0.3595016713133228 -0.572359188271124
Ni 6.278409141746484 3.6614694571374358 10.178519450751729 -0.7982488558225349 -0.29904732268200757 -0.6856815885460643
Ni 3.430234068021829 4.8626610899654645 0.27517335618065936 -1.4055015135367344 0.3424747977380231 0.11115213209649888
Ni 5.624528648710178 9.136906644782892 6.021807818841899 -0.2265033898760099 0.9642043089121588 0.444405411236254
Ni 1.694611166805431 3.620837632602395 5.530677936824042 0.03833463391414043 0.0786940115677935 -0.11284288953536051
Ni 4.160754428955357 3.05387310630239 7.8373748772666225 0.1245079845781146 0.3198884277970749 -0.3664783597414721
Ni 1.1951130748132088 7.337023377967747 2.8283678700470953 1.676476760572874 -0.2950150615941629 -1.2053475601885306
Ni 8.100994340171857 3.697570161444965 0.8138095782689144 1.7508150662751332 0.2666172271777602 1.1460790043352003
Ni 2.7540686176293594 3.878166343927962 2.4828518838150546 0.5873556616799562 -0.48972650377055654 0.22822088678774888
Ni 2.905976971432656 1.1933525168515995 10.742977498480075 0.1078760324483884 -0.8830703204443051 -0.36054991007217907
Ni 1.7231600040671093 5.365735894448115 9.654678401807168 -0.5200421240349624 0.7748369046564979 0.2802566723380657
Ni 2.216940915731368 1.4550177604194463 8.200575204918305 -1.0047565193029082 -0.11932541193591063 1.3102768513037693
Ni 5.081730096956896 7.56190222623249 7.8736803622633715 -0.6458919673529522 -0.5131266278620518 0.20054938901440944
Ni 4.195381824231856 1.3365692739812656 2.638514859123846 -0.07153888858025098 -0.9392826059698146 -0.8336411192788997
Ni 3.6238583794207355 3.9719670189036096 10.059514072032007 0.8605112041968664 0.6304897738652689 -1.2848584112306647
Ni 1.3198810377241144 3.040752316441131 10.042547852938812 0.3193958044313725 -1.27000951914329 0.07842044619143268
Ni 1.092315022044283 4.966385752187868 1.483031017417014 -1.2238381627935504 1.334725985485069 -1.0619445384781259
Ni 6.432226311023947 3.3034553625968743 13.157247310205358 -0.8104582534045331 -1.2186743592044236 -1.809494839504529
Ni 0.5343914241818691 3.338388538993021 12.097916804876554 -0.8050972462029361 0.8599992975574544 1.3418014042746118
Ni 5.602391948866572 7.636966858058799 12.28345644879386 -0.4539118080647925 0.9335163929099988 0.41466571807997615
Ni 6.962432240304452 5.793588543497364 13.443552025750655 1.542714347276027 1.365042119970107 -0.8579791818036322
Ni 1.3806758839668511 9.000880377012221 6.577274048433687 -0.8136543917443276 0.737037317310221 -0.20160328420022056
Ni 1.595000650556472 6.875701595458847 13.401388515789016 0.5401352952404117 -0.36747157689267684 0.6215613610273877
P 6.828527908182247 0.32859331778315926 12.057773303523497 0.7650091199327985 0.7710424706110721 1.1278534824661093
P 4.6953617531398875 2.0397731882262424 9.77215209510029 0.7445822195370143 0.7123819806553859 0.5252223826843212
P 3.3341168694124845 5.180414003752377 4.250858858821079 0.4627260639223128 1.1712261930247894 0.5475840382089732
P 7.052192898062932 8.87370322952227 7.951918631467845 -0.5423050491982209 -0.46626107365876474 -1.2031304979325537
P 7.585447372445384 4.58241732685537 11.692851335507251 0.5233722168494599 -1.5460192432795439 0.7650276318755599
P 7.261523239698303 6.062333083289788 5.5060366116276835 -0.35228689873243846 0.6521657161768059 0.6957757395572728
P 6.768187100571715 3.2540114821592514 2.80304826673079 0.752713333284581 0.6233619045712362 0.5725149971226978
P 2.726705840468134 8.806718632130297 1.5453204847082118 0.45052540809106284 -0.7384282841204766 0.03147338801793289
