# total energy = -340872.6698837936 ev
CRYSTAL
PRIMVEC
9.19671501794041 0.00000000000000 0.00000000000000
0.00000000000000 9.19671501794041 0.00000000000000
0.00000000000000 0.00000000000000 13.46032204695298
PRIMCOORD
 96 1
Ni 6.5874691250807835 8.0093180771236 4.437047200606567 -1.212630724113505 -0.06368211153999355 0.013690867223531262
Ni 8.010568830386633 5.96630458911227 2.9426554789794013 -0.8387059353963169 -1.7264597773592203 -1.0926959607283697
Ni 3.4450159287186817 3.7566098353715667 7.214800058570348 0.0499832738966623 -0.16559009933040514 -1.2340320726074165
Ni 0.10077208679668034 3.064768543326568 7.612054929325149 -0.5499283700714336 -0.6644355346830944 0.7279942332713463
Ni 7.42257684603398 0.5450543605699725 11.244403347685989 1.1211755562253014 -0.7726527525209855 -0.8051545818034328
Ni 6.464959682309818 6.916665544567812 6.82139493278544 1.9593449023918579 0.5828724290976219 0.022612338082877183
Ni 0.767174345011729 6.273171384168108 9.43615716681731 0.9575942597948088 0.7372808007795948 -1.2188813330089072
Ni 4.888192063239231 1.6991299143988428 6.742113729996506 -1.096817181985595 0.71686058525203 0.20962075518805837
Ni 0.7686973210437741 7.195850226963895 2.1323706119398085 -1.1457938689946139 -0.8579203035412386 -2.031412409782069
Ni 2.1657436519463604 5.601443308198486 11.259774737420047 0.9134070237546333 -1.552305333398572 0.3297118416453999
Ni 3.3396583597385616 6.370481827375043 8.000398183080843 -1.1626366515835653 -0.13092802917184548 -0.5169555146898387
Ni 8.650503862015798 1.753785992650314 5.411669090678865 1.1432685314695987 -0.7638786058727812 -0.15268110457822093
Ni 0.7677187905497548 4.132829059519503 12.565870153655306 0.6740807710823423 0.3271299398508366 -0.7303377938028583
Ni 6.340270618043715 1.7141113634097205 4.786181178909239 -0.9111994745803534 -0.21789199405791507 -0.8319459909646639
Ni 8.920684960261083 0.8717492735309373 0.8347968719804726 1.8452683975597126 0.6840705353052025 0.5697652022917027
Ni 9.109861391294695 6.545688448066408 11.71332086238343 0.22494015915394805 -0.1368153411905579 0.12963013629602835
Ni 7.692380878957321 3.9423926785076886 5.867449097756883 0.5600916837576806 0.9071345604823603 0.13792785752844633
Ni 1.4997911131030932 0.2441525549729781 12.042506245812255 -1.8830525582870217 0.6803954004464605 0.31025938934774305
Ni 6.631273079432417 0.9825494585482814 0.6521482693740668 -0.36147165055550007 0.149526103889007 0.2736746482451738
Ni 4.454916418180622 2.3988619880591475 0.7280285268933735 -0.0364394737739566 1.2768319413817624 0.9447554561589278
Ni 0.13848321734861674 3.569649812693768 1.2809046937148816 -0.9413736841708883 0.9182316988367863 0.2750046799105071
Ni 8.442382197733314 0.5465506661280264 8.246883944692287 0.23981296250072248 0.7157413840459222 0.29079716685807333
Ni 1.9815610372497063 8.69333296455948 8.276226984111629 0.12172913628139681 -0.35817472497178315 -0.5564378890551772
Ni 4.181258961601323 4.907919017277496 3.1550048732252365 -1.5665507875739924 -1.0590900997484665 -0.9795831053610742
P 4.721740715389092 2.8428426095748844 10.257613283773116 0.7313556935444113 -3.3171632509200166 -0.18131008116882322
P 4.682075282863668 6.141575586809821 1.318330726096568 0.6233197384793909 -0.9297147597757215 0.5682896461874406
P 7.177879845522977 5.923760584738839 5.052991681044954 0.19427281197707832 0.880842973775683 -0.19275663244286803
P 8.092962201588875 5.245116578961863 10.334498742260433 -0.5780444115813594 -0.5135891693207671 -0.13746377340783422
P 0.16986884720707138 1.5429604941080413 10.065077292688139 -0.0892807859447043 0.6578457972807187 0.37669232415999643
P 2.0805820694781416 7.3269126148423585 3.7032845218051014 1.464513473294568 -0.170548471776945 2.8288441690199475
P 4.351729273980469 3.5535739545777374 5.1277499393136 1.0323534550845703 0.4887528270033776 1.1272960673007424
P 4.782898871265297 9.0425782231157 5.21172882421104 -0.022440845502019417 0.01880890517638696 0.6857795475765093
Ni 0.8379642206847981 3.892472908568435 5.603963208154889 0.6770969322008468 -0.2264234285676939 -1.27309638559873
Ni 2.1298672660707103 2.0841871818245283 8.505712617732522 -0.021835607817852716 -0.6731330624570924 0.3980088262495855
Ni 7.830736261965083 4.6306104647759625 12.516996050230807 -0.9985421629620803 0.5205488884680519 -0.1987447317055029
Ni 5.500408195347962 8.332591812041565 8.405608212457135 -2.4167284710553347 -0.23948926061271658 -0.12148025349538434
Ni 5.745013228707274 1.806851039177487 12.0608527729036 -0.12874979057360408 1.801845550489387 -1.011672015475819
Ni 3.8838647831699196 0.6463911256780511 12.738929341354625 -0.494260129974852 -1.1475255069737398 0.7289846222090736
Ni 3.2917066868455493 4.185296319560669 9.515411699132253 0.6134888684318983 1.7747371243083694 -1.047210831812377
Ni 4.26430529958059 6.478101788286826 10.210246521964875 -0.002855724281240243 0.8913623852497681 0.009589443460648
Ni 1.5445607225475089 5.164783271957555 3.2010804162237 -0.14599135126287113 -1.07587297563376 0.5755509557355443
Ni 2.6930649063267844 0.3767765450871994 4.735624076608748 0.6224823301797602 -0.25108467875979984 -0.505936794981832
Ni 8.849787483020531 7.434652133051342 4.389976573026779 1.5377266642534484 0.03970246079594453 0.4958899522687911
Ni 2.1738275645802227 5.384768698808505 0.7882651719096088 0.48223328071730504 -0.6783248910706768 1.841219167191003
Ni 4.838971243652849 5.555367765200023 6.133720672383675 -0.1018557943962375 -1.1941483490386016 -0.650788376213305
Ni 0.8691521211671117 8.759135461596209 5.942503490253983 -1.5398239131021094 0.4685285295367028 0.9489206432802109
Ni 6.143525290425724 1.3690782004010638 9.0187927586732 -1.4551466873676875 0.10470560514020678 0.2522483600505978
Ni 5.311516862484599 4.598063289791618 12.981323484387223 -0.5092748582161294 -0.9863219667468044 0.061285586283358964
Ni 4.254731519089292 6.57242329906372 12.551198633945635 -0.5942673011981249 1.1393537697962248 0.6610733030790809
Ni 4.34816094849476 6.987498644802177 4.062419927854446 -0.37771073812218176 1.1098094804802048 0.04601143373310785
Ni 5.301906295132624 8.529070434919646 1.8677544460435005 0.347265277148131 -1.0907560633931797 -0.08243316689525158
Ni 6.634133257850086 0.15786805358258124 6.660719122061655 0.6927040426104845 -0.760141250317536 -0.827581286238065
Ni 6.714549335290918 6.6211107091702806 0.6931435469129795 0.1420303097325941 0.03328884396011686 0.19943970088999846
Ni 2.9276915037273454 7.709505162602658 5.9644845591802556 0.9802922156129571 -0.2718481365593963 0.7555353761144085
Ni 1.8119736095268173 2.1050729219741315 0.20726728944324974 0.8273830541843299 1.1686018680280648 0.11269607954485109
Ni 5.699719406498204 4.53894680468301 10.507033717195103 1.4717141048080653 2.2736118702370973 -0.07136122535180613
P 9.237088748947539 6.0002404680871875 0.5666408904154804 -1.5854018588422243 -0.7538291920565792 -1.5453142467927192
P 1.6023712741020686 4.92650557863476 7.710934332139976 -0.36019098407086353 -0.670437003682168 0.3627608016805688
P 6.888725923883315 3.1595406931467616 0.1391499791983949 -0.33034459013339235 -2.11910682507626 0.7011336614350764
P 2.8085940422842106 4.085245255233266 12.762472012516655 2.989718350931922 -0.40131783601816046 0.3428288386433322
P 5.431488011868822 1.3555682258172825 2.6068475409571237 0.09667836396035608 0.5196461741481244 -0.12061019218560519
P 3.8160574022262717 0.6407654950089572 8.433201116979749 0.8840697082430968 -0.3594718465166519 -0.014709795406348859
P 2.6418116126879743 3.2899869011088803 2.1878139290097764 -0.08697347796776633 -0.40216707139233315 -0.2397222025591291
P 2.0672008489067317 0.02585840404167285 0.5902010353363316 -0.42946395943507326 -0.3290379555068269 1.6822164912701287
Ni 0.7692463649393845 2.0922710944583907 3.0012072857766112 -0.06659954229710466 2.4702015032728104 -0.033179314965446086
Ni 1.7918052131604238 7.275208682160251 13.07948922210491 -0.12034074057430241 0.9722657457640546 -0.2988987129192852
Ni 7.4548941031390905 2.6083355694715253 2.8709385744172615 -0.3803862280718158 -1.7900755544376525 -1.3772188645419572
Ni 0.42460958035452684 8.490904066966827 10.11317059499476 -1.3237201212928686 1.226978765305061 0.06522734453992637
Ni 1.0873552246182403 0.02698224263536792 2.94113434229039 -0.6066595042148907 -1.544877673475933 0.5132739520731935
Ni 7.543090601613196 3.018886131346661 9.804983151640602 1.5619765379397486 0.6838777025681061 0.3565017081447344
Ni 6.323357858847274 4.427436633254592 1.8040736311963421 -0.5173175260149478 0.37970977083008156 -0.6928128002742068
Ni 8.234968680518874 8.19683909942673 13.080283818295541 -0.5874783033007496 0.31027250197386563 -0.06755470712152237
Ni 7.214556345618361 7.6833589013761845 9.69521483806526 0.9594266850178573 -0.9227864080870044 1.0029091816815243
Ni 0.549189203710114 6.323008383670837 6.424625648591582 -0.6734292535412725 0.9389283079541895 0.4276832133855667
Ni 3.103072862006928 7.541527160034406 1.7038073637339763 0.05840157986734458 0.514856466068965 0.40976288146172
Ni 3.1492035852964078 0.38256587728630775 10.563970580808572 0.48913412160219627 0.011512371514973722 -2.631746228889248
Ni 3.2336754141269246 0.8868153323213731 2.3549099665932878 0.6263384707010569 0.7470435365933135 -0.346273602658823
Ni 6.197050172711364 4.254897059962341 4.120702270897193 -0.2719108714765317 -0.08535291164520784 0.3531343343343983
Ni 8.918146666874339 2.09825815603364 12.197650232361672 -0.2687674407515436 0.13835723175638107 -0.22804785154499435
Ni 7.831389228742108 8.310151827028342 2.0446900491867037 -0.5602585483528479 0.26124336446035656 0.31798246902361366
Ni 2.726485769252217 2.538716435639515 4.318326804485375 -0.6181469360291999 1.700610420396284 -0.1263787192382662
Ni 2.780590044593527 2.767898577659819 11.17797639368926 -0.9592562208782642 -1.920226853344474 0.527861362969065
Ni 6.6357426830047235 6.51533928800754 11.742152564439353 -0.940694912936309 0.9146103000341153 -0.44802655292860905
Ni 6.132112166900556 3.931016341843198 7.781237701580586 -1.086624043502677 0.7045331740349287 1.0343314047465477
Ni 5.35265376943712 8.727415990977105 10.725790462899425 -0.32137915340998846 0.08228327158094861 1.5245083657909615
Ni 2.5318005058321607 5.543862674523161 5.49366884247186 0.868404233791698 -0.9767757178192663 -0.975917740694345
Ni 0.9846463096068939 3.970654184223114 9.771951309766834 -1.3514309569445757 -1.2565060853402166 0.34215855204918494
Ni 8.240330365462606 5.3786896700815605 8.14509654054091 -1.1459597051485166 -0.8368138605799266 -0.1490612484374465
P 7.173401045235501 2.230644870896492 7.098987663785707 0.08667060201536687 -1.1912028932570324 0.4161636427817413
P 8.097597346034231 0.22626494396858446 3.8763170390304307 0.9316058061508472 1.554287396825607 0.21935366620510607
P 8.38436931844503 7.594445059118869 7.985000122872795 1.6261589861549284 0.15511465372037803 -1.7415025306249556
P 5.666675608894715 8.440101412371316 13.021219754463399 1.0827182806903675 -0.11669825872570869 -0.8208992462321991
P 8.806608905300415 3.9641796967438885 3.6419461103115776 0.8514295536105724 0.7422615418236378 0.9977474349749268
P 1.565731560867362 1.5648394794959346 6.377083229523606 -0.08576094571690392 0.7921525131168099 -0.008174051170360117
P 5.420534724102122 5.959756527911691 8.430078832179753 -0.20178069031834928 -0.28844255058296775 0.30703136932874864
P 2.2177786663745658 7.594316305106499 10.841993718078765 0.7000252588622461 1.071868225349741 -0.4953690467683146
