# total energy = -381165.8286945378 ev
CRYSTAL
PRIMVEC
9.34403583178658 0.00000000000000 0.00000000000000
0.00000000000000 9.34403583178658 0.00000000000000
0.00000000000000 0.00000000000000 13.67594094943452
PRIMCOORD
 96 1
Ni 5.898245180394598 9.0715638980568 5.6080110129919865 2.0214619834375767 -0.1548562578526688 2.332501445484454
Ni 1.3907756604081747 3.6590123642539103 4.563715944612884 -2.0220060288665045 -1.7596072106454663 0.9148324433472503
Ni 4.16922476127669 3.4073868191478462 8.42500893432673 -1.4868720434954263 -0.4305415087699682 0.13937950237330832
Ni 1.9802535147125 2.486382568008764 12.30484609786127 -0.3366869874116524 1.081339655175286 0.502631898978315
Ni 4.119514489823452 8.901109993573721 0.703448930050461 0.17816613622320285 1.1712801861911764 -0.5003230483394803
Ni 2.754874098072177 0.3485362799463123 11.662240858143095 0.9538862148156023 -0.13674206475046127 0.30772299607913456
Ni 8.782608929180869 3.6226266881187765 12.6814406490707 2.138843641383555 -0.020375735442874583 -2.0381150186132255
Ni 3.94855600739705 7.352635037805339 12.038520515339748 -0.6876916769975576 -0.11455678690267368 0.00538260446815202
Ni -0.12278717370029561 7.570323044204982 7.431479079063851 0.4692520379662886 -0.1574546147074643 -0.5933537882449201
Ni 4.941200982451918 0.22902138764882202 9.94805783376966 -1.0032691361241044 -0.15651950448770463 0.40264735346286135
Ni 4.596695719630593 5.294424230849535 10.651451634007795 -0.6153233505374758 -0.19670944644302898 1.9881183749801243
Ni 2.5058181628626617 4.339538505219957 2.895169192002159 0.21104360367751396 0.2623643654386772 -1.3673239740257486
Ni 1.1671635351924878 8.406988026521333 5.46467350094449 -0.12229632163877646 0.008032383386173262 -0.5929886915960174
Ni -0.12596881795402265 5.473091542965584 5.487266445558547 1.8556248010933718 0.3034454517497032 1.0704669741268404
Ni 3.4186090063687744 2.0353833270384603 0.5304113996168522 0.34902236904855377 0.3185496543809933 -0.4276652156634377
Ni 6.78373275074538 3.4583678794953783 2.5032990107604447 -0.5578306556376457 -3.1964900667069593 -1.8814389339429984
Ni 5.508028893522663 1.51769570122572 1.7050071810337586 0.10814291295652989 -0.30348016164238056 -0.24032718313297963
Ni 2.3491747435690353 5.851515656421356 9.59331711392768 -0.4979260088622134 1.1625083535358172 0.4551356531695645
Ni 6.460989747738827 7.8664448886832865 7.7787249476402955 0.1481860449213448 -0.12651987280182084 -0.31893917650992815
Ni 0.8455474229260215 1.528020860991853 10.463681362032773 0.6520322759227352 -1.15874657250054 0.26933231211607805
Ni 1.2334501264874644 0.9288644542117259 3.430377819694969 0.25943793582050156 1.0056633473878938 1.6141701892241682
Ni 9.245559192179122 7.134610646110147 9.672254595546066 -0.3584511185616214 -1.1992105940528572 0.8804912468632191
Ni 1.200260110660039 0.728950673067412 0.2474823995492287 2.180192122423355 1.9393170372067052 0.6885697087271366
Ni 2.7580977904878474 5.33363180585288 12.717217094059453 0.6627566043187746 0.7818102506505374 -1.8981282216732214
P 4.940808532940445 1.3410186687749988 12.50883668190691 -0.10769528389615002 -0.1545955479921144 0.6251807029475298
Ni 5.570493774098772 4.066010539759308 6.666447345434496 -1.1215925891580618 -0.6627064678071297 0.2926409049350315
P 4.674167122002547 7.3592879914284035 9.92218232931321 0.6286637764001238 0.6867884484569978 0.19344568809009266
Ni 7.062203711243391 2.8543600492305665 13.788631358084933 -2.296184613331291 -1.440087736152036 -0.39757199582248304
P 1.708080434470031 2.478841930966891 1.925230224396797 0.6042465238980238 -0.10337325948202843 -0.18455944134405633
P 0.335337829114038 4.915887988961914 10.678694170929209 0.008917614204603996 1.0261157017049747 0.4739386448086806
P 9.277244818212568 8.855230776875338 10.764907853371023 -0.31169252224984384 2.901138190598668 0.2950654552161241
Ni 8.67630183175164 1.2664906377390905 12.470502774268391 -0.23791883080180315 0.2757094192870155 -0.685008987959072
Ni 2.9166193610149516 6.2555424284827446 1.4388320374916346 0.4875716622110829 0.4198392918611157 -0.841581457171899
Ni 8.357670204579566 1.0034279925843863 9.000615567207685 -0.18359939142363219 -1.096891486866956 -0.8533424543625692
Ni 2.9550607250673244 4.886800004932979 5.654413495705667 1.2841261610503305 1.477991453176345 -0.41673185658038553
Ni 1.65548285589667 4.24198676951097 0.5027670691479789 -1.1415065544731695 -1.8062760754569152 1.2730578190513109
Ni 7.055616165872238 8.515005082536264 3.2979120935188715 1.2888117394514578 -0.1610958110044774 -1.5272172800816926
Ni 4.799461300558276 3.9547324151847554 13.018265114310342 -0.23766917668484228 -0.012964273470151867 0.2220859775346046
Ni 2.096082184812941 3.6373435447990117 10.231067192546776 -0.33103981642820407 -0.5434412196851931 -0.5042982309371444
Ni 8.309193345876672 1.1024280538714284 4.498400198657004 -1.3594844233766714 -0.630203610083418 -2.195276270449987
Ni 6.509046124822286 2.296287499880063 11.279164349169172 0.7510382595750034 -0.6338383786225277 0.6091169646164477
Ni 4.992901533570484 9.003230962880572 3.7492869647358704 -1.8239608943311878 -0.7763196598496114 -3.0454207867005487
Ni 0.2656621559664131 1.0781989685559683 6.203653127837232 1.3313493557033522 1.2223050139784757 2.07209600354436
Ni 6.138424281416036 3.9187111564531323 9.629175786433123 0.8198283817655235 -0.14888101410584037 -0.27487535342149433
Ni 6.556196130414964 5.541536606573662 2.6347518434355024 0.7133705698209005 2.5579203440470337 1.4136197717684944
Ni 6.133070148795226 1.7739652322175472 8.564093041192738 -0.37956296083957214 0.0012315584142559436 0.07239429460201081
Ni 2.2381115318221942 7.186236444940813 7.428032998591678 -1.2655046892944013 -1.6943199594018818 -0.2782825793308304
Ni 2.8637321173259798 8.302914153693104 2.933831075303836 -0.8242457941069289 0.7004217229697163 -0.22122208687241254
Ni 8.71087476490521 3.2150491823821574 9.753626198539184 -2.3799524398775653 1.983396801134739 2.5701670226248705
Ni 7.008559600639435 1.9829819732208356 6.228324186054899 -0.19345828649558297 -1.4468613074304437 -0.47943103538181947
Ni 5.441424605004113 7.269174108365427 1.656238788408055 -1.6016939111340287 0.7702577699262477 0.01754777907577623
Ni 4.908216535416217 6.736536024972765 5.919890639759529 0.7268079262727289 -0.40718200810842137 0.17608328555224514
Ni 2.22892634444653 2.57165624043024 6.622151008432386 1.4173023628264043 1.3557696935292458 -1.043521555886248
Ni 3.966917038112391 8.52850721453813 7.381028759960405 3.365015594516605 -0.5178751982906307 -0.06716929875764562
Ni 2.3526600689923542 0.5466335804946657 7.647299212669602 -1.9215669123121355 0.6764094192155189 -0.42524966424340965
Ni 5.320522123362486 4.535109178437303 4.438444191743526 -0.1047246313036003 -0.6728520408815638 -0.3288955163916916
P 9.040728579298213 3.3948844989966367 5.977083615231518 0.8078316144149637 -1.830061607912287 2.2314555485840213
Ni 8.078171400122937 7.543627133388835 5.152328541184772 -0.2142816509988374 1.2167313765454402 0.8639940205391442
P 3.0127227711458837 1.183123148659054 9.513969429129446 -0.43068240522320667 1.2515705957118122 0.9237428584630026
Ni 1.5682002157378918 6.305934814563067 3.8189112456855647 -0.5325081177124571 0.30568616815476385 0.3294151363405875
P 7.670463077882492 1.2069504404270537 2.447665554894761 -0.5377133160624804 -0.2994345308180972 -0.15820820504403724
P 3.7846335840692 2.9249542411157576 4.989161115964708 0.25862032501521265 -0.5745497681645395 -0.30362928562573516
P 2.368460833847134 7.914622738234583 13.755124579437531 -0.9552224171285226 -0.28734700352594383 -0.8320827736528444
Ni 4.612674021169133 1.4633040677427682 6.560909262167034 -0.034996056459210695 1.1821454110404543 0.6168282172177764
Ni 1.9280390416146245 8.40978189328158 9.551112906583162 1.0192976503418767 1.056732398149567 -0.7834115336993863
Ni 4.180400228317681 2.872179125858635 10.965902739479086 -0.0034784454669036864 -1.2833244910846415 -0.28411435552125913
Ni 7.943047295708409 3.7277377489416113 4.292208159732722 -0.29452089556656375 0.8015326687801293 0.3546435718900731
Ni 3.4433333255915692 1.5663874727563263 2.96677627738839 0.6283331325335824 1.2990239040977691 -1.0692091904603391
Ni 4.035016372388933 6.362241975423447 3.5094928379971164 0.7632980507789628 -0.3663112380359885 0.7747988523297108
Ni 9.500735470960418 9.080151067129268 2.0293592270373506 -1.891341280658375 -1.4895899566472217 -0.6484394163651542
Ni 6.868838230519082 4.990967318121082 11.940751063592254 -0.08018525140133932 0.002136586727028578 0.34796924519369105
Ni -0.0149196222611628 5.875641957340956 13.068278132529572 1.241135002200785 0.17296659430013436 -2.1586591334475855
Ni 7.535282909252041 3.503583669638653 7.680941479838819 1.4899229145066082 1.2106401760460377 0.7854930988187633
Ni 7.143151095002677 5.650488066187339 6.348864119100213 -0.6784138512400574 0.544570705303946 1.016782854339823
Ni 8.89184070987417 5.4897426150952215 8.327622588054721 0.009074451497442437 -2.6643966679344175 -0.7026732380080543
Ni 1.472208934038809 7.475695991760067 11.553680913637292 1.543042162929091 -2.188161513782077 0.7534191011023541
Ni 0.6141227492212271 6.080566010581739 1.5169350966963413 -0.9499696533700154 1.2686378356067443 1.8789171959624091
Ni 5.844657134006568 8.589206072312612 12.143606347265417 0.6544748239259567 1.1769471546689665 0.7659306033058035
Ni 0.1564640138026673 8.473218553600384 12.988588456014197 -0.8939823393711184 -0.650510182851254 2.6615214032691514
Ni 4.5050867908096235 4.117739122985836 1.9964140249527962 1.4000340626642598 0.09142662864311352 -1.0807225904165774
Ni 7.483694486565325 7.213362181412383 0.6356887842802637 1.0033498687633686 -0.21946602341325427 -0.7745049752383758
Ni 7.0621289589554905 8.684599335708498 10.073985537965338 0.41542702172603296 -0.40627877956786157 -0.11034609125543578
Ni 4.743481180957458 5.8457877623610495 8.446370334997642 -0.7971859617756594 0.04977527165091428 -2.5689331502177692
Ni 8.965733346462931 2.678075466291318 1.487655559929664 0.5105904917037595 -0.6126920835622157 -0.13670041287924845
Ni 0.7064362183556492 2.5081728599314994 8.283777567990805 0.9287120295428198 0.08652842001054775 -1.8162689250035688
Ni 5.707206364631166 1.9162281801264867 4.074678067541267 -0.140680480572919 0.4158625666015548 0.7523582639380075
Ni 8.113108750680015 7.339936492898393 11.809654238688319 -2.7538119225744575 -1.0826596595382905 -0.977443176199936
Ni 8.030086990931514 4.8020589425627875 0.8658174401935986 -0.5823504951558809 0.43527362413831483 0.86648079151674
P 8.020266409108704 -0.24231234443737212 6.780490370257734 -1.7649684749573797 1.688105345950738 -0.2407771261862047
Ni 7.191562545453661 0.2904154417007692 0.5054600203195623 0.4488192240332335 -0.5144720861463528 -0.19380538542235654
P 5.883911429189848 5.479688432372725 0.4559590552724425 0.3088190573567907 -0.1731208604898115 -0.13667084519289366
Ni 6.7770237329063905 6.184509066906143 9.594042211120307 0.6583451055146404 0.6110494057524702 0.7149389427492848
P 2.425496829514534 4.913748204720787 7.671122766823207 0.3059846732317892 -0.910151235821497 1.2184020793796437
P 8.537141103790535 6.16333548135858 3.640220573479548 0.17616350397087724 -0.5489783474533385 -2.3849069556693636
P 2.9911473920508596 7.3788730908581 5.31385515368544 0.37006659131336267 0.009951454785757055 -1.0072360911916525
Ni 3.248883936692717 0.5481491831318303 4.883090422645961 -1.5087403043234275 -0.8438185740325338 2.2620858718753687
