# total energy = -340876.1665162796 ev
CRYSTAL
PRIMVEC
9.11429153012608 0.00000000000000 0.00000000000000

0.00000000000000 9.11429153012608 0.00000000000000

0.00000000000000 0.00000000000000 13.33968694104559

PRIMCOORD
 96 1
Ni 6.989194245313707 4.2519993105772524 10.371073101071453 -0.7661987693655256 0.5646420221325243 0.9224943307678821
Ni 0.6366059243888567 4.066641962598153 10.587042620199561 -1.35145923907935 -0.24881799421281023 0.6927024999485877
Ni 3.6196224174841776 1.7179619352868407 8.022114176437617 -0.10371444487153106 -0.44805534928401547 -0.13843873572659385
Ni 1.6939275483752567 6.345278659073089 2.5262164016806925 -0.7697430350733583 0.07358522958631844 -1.0878959682365652
Ni 5.092254966157779 1.5494660267413514 3.368711438703835 0.33342991392693544 0.306906156604794 0.72634229949022
Ni 6.441069863639168 0.9785559161024753 6.116819826185048 -0.0882626290928351 -0.9065326652323032 -0.12996746503078907
Ni 5.126096330815615 1.4999571948476371 12.14855956327557 -0.8677617151116926 -0.08622502983751601 1.2799095518658214
Ni 3.0857345592665584 -0.004322908499114274 3.0780530343181005 0.9110408375153021 0.2662775844501543 -1.2048317968943767
Ni 0.5103419973350306 1.7641167078770046 3.1273558832219774 0.1861715230261826 1.0559469261337942 -0.40617464988982954
Ni 5.390748015590613 7.103742661963227 1.1262548341076337 1.1035465302896286 -0.44640547238541833 0.06180983421794516
Ni 7.4752411869978 1.451642335151654 11.881619279883397 0.08929261301924622 0.45020581996811493 0.3823708626020125
Ni 7.4126442323869695 8.90165516304014 0.7096715543150626 0.1774518837649976 -0.2026867470723864 0.6337630452999021
Ni 7.384143842598376 4.965411370159101 4.456923219732609 0.562076061177561 -0.12518624159206182 -1.3215125721185885
Ni 8.972637265909846 6.703288032560773 0.6518960599530862 -0.13585194883602408 1.765923382671481 -0.09574093974775125
Ni 5.9517144341094514 3.826589750813056 2.5734658006903035 0.6255360294044194 -0.623785622372216 0.0993800791622353
Ni 4.805546695745304 3.939670766517274 12.193647963750205 0.8118386786918276 0.7698397085522225 -1.7522119466226596
Ni 4.739559224664579 6.414930075371279 12.203372912872185 -0.17275139296553474 0.22721532834136995 0.575494391465996
Ni 8.95087233760311 3.7714847438856993 5.896234829797923 -0.03123119010013976 0.4959254334924168 -0.32393791527610016
Ni 3.5519396881685066 5.1041946881350935 0.7062081235124831 -0.7843754402745523 1.5362017429684898 0.24297104851372991
Ni 5.685458634015365 5.808811456336707 8.448317590998931 0.6120593350742233 -0.04175934332497324 -0.0007908713324115412
Ni 2.9873366673069595 7.685653722546086 5.233932983141401 0.9810946569095942 0.7768513639833653 -1.3675196349763223
Ni 0.8711184697481442 8.78192982876992 1.645424022843449 -0.5252604350111083 -0.17481136081835702 0.7854329350047893
Ni 5.1023900584011175 0.6525012489143791 1.2535113075151463 -0.31474313615070953 -1.3231912453725923 -1.1147511407561963
Ni 4.480558400672738 2.8582327269950185 0.79757889665948 0.10356892043260228 -0.28753083740197577 2.8076737055899192
P 6.975349636394974 1.3859100642353308 2.2463502299616276 0.4881267633836045 0.4914841098916116 1.0622013916839383
P 8.408152730838912 3.462774573585258 12.505956456368695 0.9744002756085541 -0.2426360337718144 -0.3691152831436869
P 2.6427708739082347 1.4192227999811933 1.2250245891639304 0.2053840913988914 -0.8871061810765756 0.21685815347676202
P 4.535362635977765 5.365665485146669 10.383732852084039 0.37027973576543327 -2.945818307114862 -0.5758749147338663
P 5.910691007682057 2.274498808095012 10.379490149350879 1.1233116287316978 0.22796197669940743 -0.35086250758108606
P 5.0540387415387915 2.670897577741814 6.81796769500913 0.4417438052436909 -0.7612653366196502 -1.81128124198099
P 0.22188834008388555 4.46552893384786 3.6449091080596414 -0.08456255453342855 -2.349287149583225 -1.9338994657355595
P 2.0359048829636324 4.635856815002082 6.333830197412247 0.2571923343194345 -1.3309577766918885 0.7846965710593969
Ni 7.292217097664649 2.5292159150415583 4.640143266334854 0.40559409479601116 -0.38823194936847977 -1.2471043324103426
Ni 1.4525811071849846 1.2679984739906724 9.084393975046657 -0.4408614026387375 1.2092276119692271 0.7058516357360359
Ni 3.0843218440707694 3.046652476946925 9.851412652019166 -0.280257186558698 0.42161540992493196 0.6459156215020361
Ni 2.1507814141102406 3.0661206037740554 4.244021571152259 -0.6795633914634683 1.9753137670162886 2.648507507507987
Ni 7.33096195119561 5.341986555606929 12.613248074057655 -0.32865151870168563 -0.16890733662909618 0.5547581873599092
Ni 1.5376903620125815 6.468102852482459 9.56336822646022 0.5376009588543321 1.393249949862891 -0.23537446711339466
Ni 6.242706421567224 1.068450174012583 8.565052526199871 0.4193464113850972 1.2006097883932292 -2.37669330951032
Ni 0.8817156565748787 5.848604453400028 4.970527222026174 -0.3303222215358892 2.076299757213063 0.9318474898480081
Ni 6.923225002816153 2.6593679988858585 0.5090641736547105 -0.8086829066716654 0.10574870169274045 0.2912939039888338
Ni 0.6127893690461715 1.9312272441014622 0.7177604880974027 -1.2221101243588501 0.5702251726472566 -0.0930767626520268
Ni 3.390489127018791 7.859062234256287 0.7374063436104552 -2.561446354922421 0.18862332700078482 0.38153396852301386
Ni 0.6277486558258389 1.9868608799407905 11.528891638369647 1.066722933703376 -0.7750063403548266 0.20632537226623823
Ni 2.44699589064664 6.615362461633185 7.18604927212821 -1.0213787012406215 0.33100253543236546 0.6893433536683675
Ni 5.109854663209835 3.615165528898753 4.821390068808787 0.07969031404279178 1.0267193967272445 1.199732013773966
Ni 3.9616453235304823 1.408595535992226 5.49018858250762 -0.06091509031781767 -0.9784201954012248 -0.06396724688058017
Ni 6.591683532093445 6.8117116452646815 10.744384458702429 0.27278196122757536 -0.9537214071029639 -0.7973034611901301
Ni 5.331933491987862 3.493735822102001 8.61915860676943 0.6462611777669128 -0.34869815293991563 1.9874221202440485
Ni 8.540054758667676 8.757084269907205 8.134847937632419 0.2982947607866992 0.6066348216245423 -0.938089871213294
Ni 7.817820064830835 7.397851737143321 4.8727609504734675 0.4700071709647583 -1.2574370817949183 1.152974445903453
Ni 6.260834747531251 8.108948766662394 3.0377268511970144 -1.1922369909485016 1.6250161307997368 -0.05264770810270288
Ni 3.109194745808241 5.447967538165859 4.441955730090514 0.7773049065810161 -1.597046127949372 -0.6401985165126006
Ni 7.1719995916488 5.8053571398257136 2.055405821240472 0.47077875902346017 -0.1135067483716045 0.5155316377591186
Ni 2.472032849632655 4.988789528076513 11.341682266340325 2.4583924264530244 1.0223804030322585 0.17589225258736157
Ni 7.6600790203565134 4.105614673418757 8.039482370483393 0.2896913353884043 -0.07686158634474505 -0.3670265189354582
P 8.17510029499166 1.937361162338662 7.285950110770297 -0.5176700242583602 -0.20366530893557183 0.04173363229336038
P 0.6668216238538864 7.751759679417424 6.273321327003709 -0.6243330102352538 0.8275782009142715 -0.7285758168064291
P 8.592990564197626 5.565569242496602 9.544012205419595 -0.6552276429315813 0.7286917735590032 -0.6820257369610319
P 6.650343112739237 5.026987524112329 6.3717547647004915 -0.6893572376254385 0.7173976887024225 0.7709743363772981
P 4.957500165062683 8.52839757972952 12.669501481724813 1.0349353568791337 -0.35848120046860843 0.5987690457232203
P 5.842753078201985 8.003706041721907 8.770604410045484 1.2105411885743282 0.6961148680642464 1.2811161705794132
P 2.8235801903860525 1.6147152402036307 11.369001443939409 -0.21425002642995358 -1.0984678302151405 0.5204059351322844
P 5.190926286864951 8.330571880861134 5.113568737031022 0.4167706802381209 -0.03730516420836156 0.12382818490227061
Ni 3.483254386778405 4.78133913729359 8.282784738647965 -0.7449352320010589 0.6739995242224457 -0.40170273016140495
Ni 7.281407547843967 8.977413154700772 10.205994140441454 0.8794689762462917 -0.38968410843397405 0.4824615946780272
Ni 0.07014723376045351 0.9015465322071216 5.461694572723135 -0.41048793255320276 0.2929368389088955 1.9811352587940718
Ni 8.602460313155204 6.190964588235004 7.0945126188743535 -0.19588977875521102 -0.2629436349809149 0.8708390684854357
Ni 4.224683778694804 8.396048951613057 7.258683796062411 0.786010147664498 0.3309451998318687 0.505297104515304
Ni 2.076226508938926 0.18650848300637807 6.835562834915392 -0.43480156959790284 -0.06791980377042497 0.549721139156634
Ni 3.2031357491824153 8.333242368295755 11.441356159121927 -1.1102681652841782 -0.18268844957358862 0.19301348564868048
Ni 1.095902420268818 8.155048853503043 3.94171783640743 -0.9160490893631708 -0.22149128137339918 1.234491014521706
Ni 4.701343000045591 6.1053540473701915 6.068023731893337 -0.052918188155270156 -0.5041897303837382 0.7741972141899699
Ni 4.6141739153196175 0.4792176029989029 10.042156546325435 -1.108959987995716 -0.11839004460583481 0.16656788986264218
Ni 1.7607808771566253 0.11963236849604499 12.952502969749371 -1.0000146337425488 0.5470225092785482 -0.8706385224388555
Ni 2.543470667081648 3.132582018017238 13.084352134686936 -0.9438928510483164 -0.8228926225131441 -1.6240455393563513
Ni 9.114382728651202 6.653305257504601 11.37839280998935 -0.1459576698114583 -0.5197217645810662 1.1129477689988703
Ni 8.610098089504051 3.9957601169358896 1.6037106445430138 0.16751816959105342 -0.18062128263191474 0.3686224026676684
Ni 8.14994485021503 0.1311482759146216 3.6856354085813416 -1.6160195837280815 2.6739660567904076 -2.060378715107432
Ni 0.7356472853344083 8.742793060700771 10.595099653961352 0.18729175267355486 0.2572679247523763 -0.3607311728450497
Ni 8.230305559126458 2.3455082538394767 9.554750663765908 0.09834649569139836 -1.3758821480084047 -0.3192142845481857
Ni 1.1436339653033138 2.3496643708025715 7.107571575858395 1.7164196195143988 0.9290485869466322 -0.01558294203992155
Ni 5.523123986581832 6.157351080866813 3.8220335164493466 -1.2876493437122405 -1.1955629699979409 0.4785889990964983
Ni 1.1171204910804096 4.556453106707156 8.414341334825627 0.021751789854794798 -1.2898471226945079 -1.9398662248419558
Ni 0.8862682452219535 4.890601264823386 13.124371166181582 0.2387626668593372 -1.2440274932572317 0.5094517501136259
Ni 4.032900855147761 7.201894468050011 9.617474307029779 -0.44760746311331945 0.4341878472733039 -1.2987331123302277
Ni 1.8848172713468978 4.016249044420622 2.159508348303582 -0.23703488553495305 -0.5296148553250621 -0.9416454497750363
Ni 6.48188366136009 7.401944054065316 6.876528841305797 0.7221071783629499 1.0941180378868771 -0.8077192572068154
P 2.02242484570833 1.0832791264225743 4.637529287508065 -0.314194205625775 -2.039087924049456 0.28349703365223433
P 8.47455945933258 8.61717077977458 12.209896011360096 0.05682755051200536 -0.4888551569091968 0.15864220725766226
P 2.056065695951279 6.691311853417118 12.703864183861352 -0.2020012909695876 0.5810207206008638 0.18792295849965054
P 5.741429498643365 4.962048196563965 0.7204300641028646 -0.8783446328338614 -0.6670544603631802 -0.9757434199000099
P 3.829889124367092 3.424722406214813 3.0679808306867047 1.008367376582618 0.6370905670112382 -0.908785722932538
P 2.371739185023223 8.529937895007508 9.038878114296653 0.5492290300115639 -0.9872287948317903 -0.4835363157994447
P 3.708969817899141 6.934636095881494 2.8737552769946837 0.19468418848288405 0.4749724853898336 -0.5053773229339361
P 8.327755564761143 7.410866945527752 2.686772850825848 1.8311615258446852 0.21752638318838022 -0.8346618472339303
