# total energy = -340897.80702305224 ev
CRYSTAL
PRIMVEC
9.01179350348528 0.00000000000000 0.00000000000000

0.00000000000000 9.01179350348528 0.00000000000000

0.00000000000000 0.00000000000000 13.18967071840556

PRIMCOORD
 96 1
Ni 6.343428595975798 2.095503369063147 11.504756786287045 0.06990623807283446 -0.6525837775508309 0.2806978736405424
Ni 4.593410360636935 0.5408878557563577 6.0411063491880475 0.07266965975058452 -0.9431960820916078 -0.43526411105661805
Ni 2.8066240071460227 1.7119524188990962 4.633426329225747 -0.1630436787594676 -0.4398576439645715 1.0030788744901693
Ni 3.309635294129572 4.339890581261096 4.842680178120493 -0.06976508450927986 -0.215702442605764 -0.785672561819421
Ni 5.134892994775163 4.573016671573678 2.578395826690214 -0.7195795268450896 -0.31940120374801123 0.2665130974997281
Ni 7.367213415256056 6.118178813326178 2.595529048805575 -0.8131573975032512 -0.01760202935247936 -0.6210162871571949
Ni 5.074090422919314 4.3984492164944315 11.59292907668201 0.8240989841164195 0.9473993215396782 -0.5517715939277594
Ni 5.603866737087074 7.793687538645157 12.335955970234817 -0.12813118315299868 0.31900422541990864 -0.16647995813452618
Ni 1.6623875537431487 6.653839828757 0.43613386501831236 0.2647498349517182 -0.44688318335278515 -0.33187156830088005
Ni 2.7402881939800356 1.5030500299572747 0.3944317898348311 0.03835340296721782 0.5713171201598547 0.5238303874328011
Ni 0.45914457896180266 0.12201788386154501 4.973310633187409 0.4924441598120358 0.3303083375788182 -0.2671522737456238
Ni 8.544081573518872 2.3483112167394733 1.2311236620212498 0.9304045867538944 0.18250795813166634 0.38270793422645705
Ni 6.824117670051842 0.71150003459616 4.823251652158727 -0.45777026257893416 -0.12297406443209145 -0.39783116302114063
Ni 0.6880711734266269 7.355074529189681 2.5253073502113614 0.16934133884272123 0.13159240222872176 0.33452211854984965
Ni 7.4522757356573255 3.850108607377352 3.759570721145399 1.584916948786006 -0.019017935863399508 -0.11439197919003524
Ni 7.861591403908805 3.859462849201329 12.418035386933068 -1.3648593145353396 -0.3780480668569425 0.34789751141549113
Ni 8.045549147986687 8.896541835539646 6.880299895295791 -0.5581199047432904 -0.24333203139757448 0.6998519665091754
Ni 6.911099502503697 0.6368328181871413 0.3663447325200054 -0.9815458855143997 0.08738742557673337 -0.2097454536913807
Ni 1.9115185896042701 6.413279008671026 9.154871209194345 0.4799758521416959 0.5973248570775261 0.0002823071271091912
Ni -0.014504481903363174 4.8724695632585835 1.3631527474649296 0.3148243830106062 -0.3634233749652322 -0.2706865121511274
Ni 6.379899324936911 2.0629077113778633 7.010679822498828 -0.5325166023528894 0.019148805014308958 -0.22062404827709747
Ni 3.486635933498292 4.399548655321527 0.43356280028576843 -0.792952640420602 -0.09443327667992123 0.33598636180020197
Ni 6.068659007138556 5.620187095413877 4.682570343617552 -0.5188601879117193 1.34616482344963 0.09126773446774604
Ni 5.33486469619525 2.7070346753572267 9.385703798019259 -0.7721123066364831 0.7524335972606332 -0.4969878133186602
P 0.23293413910752428 5.613509356308322 12.347734384554604 -0.45520455873428706 -0.6648104015240099 0.5158867071056922
P 3.972587895074531 6.157037667608442 12.543442606391913 -0.030260084436122082 0.18281571918007225 -0.1999215256224234
P 2.439564639388405 8.526634740983978 1.4489378137181106 -0.6255596835535032 0.24637184666516276 0.022715696429960876
P 6.45211983936596 7.718970757370982 5.761036924496584 -0.8938345009393444 0.5114618385651191 -0.45191843178384755
P 4.742348274533724 0.9503387009128073 12.602479767868846 0.2573831101740019 0.3219864479766842 0.055278460857330604
P 3.975931270524141 6.277399183794412 8.04149203847883 -0.26028485720182915 -1.0197684193307082 0.3546032055704409
P 4.752919108502438 1.071952856418173 3.7239984680126588 0.5285576177051412 0.07155920029522514 0.3314059415183712
P 0.20640161619986233 5.459669026657926 3.7045564243603972 0.22274443705420993 0.41059489044471226 -0.8234940035425689
Ni 1.33574608057179 0.8138604929368564 2.883961418017897 -0.40811737543849713 0.935270656596944 -1.3596078363284134
Ni 1.8182465251744417 6.527215115974052 4.876656442595212 0.12071149365015985 0.44057318197435735 -0.8815140317007786
Ni 5.674924730133373 5.433733084490868 9.117030687596195 1.1137021306663917 0.3010885214817524 0.11405387912432616
Ni 8.511386786103277 2.2334018357206578 10.32050887019219 1.0488000306763678 1.0042438413325478 -0.5416568740912606
Ni 2.3478606270562374 5.211781618322535 6.899305768134681 -0.10041211997117545 0.11091019128902188 0.4316856496767404
Ni 0.47100950650076995 8.891675466960699 9.269133543428033 0.20507041681321458 0.6604693509464947 -0.5915529875907555
Ni 1.5312569441278412 0.9430661834253802 11.554045890556853 -0.4059841311455782 0.6871628010772811 -1.0871565189673793
Ni 3.9297187926114687 6.8284974017728945 1.4914221125916893 0.6628213961184392 0.4085158964284964 0.33710736277852266
Ni 5.745162649956183 7.8448114441051 7.8914988435439035 -0.8026009621436436 0.4177173604221064 0.42528077459166114
Ni 5.292851714130336 2.9578779520146448 4.675132009126695 -0.04430499256496241 -0.07694360453559007 0.49385132457220754
Ni 0.948085752496628 7.457070009886955 6.9897075762822976 -0.09215425083775741 0.2112210097956427 -0.03215035948029946
Ni 4.923836787147475 4.558778037583425 6.781034086899559 0.6580332307011764 0.020795853699428702 0.46708305533942784
Ni 8.076369482320022 6.977453339257014 9.14154997579916 0.14364290563535262 0.19536913036505063 0.37531009910048907
Ni 4.654339097604091 0.28919206341825754 10.419826946991678 -0.07146355525762531 -0.3567259083403986 -0.24340453650672275
Ni 8.222036115116518 7.253493591000982 4.565987472515198 -0.27648589244172384 -0.2899960111130167 0.6393778203835182
Ni 7.322965508362292 6.208765363243922 7.0255835268615385 -0.05618297494947099 -1.235329965483234 -0.784118844179056
Ni 2.197778215364029 5.3280067212164 2.5873517472342105 0.24392955577225733 -0.34070562165274226 0.04030975536264026
Ni 2.2141977034211444 5.270790843239107 11.494534708733156 0.7871316628634508 -0.13240769904116553 -0.5630106571766884
Ni 1.0265334163479956 3.296487087172748 3.5386168605357504 -0.1610014515184582 0.14878254085476314 0.3827153904256248
Ni 3.4590237977095972 2.6350214321824676 2.5282884515556505 0.5029828545598306 0.4804373651591468 -0.020735432775138486
Ni 1.3058089020175978 3.5148879066371825 8.220541959726908 -0.9555517754434832 -1.0619982745341967 0.1976404428977306
Ni 3.5396793510088207 2.6561090293579075 7.052820772033781 0.02634455143179979 -0.0036774488515872146 0.18276506844779492
Ni 4.107458399060696 6.6952580324400435 5.839911747367659 0.27662678889496234 1.6985175424229972 0.03731236329721316
Ni 0.7659646119676145 7.371025403976231 11.240514774808924 0.4473989466469392 -0.33741769493008983 0.2553761070463021
P 0.27609612486468976 5.6024068265133895 7.901311785665414 0.1337819536808728 -0.7786079416631557 0.33142959566745506
P 8.585013140344019 1.6629733203313553 8.117662422071126 0.1461042226916516 0.2561338111479331 -0.39074211738484316
P 1.9940666195730845 3.0587920174721535 10.392563567617808 -1.7405507082346474 0.7930657689596987 -0.27977459049532466
P 4.001957330627846 6.152495723601424 3.694268560712755 -0.4024864024049649 -0.33392048041010874 -0.11935292273973638
P 6.906467440560032 3.938676515514198 10.319044453721673 0.3522832991880126 0.6870782117832749 0.5750717021062806
P 6.370959625621511 7.749079160004804 10.133862006884756 -1.183529950092807 -0.5467718267203229 0.42043270247074044
P 2.497952050542111 8.639083902332326 5.654213825933119 -0.2176567381186574 -0.7750107112302007 0.4120969289115355
P 6.898005366308862 3.9036656971267694 1.5157836944055207 0.4244050568549272 0.4864306066281042 -0.7076691485607489
Ni 5.192135908133451 2.876204066031308 0.5560646174671088 0.5814194987011794 -0.92302577779132 -0.19400978812367878
Ni 1.5298691279034746 0.9693716091326912 7.100052483809933 -0.607775620097205 1.3420844827326692 -0.17474425502584745
Ni 6.9276992264341075 0.7451338509116195 9.171226713516441 -0.7911109592261729 -0.6119022406710688 0.10987480804597205
Ni 2.7234181162396838 1.4236110688027879 9.167836476739774 0.1128914833851088 -0.20598418687673556 0.42965267840711163
Ni 6.498719824406214 1.9665265781337071 2.599209465338246 -0.8306151879683825 -0.288867039714896 -0.43104493076894795
Ni 4.099699244715374 6.7165258654887765 10.454792706410784 -0.04252913161146224 0.9502151937219184 -0.37530495689416654
Ni 8.028282551325088 7.244283537875641 0.23591073455498052 0.3023049103873568 0.0419244081479278 0.7395644546074488
Ni 7.4892240896826685 3.840420929187781 8.179653649511353 1.1609890886778134 0.14739054560324294 -0.11983037659678716
Ni 3.1017602496655283 8.30375506006818 12.513620778796628 0.6925819152103233 -0.46682620213361536 -0.723426925615638
Ni 0.15144589607368072 4.8487865695077055 10.070392845283516 -0.3658996044198666 -0.6250927712194138 0.3534490373613397
Ni 8.566872399696942 2.226652002265784 5.892564954212506 0.48491159888041646 1.0147377988853363 -0.3273919352629716
Ni 3.733910539864482 2.592431695323012 11.44544206156524 -0.127134109347052 -0.668583495413197 0.26818842831962203
Ni 1.099501909651215 3.343393473197604 12.447026327152463 0.7727926205329594 -0.7960338504490871 0.16729371228507317
Ni 3.165284383208123 8.33298030692286 7.880644138074751 0.38888886622618835 -0.2981988586387832 0.28863692598196095
Ni 5.575831046996137 7.797057949475762 3.5059067530709247 0.1157675193813232 0.35601114166156106 0.5766452172409875
Ni 3.160282837724205 8.400649865551225 3.508822068321461 0.3473632361785759 -0.8948639706451235 0.8664422249693207
Ni 3.421255370460765 4.379524449798524 9.372540271013206 0.27409219539856666 -0.09777288257611548 -0.3497276226456945
Ni 7.249591484344159 5.9984300991094095 11.512749346088283 -0.5341330549103898 0.2340709178106227 -1.764945335028928
Ni 0.551092810902284 9.143275734285954 0.5159810604258108 -0.11467068677271863 -0.6250603753195815 0.2653026221313947
Ni 4.674147020079141 0.35539630439673986 1.6358090706877968 -0.29742135704281036 -0.05371600146621717 -0.422977066159149
Ni 5.937212984744983 5.617258262472844 0.39598542306262846 0.2804921853876395 0.09111835337407534 0.35980351882445777
Ni 7.947699092375182 8.665569563912932 11.320167315473267 -0.9667247613411674 0.4830292942560391 0.03788057709585734
Ni 0.03758278429933879 4.778467543541913 5.807675660249598 0.09200486974408671 -0.35034057363934507 0.05628119109023211
Ni 7.762092190056657 8.783624060920733 2.495353950428573 0.44344407576424916 0.08425787880881619 0.38461929231655695
P 8.45202610123378 1.7298498411172256 3.557359588999631 -0.183005209483059 -1.027893619541004 0.45570643807137
P 1.7702677357034846 3.406385910913981 1.4013501360922023 -0.1605913605642331 -0.4136280208440811 0.02760079243640408
P 4.737941507431677 1.0047519110603729 8.226266251062738 0.28874285543220596 -0.12937816818622233 -0.7190218545694069
P 8.508809413115166 1.4556209598998653 12.32457407483628 -0.08943685190659435 1.1715280405359243 0.6162702878317774
P 6.157289997831054 7.704623981856751 1.3536687358121808 0.9435190126486654 -0.6870298750438425 0.239262232203575
P 1.6925229917579647 3.1619590313458423 5.908326581332097 0.24945151403175103 0.004540311072514761 0.2645598304280992
P 6.899438241501552 4.098969289428532 5.879361775314328 -0.1431651946679857 -1.3501541471146812 1.6690442155542289
P 2.3693627667402537 8.414329768334266 10.216903883146397 1.2344557904083966 -0.1691716460340764 -0.2918040108560329
