# total energy = -340872.5853929909 ev
CRYSTAL
PRIMVEC
9.22302816899802 0.00000000000000 0.00000000000000
0.00000000000000 9.22302816899802 0.00000000000000
0.00000000000000 0.00000000000000 13.49883400330564
PRIMCOORD
 96 1
Ni 1.4159008089519383 6.328731121387151 6.2727999128270655 0.635054510417816 -0.3090633121571129 -0.5258553882826298
Ni 6.786608345298477 1.549690052784302 9.046837706511853 -0.14917026321148505 -0.254678052538013 -0.625427014630381
Ni 7.511879596314994 4.649005597157068 3.6870714482542666 -1.4047324965811938 -0.22821600169174247 -2.627423433144178
Ni 7.000794724005149 8.168845102134869 13.131719564372535 0.7059598791791262 -0.3279290387133643 -0.1774014901430364
Ni 9.218471801041677 4.934273852481417 1.6672412335606022 0.32514659087222064 -0.4487909418984593 0.12817334924484378
Ni 7.875737273030187 1.3902331220923307 0.05974954214250669 0.20966214994895505 -0.8342106186291247 0.1941987642060333
Ni 0.513825956224568 6.3851114914097105 8.463944182979755 -0.5391737026580907 -1.7665702722268608 1.0872408511510696
Ni 1.9665340252265682 7.865453596835985 4.19774589581914 -0.6591755718357357 -0.5493642700378474 1.3874030041638106
Ni 5.640702457341205 6.941407646862133 4.093008267811095 -0.3498538638109136 -0.6618482335718924 -0.09598082367269921
Ni 4.750735595741858 0.5009432307464868 9.825058361143537 0.5410963736021004 0.16057953348969117 1.3593160161196074
Ni 0.570887908014617 1.7575586573268234 6.804451215222515 -0.43862865665347683 0.029163766048149773 -0.554516246552432
Ni 1.51877446300586 5.432750845546891 3.565203890384795 0.5261307534312035 -1.0192097186137608 0.7079481132537485
Ni 5.171231887262962 4.260310306100186 4.197097516952367 0.19167136979848926 -0.1367379509854032 -0.9970246978762894
Ni 6.719769061550156 4.264977158256478 6.016511333708815 -0.376587423151016 -0.6953962447306669 -1.6903576323200242
Ni 4.438204069717905 6.927619220036724 10.18920287402881 1.047750763476247 -0.5318540290682259 -1.9520434836344378
Ni 5.144383652822317 5.554190454918237 12.073045997323224 -0.3497512767947783 0.1459000771006455 -0.2711022595323073
Ni 1.4586772127086254 6.97942496818276 1.6045117310787713 -0.9011312917110738 -1.3752046623254057 -0.7665841777294023
Ni 0.7324071077622147 2.3223676676018905 1.470859910363263 -0.2770957581115809 -1.9331291632284389 -1.1008797820907428
Ni 7.350006232293085 9.108450300305687 7.188790470165925 0.6989952749358349 0.9645231257041582 -0.7523634061443301
Ni 2.578832406554499 5.9358116835168655 11.329085202414394 0.4014715879872054 -1.4423335947634193 -0.5289754219688504
Ni 6.680608084760399 1.0962675513858002 5.129125075337395 0.3739160469664399 0.6107634990809352 -0.5269941298727634
Ni 5.61614153383882 9.10638434203887 2.7923953085699353 0.8677887116948861 0.29855444220598903 0.7150266173670846
Ni 3.5288319572552407 7.628458669942533 2.507705337099735 2.2785974963771465 -0.9129753355338535 0.5189005542313514
Ni 1.3019318522418517 8.338161449734105 7.789569289550755 0.6998748493273108 1.9736322655488072 0.7069782931413114
P 2.5748480584684943 9.156410045785371 6.2066560453882005 -1.8166062537383294 -0.05866666060327315 -0.2128318059261883
P 2.847388535184774 8.457313748167188 9.554123613598028 -0.2468135621882717 -0.1709973863889055 -1.0979314980956962
P 8.938469894692116 0.8690840816541341 8.515402222971062 -0.47914050072459413 -1.0188147971681873 1.6464038524468934
P 5.653190437221876 8.522981707362447 5.662423610529513 0.0681368048772375 -0.8358188436565089 0.2250077791670899
P 5.0334767414005475 8.151681047069927 0.9425058404695414 0.7671475064320401 -1.0614012643801463 -0.6324250432147688
P 1.8724868089465039 9.043879881439674 2.425672959365129 0.8267878438024922 0.7568147570474644 -0.4243338372973596
P 7.446405320707248 2.457724826190321 6.895366291201637 0.02237271126824534 -0.6714230217445211 -0.011540396539431737
P 8.819243812035216 6.4214686676945005 3.0696210834984603 -0.5804558492363293 1.6327911467594651 0.5494642859508214
Ni 3.3176707317249794 4.319411469375919 9.675599192778483 0.5348295667567821 0.6257442887604837 -1.4861022552089374
Ni 2.768614653234393 8.019183027154325 11.599682387135948 -2.484121455788012 1.9744156806820512 0.09414222780206367
Ni 2.751976310764134 3.1107613220920523 7.395997783602506 0.2172024241900582 0.6029424603746196 0.09519792276008765
Ni 2.2922268121735048 2.1848984356067587 5.183781661431079 0.4339307369571752 0.34730615768839546 -0.7330701051323568
Ni 7.2998421831269305 6.089863919814396 8.889400618946816 -0.7481028310957631 -0.3504269627055642 -0.7099283769085708
Ni 6.087087788393361 3.032596159988145 12.949538937351171 1.7635638813003691 0.875950421570072 -0.8394934642946188
Ni 0.16327434197159466 8.53829193380404 5.630133789582518 2.1547024627926827 0.9849492547689941 1.123000782359498
Ni 3.0823082807834323 1.9994786811599201 0.11323295907753317 -0.2847090516824645 1.0239775723160494 -0.9128835471509955
Ni 3.8085571727654957 7.126689055889319 5.987705050428681 -0.17741743098263638 0.6275332623401063 -0.7485355477578077
Ni 7.763400792272003 8.26369472184892 4.264875704948732 -1.1650876842272193 -1.0354688607851006 -0.7283516166107649
Ni 8.816633695117766 3.561057217006397 13.3977679516959 -0.8261638370652481 -0.31525195746632806 -2.368259834030986
Ni 4.403949743811839 3.017682523749558 11.341625753554531 -0.19343463234649913 0.649616467392391 -1.072035861275857
Ni 7.18538440593407 8.295302038725627 9.390126186233049 0.2557548305419595 1.4135773485663332 1.4756586912781102
Ni 2.479113028068664 4.172433295536642 1.4296477321514514 0.6013545470622095 0.23090074761275717 -0.134772085508284
Ni 6.387832284662884 3.922184877440439 8.350567344665784 -1.2148081913807982 -0.664968524368429 -0.9988069865876927
Ni 1.5366579142529957 3.8538145710479594 11.071581028208794 -0.21320641565678763 -2.276754272520821 1.406006478197611
Ni 1.5102892772671466 2.1002033696952327 9.092247284755935 0.22690319641758988 0.3413486545533798 -0.9059701078606138
Ni 6.896353155195161 0.6262555895653165 11.416868138092573 -0.3565739561435666 0.4873834574596767 -0.18357136639917418
Ni 0.14824634018609534 8.922172804257 1.2073017405936497 -1.3891742371316202 1.0531786193600379 0.8197623044142784
Ni 8.532684332794107 5.849022990254592 5.160360704186634 0.5720326581696406 1.4118534238966909 1.5753074507206999
Ni 0.5125965265952522 0.9573410809703243 3.6896631191157647 0.14154719944858848 0.2638265518065005 0.278843594040623
Ni 2.981897175199333 6.553726888882705 8.281224008821743 0.24429825196558572 -0.2033485490261014 -0.29366009022816525
Ni 7.384509579954527 7.633872587364951 1.888352261672302 0.33768997475487 0.02044772633139059 0.4010424708695868
Ni 6.137251837559514 6.378747602105674 6.550403831902642 0.7270730070086575 0.30474385884615257 -0.12366440563089669
P 4.300965413422194 2.299789695114532 4.037149921172026 0.34259923913102935 0.15480123624501727 0.11755752140221044
P 4.08587517797379 4.099599043603361 13.239736901129152 -0.9548650337891039 0.774071487245383 0.7131240010277331
P 7.043137645446923 6.874476132834044 11.100131833613968 -0.6076712333088568 0.22770100972853688 -0.20187607824563295
P 3.6551321023703927 5.818273414979734 4.036327227076491 -0.1157675193813232 0.8274144216428977 0.33534847110588695
P 0.9930618683247118 1.8969555021691193 12.793276863550386 0.02362175318399803 -0.29160295058882035 -0.5749251492260873
P 7.731415331248246 2.665086164194115 11.29213867464188 0.22165608908603762 -1.0029055821370987 0.9232885445344035
P 7.776764959810477 0.614666854912389 2.8514392890722116 -0.17614344936621923 0.2424246890919567 -1.2445314294768437
P 1.4195623510587525 3.1108996675117053 3.1591185800775388 0.9351282174818089 1.0810267519205576 2.3799498687744047
Ni 5.072702279386143 3.352293978750121 1.5321847456842175 -0.5331460084067722 0.5600088942358872 1.2112955502418492
Ni 2.8154215202169692 8.713557134448353 0.4087673668429278 -0.6255864230263806 2.8876620104891044 0.3249776693945242
Ni 8.71779972731771 5.260805934974249 10.61021842202501 1.3972973804593871 0.6460788865527777 0.9836745018216283
Ni 4.904953846542972 2.3438112076480953 6.171774553579707 -0.4411110567556984 0.2594513055569403 0.3055720111744028
Ni 1.3284203885913999 5.105812949823079 12.962106235272444 -0.02802579578896464 -0.0035476081419422776 1.9343910606599977
Ni 5.643192674894958 6.020681986959953 1.725394269560314 -0.5118976405509571 -0.48877776670404205 -0.17617507393510304
Ni 4.086539235988123 4.692510620123927 6.2313184221983295 0.130865037144394 1.0274807003733013 0.7985206214266829
Ni 8.700331312329533 4.523166603440759 7.316313588790809 0.5929768645214756 0.3144508017212714 -1.0878311764369006
Ni 0.315185913475695 1.0592186480027448 10.725660296303001 -2.321422047741841 0.17991757169667077 -0.04508403682283203
Ni 5.352436717924375 8.172368298822029 7.873545881582883 -1.4911457311701157 0.03464587220864356 0.5272095883176791
Ni 4.891322211193169 8.244639946048723 11.948250128071098 2.5910060708574085 -0.33097939550391386 1.743451169710894
Ni 6.7245742591261015 2.510997035784677 2.997334679427005 -0.06931077058068064 -0.5093039116818519 -0.10460996010260692
Ni 8.577231557922351 2.8473977582127503 4.884296108480397 0.345151830349554 0.15612921102782143 0.054064643054887535
Ni 2.5846244681239683 1.4131431235868566 11.07469933396777 0.2527666944479131 -0.4868427544648583 0.8799623709429426
Ni 3.805827156484345 1.2898312395362084 2.1976234473064356 -1.610414064615846 -0.25180793007906954 1.3629189029795172
Ni 3.556980638640624 6.705851512333071 0.1625097529523128 0.4900021260294465 -3.1259346250859004 -0.5997833459203477
Ni 7.404551219748248 5.526871846050771 12.870206139905392 0.9140012056952066 0.8672927458950741 -0.24665903888827842
Ni 6.635415247673774 4.279512650348013 10.598528234064338 -1.3942305686086054 0.2133077171213423 0.6487194094994182
Ni 8.476709776002531 3.203508091427379 9.146809795964254 0.08929389857082687 -1.5678443095744354 1.5919936531271293
Ni 0.2089606110549818 7.6809469221588555 10.448637427989967 0.33170521792634483 0.24386065020753486 0.3979854292108178
Ni 0.6158234226206876 8.863827929275368 12.486799333090444 -0.04942303051781811 0.7676516997619681 0.06409323093548316
Ni 3.386133268397228 0.7974377557242728 8.034789312793974 -0.3916309477476997 0.3998523072162275 -0.7505343233553913
Ni 3.8499870144375614 0.12045920149740474 4.5817070066155 1.1902484997635632 0.8674189870602932 -0.8322118430315409
Ni 5.4073137343867055 1.0616996425285206 0.5192813772728819 1.0028677869206277 -1.0978685060682447 -0.247567923855793
P 0.9452127991807505 4.261186493757988 5.699140484905401 0.965184413437241 -0.8480966325825975 -0.21877413955255223
P 8.356238584568755 7.208322076512526 6.92047414026305 -0.06734799042735497 -1.200517485789739 1.1212917700881915
P 4.6503890513535975 2.6764304886056554 8.909958748307242 -0.868206515958595 -0.9803531507578793 -0.19881106616706404
P 4.50162161008681 1.0436962919176855 12.084709438502763 0.1543255821601794 0.22412100568676238 -0.09822076874681149
P 0.28641098849068247 6.858538740490026 12.858516874247519 -0.7956795524334619 0.056724706385553915 0.09661511482258844
P 5.049672378527918 5.646328504407091 8.369209851115414 -0.7713384045849361 0.8301539320612478 -0.2531875840354156
P 7.134510183613698 4.426251025459891 1.2044997846942787 -1.0796409273166243 -1.0252669805514343 1.2653169987636272
P 1.0471825964929395 4.26067922721926 9.123483835907972 1.1559800654989962 1.646434962795145 -1.584463663298671
