# total energy = -381164.2259574977 ev
CRYSTAL
PRIMVEC
9.25093709944351 0.00000000000000 0.00000000000000
0.00000000000000 9.25093709944351 0.00000000000000
0.00000000000000 0.00000000000000 13.53968154408622
PRIMCOORD
 96 1
Ni 6.31890823659095 5.012352105329497 4.6363394324393505 -0.47035015612647385 -0.5481453100290817 -0.49914136932655323
Ni 6.905991220285603 9.208836296301072 4.326496863954534 -0.4440428856905127 0.2556486439813984 -0.06048160232482487
Ni 2.8055965151738564 3.6231018454360053 10.735085537035554 -0.6014705038147835 -0.3210384822411181 0.341052977689832
Ni 5.038060460119567 7.748936628155773 4.103850855291513 -1.0801726314503786 0.3872497879608685 -0.32699058605949494
Ni 4.318938848170624 0.14324151333913218 12.499387297432474 -1.6178396676559559 0.28840552669744524 -0.06280870779610473
Ni 3.0234190851223968 6.177119120409803 10.185184845679053 -0.3244171689053639 -0.6768526774005246 -0.397212041379903
Ni 8.985009868037038 4.300140943552623 8.14262969243663 -0.8407890431775907 -0.7433300922974682 1.5985106283100405
Ni 5.013628734678554 7.23380743487392 0.05601535051793976 0.5736262279090056 0.1583007647578435 3.40765939732906
Ni 0.8283354025733165 1.0891498534919521 11.50497906823399 1.6856196034144066 0.26442484751213174 -1.6280022100112543
Ni 5.373906488294707 4.081125002690834 6.550769103910463 -1.3808037536797382 -1.2388060969572923 0.13213901876081113
Ni 2.217958475240483 7.695975012044528 7.278756814179236 -0.23114525952339549 -0.4779397955482736 2.1830403905054276
Ni 5.530580362610875 3.3955195366232953 2.211449515747754 0.7070168596887308 -0.01341215964084787 0.0922727786934927
Ni 1.5044891859891762 0.9156873781419521 6.586635912962849 -1.3682200034774565 -0.9053409589170471 -1.9351960730597966
Ni 0.6948878565664072 6.858543162812314 9.219657117674927 -0.22555079615475349 2.062186971960765 -1.1959753749450113
Ni 1.7592044939380052 4.922460747468715 8.259029611164971 2.8589936960201343 0.6411397973799474 -0.21788273808653447
Ni 3.0052132404923655 0.8916645441301297 8.11878632660866 1.4570043094017164 -1.2048482519546089 1.7167302087762821
Ni 5.542791599862725 6.05815206657738 2.20611542529365 -1.3656064771140093 -0.382893824985018 -0.8522481928571257
Ni 1.154618736849033 0.17887797405244948 9.392477577975473 0.6179206789510067 0.4099014639221134 0.983923641717957
Ni 8.47461715465893 1.861815890602798 9.39171900111589 1.845673346307615 -0.648811197882276 1.2524887366507074
Ni 8.559124467004123 3.03835934888129 1.5583222403952133 -0.9692999782675112 -3.7963600588038426 3.2044658858235846
Ni 8.858105509990912 1.6499879280324383 13.233576836075217 0.2036714795831589 1.8047192724927563 1.816419848759136
Ni 2.9484957438324444 2.3422170652153746 13.37950759689095 1.079826303854553 -0.27617196074573086 -1.3101380117330599
Ni 6.954318116803533 7.05050011203648 8.159973349709183 1.6944464576774174 0.5853116346667339 -0.2624304427899222
Ni 5.800152675882788 0.2741172987733032 10.553410079539953 -0.367647954569541 -0.07588610980535318 -1.3375338872475093
P 3.485484901982574 6.968222275583481 1.4706668340827438 1.51033670227627 0.9214052114687615 -0.9517902515185223
Ni 4.3527880277952615 4.632203338367152 12.307977078603447 0.40363697106964036 0.17886881871718227 1.0585367983481575
P 6.668232880429685 7.906498592453895 1.399420740374314 -0.5544275434933678 1.3140342614636724 0.2952006952424077
Ni 8.31548253101777 1.344003925500461 5.679883090076834 0.705373924768669 0.6726306688993771 0.2427658744814593
P 3.2826025957929255 5.2529319810655775 6.283738948211889 0.6220005054473352 -1.0018586289298228 1.3089735591113134
P 7.652023808875177 1.064597865865883 11.614379727792066 0.15018044964355426 1.000960799705902 -1.817928314983863
P 1.0259289479016893 5.3213889171744375 10.471278407896483 0.2376874315172874 -1.8609089323104466 1.4721455359185291
Ni 2.3055370987732626 6.580959537828201 2.945192234118326 -1.5683580159860602 -1.587114984878589 2.7704688144048477
Ni 0.09980466228432973 3.4982141917238967 11.33792656734748 0.41439035293140253 0.2831147106121511 -0.23855466461358915
Ni 4.018292636467676 5.434028329885447 4.146445871050923 -0.26268266801004436 -0.061547067474861744 -0.16179669372624392
Ni 8.888282067502681 8.717778041905062 12.553559861237861 1.1150658437831378 -2.055183286949422 0.6630921332813224
Ni 6.525574176141209 8.872694238131947 12.615950957751238 0.06827024513130822 -1.0164573526796041 1.8955620036079421
Ni 0.17959584678786128 3.5592796289204616 4.029314203181202 -1.1974401324159956 -0.042931252145887354 -0.21111636589697838
Ni 4.333351808502733 9.194811875336066 1.376160183597001 -0.9172096853301752 -0.8115867105820217 -0.5457971215118794
Ni 3.792764035738232 3.6647125614654175 8.606295921451784 0.1985958648324644 -0.626143066860799 -0.32083665064295713
Ni 4.518870105357742 7.060768652452809 11.63696404105187 -2.149562570462956 1.2601979323695072 -3.7863175869661765
Ni 7.15572027302326 6.937509163707614 3.6265635461781587 0.024315693927229088 0.9821894326356698 0.5369818372130946
Ni 2.3180536169564094 3.9200939369007104 2.9930417822709563 0.5548744012227992 0.16154523983707017 1.1236576992172067
Ni 7.073941987185109 0.020538005926389005 8.477722694314572 -3.775852939989426 2.4111913432871894 0.049342554988869865
Ni 8.568541921187748 9.085854335675236 1.3438346333476514 -0.8363742019393466 0.2435266639068838 -0.11123492161829229
Ni 0.5799024061530723 4.880294975200583 1.8776969746863224 1.1007756524127106 1.0482367019737302 -0.14251290579596745
Ni 6.162585897892638 0.8154719742409693 2.285078650907757 1.2143502779077733 0.5381876845957376 -0.8167065483070902
Ni 5.257187412229102 4.590287341406444 10.166215798720783 -0.6092717450267572 -1.1021306237787083 0.4532392074778001
Ni 4.352140462183421 0.8427539134678121 3.850631423906036 1.2986269257696668 -2.9264941528649535 2.373407439670196
Ni 2.8315176415221024 8.237275106982054 5.273354350275566 0.8397215211450249 0.6218506101330322 -1.4502263672479347
Ni 1.6724214510140578 5.591174002004527 4.992080526397694 -0.8827216788556346 0.1629331213235323 -0.4295655180099441
Ni 1.0353556530226256 7.424136219131173 1.2659491419303937 1.471845488179607 1.4421379338128453 -1.475038284085292
Ni 5.774805107647887 1.6893321644204085 5.600675639717691 0.9000673692229337 0.7563915534671167 0.3152851246971086
Ni 8.003170887364378 5.69604262737345 10.226156321940206 -0.16582895481408857 -0.5271980183534534 -0.2517289972120181
Ni 0.4433058410851555 1.2779799859046599 2.8198827376647904 -0.3206178497639317 0.3142237733121298 0.26457371438517013
Ni 1.2872031704047318 2.446798911527625 8.14452520949186 -0.10592996446561112 0.6111280815092056 2.272240958031499
Ni 3.5191213100490346 1.9710694602576129 2.361117655237538 -1.0200365853904303 1.6220084543216646 -3.3197112141528504
P 4.90493022126246 9.08319006572938 6.378016175452294 -0.90244718230902 -0.7152698437261423 -0.11356099864830765
Ni 9.198058954332582 6.353608502448291 12.25648543643108 0.4689656170741214 -0.026570037179044565 -0.2661760258752835
P 1.5274130086483322 3.701364775095593 0.4220453369546987 -0.5765696268080457 -0.09043392571254102 -0.5638614352127579
Ni 8.3531801005642 6.539644851792773 1.3287546804353472 -2.0299679640260586 0.7701695810878156 -1.4793315121440072
P 7.356012316765545 2.1529706406236264 7.60177271739635 -0.20361825774772027 0.5820370776805203 -1.4986006447862643
P 3.6894958225242864 1.556951251485574 10.277417615773505 0.06703354451072972 0.02522560733600817 -0.5985435599759756
P 0.9857891309048866 0.15678026009525592 4.670107203815642 0.08276021121736714 -0.08289519413333465 0.11101663495989912
Ni 4.727265970185346 5.9769010841660135 8.147612247272876 -2.2629587613986253 -3.89220615667089 1.1636892612177958
Ni 6.950997030308522 3.8562994731971028 11.719028180852963 0.27144113092896477 -0.3245405818571056 0.19232494422208812
Ni 7.838050907282347 3.954165139020836 6.103512187499349 0.037960538404173336 -1.128165100169257 -0.20358843295104936
Ni 8.994223801599796 8.900262031321732 7.978595772395029 2.0102200919751705 -1.6765153271202935 -2.9205896144550603
Ni 5.135500582826948 6.44122412973032 6.0795605857048285 0.39553542500842853 2.2506699167289432 -1.1535411170402006
Ni 2.170750942137306 8.147115471939223 12.22929785676482 -0.5073030792017392 -0.012895110795113275 0.26157812209195597
Ni 2.274407694718356 1.9463232029479913 4.319118316354477 -1.4129919083765083 -0.5516764631107919 1.2053218491569178
Ni 0.25704191868279885 6.247990551157097 6.778764004527288 -0.08468133949947997 -0.038469102609475676 0.5827575007863125
Ni 2.3824031368987373 6.0236275685289655 13.48737815141762 -0.3362984937239821 -0.3005581028995791 -1.7118656815951292
Ni 8.545359072283857 4.361067616689509 13.531124908872373 -0.3616156323325321 1.9114478216002626 -2.9221651864722964
Ni 3.4993520570132737 4.313813828899772 1.0732909716579768 1.529224283209392 0.2789508090424486 0.4223250343974468
Ni 3.1239397699546765 8.703337328761018 10.105152211711678 0.7102255964340155 -0.1561207263873892 0.8234695780625366
Ni 2.390451452360184 8.872833002191628 2.781998299184655 -0.056232083019851546 0.8296065441982099 0.6837010677809258
Ni 6.543123204222088 2.177716897933248 0.007560791065104155 -0.2652206039405497 0.1809151597232497 0.6453620629914111
Ni 8.318119048151692 8.09638333172017 5.76906860142071 0.3956616661736476 -0.1667021014476613 0.45366163972719936
Ni 4.211498462228963 3.0765934727918194 4.429778028480717 1.0934968593631103 1.4928496012351 -0.3543738631684542
Ni 4.856862350989266 8.007389314778655 8.551622881937817 -0.6162756871484161 4.156792212351235 -0.12945478706042865
Ni 5.0815676182979415 2.299977285448746 11.710118603127768 -0.7377726528143488 0.8987607345963683 -0.21850983014757205
Ni 3.2846193001269435 2.65326133045702 6.558635175906863 -0.3550287231436337 0.552252647329236 -0.7289167450856157
Ni 7.490363679347838 4.88359755982097 2.676496909703591 0.42256928919776904 -2.4559532208839125 -0.39271441061986556
Ni 6.38801273831165 2.634676197397196 9.48529223202685 -0.7500679252419341 0.8785600912787772 1.202637103235903
Ni 9.137770595870226 8.011802011876481 3.481932542054763 1.2466320207596144 1.3408133293297297 -0.6033515228875802
Ni 0.935547290363371 3.6997273591913675 6.282981296446036 1.0438534853043702 -0.5222828404400232 -0.999043270968215
Ni 6.8704306172582434 4.784769796516788 8.202934702586148 -1.3526979965824575 -1.1736661699248496 0.6819424332186063
Ni 6.513085410769998 6.243568603121957 12.137350015539578 2.4254316552562876 -0.6908189097726296 0.3315496661850871
P 9.149648799378845 5.918425909416811 3.6034103002736644 0.7237454852973213 -0.7940224764460132 1.0676883829404387
Ni 5.111124363009807 1.6288495362745001 7.941836247892034 0.48879730708806785 -0.6709262846137607 -0.5207987996953288
P 7.391674680103336 6.136914546851815 6.2640659049241725 -0.19495286876323845 -0.43418604750109097 -0.6714466758936048
Ni 1.8680972770376516 0.5660343260286411 0.6954688154296014 -0.8798566986030136 -0.7599967543198718 -0.5635852987332358
P 5.8766116727665345 6.495980427680095 9.969010792759512 0.7300606288820717 1.9545220270819181 0.32273541032756675
P 6.342433370175386 4.643526485637049 0.290471105753471 -0.7484041643862659 -0.5982928774177503 0.46030382763406535
P 7.4113884275152255 2.0820807080017087 3.643677780205373 0.6647769771829132 0.6763248299215127 -0.27615704834739535
Ni 8.173887684520174 8.216747277086707 10.260505977273423 -0.07367341842475054 0.008604710949875504 0.5708381236409072
