# total energy = -340876.87780294195 ev
CRYSTAL
PRIMVEC
9.16876424304500 0.00000000000000 0.00000000000000

0.00000000000000 9.16876424304500 0.00000000000000

0.00000000000000 0.00000000000000 13.41941326258794

PRIMCOORD
 96 1
Ni 4.744340271857998 2.6001789598073644 2.016897950448812 -1.3783856311565488 -0.7053911511598496 0.34923937015536627
Ni 6.923324549691566 8.747422647010577 1.1350288054678501 -0.690251981525566 -0.34161167840677936 -0.40236787454922956
Ni 6.810319533031568 1.5006241023685234 11.653807151595819 -0.8342041908712214 1.0618406659104098 0.3297781761069611
Ni 7.631226482858723 6.6601260094690975 11.860278548769571 -0.38786839538147394 0.4511702407639133 -0.6711823664886247
Ni 9.01151972610791 2.177269718960107 12.530846191686194 0.7077635080467681 -0.22054023031403952 0.06893127575407482
Ni 0.9649849077821429 0.3651643649913005 8.786829994808118 0.0405187860496528 2.0335083730791497 0.3041566188841149
Ni 4.533073611096968 7.469168578642456 1.625627363637145 0.2484073890379528 0.965792222224569 0.48967533881764697
Ni 7.293238334449998 4.046551485415059 1.474994656277676 -0.15456495186449506 0.38292210711979213 0.7475734409548545
Ni 8.742398164322571 3.622166073559099 8.820673736592733 -0.1226796731201242 1.1782213933957 3.5484568630958178
Ni 6.703888520180511 6.871493526634449 7.487120101735244 0.9580393177520274 1.2438495729184706 0.7312466787703729
Ni 9.160392947650173 7.7174587085534325 0.8166278876547234 -0.10051907786268495 -0.4310559865125415 0.4493226460322133
Ni 9.244773083010982 7.8150785391724185 9.843635489960771 -1.1843527031044183 -1.6316950854818093 0.2610621016874859
Ni 2.9850836737535515 2.6861727976373144 12.554625381195946 1.3351468750725717 -0.6580797676683957 1.3118351969298248
Ni 7.129355846191919 8.991724364568848 9.940094555053662 -0.3704070053719169 -0.2854855248371728 -0.3400047389309757
Ni 8.751246021610758 2.3880229289355013 3.8295781859222493 0.5731528878170129 -0.5786283091092874 0.1994129614171211
Ni 5.336853309717561 1.1823121215664802 0.2849358459829173 -0.9957257765592078 -0.8273200621568784 -1.0888346780007505
Ni 5.570757648866707 5.116399547399263 5.562159181960116 -1.310326473594782 0.15809970449063096 -0.8481699090226941
Ni 6.778623115782593 1.594246351870775 8.212345497659188 0.4693453690110433 2.1978602291270795 0.029672330253452128
Ni 5.7917523682627285 6.100886416271534 0.29349030282216915 -0.15495550243469441 0.24535420403392583 -0.5796629210213888
Ni 4.8309759231699925 4.916107897181196 2.554210444470523 0.7219061180957373 1.6556225428316842 -0.21695122741120057
Ni 1.5638794054060352 5.971313443010755 0.3314123108469769 0.41072781647815065 -0.379336703761379 -1.1620391272088826
Ni 2.168687755828767 0.5116958842005045 12.553551718928126 -0.6927402951650586 -0.3288726335735562 -1.322432769940013
Ni -0.30518781197063377 0.8703045829109206 1.2767742298538072 1.1845612195707986 0.7813767626575446 0.15688151581281368
Ni 5.735841245212613 6.646482888593635 9.857068646139966 0.2796295802770281 0.5277952856178201 0.06116320177288175
P 5.473376206112481 3.3047801379240056 7.69565722144478 -4.9416903578984765 -2.30171814155501 0.7109115667574466
P 8.52571276402028 1.6021498264639529 10.263381507217952 0.16817817177255553 0.45352177171522534 -0.3789063010921797
P 2.573277806145666 0.7051366339359468 10.275969303353653 1.3454428576819408 -0.646821421145757 -0.9290035926413097
P 5.963932587967241 8.06886075873689 12.617965036862527 0.7887182906242803 1.3021956169575315 -0.34160936441393425
P 0.9961403679533946 7.7716002601459095 7.537026601222632 -1.2462944349145373 0.741816226756103 -0.5223460895777907
P 8.20723574546571 1.2314566967630396 5.844838595115445 -0.9408813179155022 0.22104648052649675 -2.977491469848427
P 1.4881270769967119 4.01779824141946 7.20218517262873 -0.36298654453812973 -0.9992247908514018 -0.7338843735035361
P 3.314324821278412 0.9458680347812425 5.157134532228232 -0.009968681176937671 -0.20028687938164214 -0.11439429318288041
Ni 2.4346185877319404 6.472835666644449 2.508477566369232 -0.34122524160163814 0.9524546245753985 0.5159188458952082
Ni 2.7037493182813077 4.085683770291722 2.0578263961987973 -0.38167717896909753 -0.6427320815677318 -0.26618245363318677
Ni 4.512746461244212 1.2629789074954596 6.966809246852895 0.7945593227860897 1.5922602765249547 1.1747979695364479
Ni 3.9644360347694647 3.932657098644227 9.493859061639693 1.1314309154047224 -2.3071102591048587 0.1409890129522733
Ni 6.639312915122793 1.6559613025513795 2.8665608949007746 0.7591806861764796 0.3297087563216064 -0.03737484110403241
Ni 6.852550860150104 6.691153106943941 2.550695140341724 0.5019076192177808 -0.40594119372278475 0.26411631513277745
Ni 8.00268978873809 9.060480926023885 7.503089338044918 0.3605033731049598 -2.1693981171316445 0.7184060753622789
Ni 9.232945377413301 5.531643701518103 2.199146389933799 -0.051192463713415064 0.5497468501882468 -0.1378836345540722
Ni 0.06593441588684662 6.469892493391073 4.534943122082524 -0.1411785032552601 -1.2691335442962401 -0.7763916507381274
Ni 4.424763001619923 0.3111044153986823 11.412781433425186 0.7518247600320407 -0.42906723821728693 1.0791709296587415
Ni 5.6499482637869844 0.7302379592187118 5.048302220077926 0.8952534927740583 0.6517373703901357 -1.419973224790348
Ni 6.563450561545119 3.5609554049001004 9.974810246297455 0.26762227140350686 -0.6896081772939802 -0.4541444929008889
Ni 5.240572118646838 3.7899544552936204 0.1908239844815061 -0.5943107528415507 -0.45327854535616774 -2.0043921724394833
Ni 4.767289688223108 5.646849221545112 7.839567391018033 -0.8151798272499188 -0.5474248869232895 -0.1300674809437631
Ni 3.0050532418091684 5.1449144035301035 4.386792399145761 -0.3661654564867436 0.29817983247538965 0.914685890467057
Ni 3.956156640851089 8.204246728392189 9.100670369393116 0.3321286786170087 0.5390826856061812 -0.45795872444065644
Ni 0.7967298359585344 5.860591448594028 10.956615251691181 -0.8475574722496757 -0.3137046675838662 0.7343980799151609
Ni 3.9677459585840094 7.423838209282048 12.70600992720581 -1.1414700448082793 -0.9910538250048352 0.13931471057364395
Ni 2.431877127287207 8.601080004340375 1.1126038424052112 -0.6631173300923031 -0.8207820039280446 1.2022866618750196
Ni 2.5577275823521277 6.4200419233642645 8.29331760343034 -0.5677782537686609 1.0381708330972959 -1.6608328833880301
Ni 4.634397622383754 6.903547525680564 3.878907970152199 0.0031717128597622797 1.0029942851961628 1.660352344207186
Ni 3.5563985291775837 2.906910791640517 4.018899409979368 -0.02728608940946269 -1.1282725722813989 0.693546850226754
Ni 7.8621051298782305 4.279667310857694 12.249817156056123 0.5921775085486317 -0.0043258810688635175 0.6673529654402055
Ni 1.6486171225639832 4.547752802307731 9.18217976473638 0.9370364902481153 -1.0205235523291778 1.5513349990655025
P 1.068555266256086 4.19766188538045 3.5673634540801142 -0.538562294326337 -0.6161504744244615 0.6153449478040306
P 1.0146154274722503 8.208033427936252 2.8804369023825793 0.10401937770645957 -0.347159347697886 -0.5701084445637342
P 5.993611877129791 8.750374989027984 3.167974843596986 -0.5124306302362917 -1.6119932361775076 0.030169581604844814
P 1.0740290183815235 7.7434429858122105 12.250421377605646 -1.8412777883430806 -0.20105023991022794 1.4307834280319747
P 7.772462123964655 5.852440417372062 9.639325170468704 0.5775507597743924 -0.4754663943071166 0.07517365711936086
P 7.8234312832030275 5.924910328258928 0.5307669133812589 1.9242241474293247 -0.16144162437967036 0.3908369910914946
P 3.5954391264139547 5.849882332207913 10.051502373019773 0.37786783252533634 1.9546870919048724 0.9167492007539889
P 0.9828731664031294 4.105891726212099 12.343068987491593 -1.7662272870651452 -1.3497597398897399 0.6796209841742811
Ni 5.785893528048065 5.0164325131888 11.579464062217784 -1.8722788647102853 -0.03385140133180622 -0.3801877389077646
Ni 8.862784036026085 3.8923787182639127 5.900408640143674 1.7456538337891678 1.7157105092625162 -0.4011987939417929
Ni 0.6779998430386974 3.1446201678617856 1.4400369096635115 -0.7444878600509953 -0.18671145469005265 -0.4473770922700682
Ni 2.578641533102753 2.13377310240554 8.289587750223259 -0.417202625569217 0.34562337066933385 -0.0008088690545405425
Ni -0.11984033024377416 2.167064884595597 7.417540185270385 2.0734514891309903 -2.16872500232402 -0.05818946385653849
Ni 1.690014092155861 1.3037248948412636 3.0532919431196417 -0.2804896142844783 -0.3664637044534527 -0.9815646545674773
Ni 8.232404002725888 8.979704114926555 12.289538992459864 0.8095503968782832 -0.4868604950766712 0.06073588442747605
Ni 0.016590878510853398 8.474596904557439 5.587427378748213 -0.2854366738771084 0.8500141613202845 0.8849382268909791
Ni 3.4950136540020305 3.4454656531881858 6.42812693948522 0.27032167261254086 0.7605775665240062 0.24681844728427813
Ni 2.531184010487568 7.695536193759594 10.800735260677795 -0.017085494727377026 -0.1896841641651314 -0.3830540047119661
Ni 6.766786241420884 3.026553993457663 5.898140287922847 -1.114249261419113 -2.4269776595871684 -1.2407639920146116
Ni 7.5860428137227816 4.448381737759166 3.903372066334934 0.22147148387905727 1.6088806586904552 0.06846873429535949
Ni 2.8402997209683147 4.831975318449176 11.939882674947567 2.467876197573743 2.154786023645424 -1.1780774116186679
Ni 3.913421031710947 0.3160775530081251 3.152193566949912 0.27123312868321675 -0.06894593104209416 -0.38089787760091176
Ni 2.6461236363577303 9.111340060093905 7.087557284735562 -0.6596872213648317 -0.6962398236778848 -0.6032877595291803
Ni 8.229204104079695 8.98067600391365 3.321438865288675 0.32931923419267156 -0.11615292774519996 0.4503590577165276
Ni 6.945751346507012 7.7183847537203825 5.001281130630533 -0.12252335004791803 -0.4946555656410577 0.2680855841931705
Ni 6.9701861026448535 4.468672212555805 7.7115191832153105 2.92249634455947 3.5305884674558294 0.19539381295539895
Ni 1.9980387197171323 8.054218242582245 4.7733117324374925 2.9418667786662818 -0.14227944962892272 -0.4102958711470546
Ni 4.818102978472983 8.110413597317264 6.358037239740336 -0.12562564312232558 -0.5562147173007775 -0.48672859748449726
Ni 0.09814153329224852 5.855411096917526 7.765666236066206 -0.8984313762814076 -0.2902729189234872 -0.31112430845119965
Ni 4.874023270287128 1.4450888986436055 9.481821391345743 -0.9005877605027781 0.7777353092502154 -0.2550955996914059
Ni 1.6569056852463881 2.529359426445755 10.57072672936466 -1.6184212511910383 0.9184188751469279 0.4230752822999101
Ni 1.4410638112347829 1.9801963049162918 5.4448998587905635 0.09962227708002842 0.31272610572068077 0.5896367444046491
P 7.215257996381577 2.114720410752844 0.711345720936527 0.5617765276592712 -0.6291098627986068 -1.3181858217382008
P 4.997233121311636 2.698678991773155 11.375636019713653 -0.6675766514152374 0.6812070977144784 0.5301144206692999
P 3.70802237992861 5.419280498340148 0.6581613883086982 -0.26169639283737517 0.8604448697353052 -0.7453944310256647
P 3.5891768605820054 6.463602721267035 6.070674421918887 -0.7136598189265451 -1.479689152593742 -0.6050124555297709
P 7.582045232606046 5.734777668585225 5.878601651776603 1.3975377786049674 0.2747833079283203 -0.7363163799837965
P 5.7044107221204845 8.841429984602057 8.110116529362719 1.6914480371707257 0.31802052135040065 0.8773665851913084
P 5.7020451810009485 3.539537172127869 3.834261590588369 -0.03259953120257612 -1.5126386109365693 1.0694729856446872
P 3.002348456420552 1.5042274266320026 1.0823652586368804 -0.13814357308367822 0.716384931167192 0.45901699050184175
