# total energy = -340869.4025210944 ev
CRYSTAL
PRIMVEC
9.24680884098869 0.00000000000000 0.00000000000000

0.00000000000000 9.24680884098869 0.00000000000000

0.00000000000000 0.00000000000000 13.53363942054901

PRIMCOORD
 96 1
Ni 1.846032883163975 4.270749546603285 3.7270556903406344 -0.48822857906879147 1.6920967264983182 0.7994297635045136
Ni 6.6103308426047525 1.7316313662810618 9.215609938971046 -0.4302378614866203 0.19949009451195968 1.167782200340247
Ni 3.56991542377838 0.05558164224308924 11.782143057642319 -0.4629950013129832 1.7812520426087515 -0.09837169250237898
Ni 5.673851047597164 4.032616482887988 13.855739902210148 -0.4167434265446113 -0.4564823970054461 -2.627621408087597
Ni 2.9377296085301596 2.8988375312581316 12.941948076958779 1.5413411210775843 -1.0086838793817723 -1.372072030233695
Ni 6.138660379083859 0.5684780775446794 11.388597955905457 0.877517766057192 -0.40902446063379877 0.08845674738151219
Ni 6.307017024564557 2.3714088114485246 6.987810538955874 0.31631870816794555 -0.3051032990681003 -0.05737365282346248
Ni 8.551051046564154 6.662075983930066 1.0692454739119568 1.942577710235848 -0.3830606895801854 0.09854652751734641
Ni 5.680739920057379 6.953692589000904 6.381110777767845 -0.26379261324477155 1.5541943228911685 -0.4581662124657722
Ni 5.539004836741725 5.375160633892683 10.188042250774014 -0.014957392640780692 -0.057722037301816714 0.8581933546969671
Ni 8.915042423106264 2.2836103631133113 9.137357895908215 -0.1261735452059956 0.37149535334008926 -0.5188105656207065
Ni 9.308669821440303 9.237090275514774 9.79620318523703 -1.6466625054249189 0.01382405036728587 -2.117766766108598
Ni 3.8942010038853754 8.550015403992955 5.730941769015432 -0.6618250936434409 0.9696856437417042 0.5985227340403693
Ni 8.479665683620727 1.8394491553899177 11.548050849316436 0.5729700823822456 -0.8851259174217531 -0.16334989714597675
Ni 1.120315598204256 2.9696958261072877 7.080137149497486 0.9448135630903728 0.8956602412941735 -0.01533868723959939
Ni 3.5817420920691365 7.882534520045892 13.59345787296855 -1.1689682502285481 -2.280551534779724 0.9716327401657459
Ni 7.283738930910201 6.7434386534299655 11.435830654599112 -0.9656089025691693 0.08287899618341855 1.0371323645304524
Ni 8.541036752772998 8.278621569486528 3.3839510052255477 -1.3445918225355553 -0.5234730040933823 -1.886668043552422
Ni 7.564361080470711 8.654152963250581 5.588147926106898 -1.8072230127512168 0.5337784997844485 -0.3378069599487086
Ni 8.058769446514647 4.062400453618658 12.914028262856267 1.3035331048220324 1.1287988770985138 0.43210628215392677
Ni 2.1371871478012423 1.8749384070708601 5.144636769033106 0.15808453498197936 -0.8652224936296067 -0.15926132889889993
Ni 4.27939531271107 4.765888410532264 2.0682244487297288 -0.08697887728440504 0.19056425277723954 0.015160766900838406
Ni 7.990232100642019 3.2821454911148553 2.5464351800239236 1.9997531310055752 -1.5078237060464288 -1.4648158350263354
Ni 1.931806280400145 5.406655264227569 1.596130481371684 0.6384589081136746 1.6661512102771499 0.4006719749040454
P 2.8616006327382895 4.006595963286588 5.665682416816825 0.32972006917551605 0.5478228936926566 0.8840344841297871
P 2.6466770587882777 2.6454842204696636 9.005175690631013 -0.13287821091968083 0.6262109439842569 -0.6861567284102699
P 1.590931925536607 8.837813077082494 5.608624059228909 0.5095173132442385 -0.1749849102817438 0.9489311848031721
P 8.30464208908793 4.605678203491094 10.546724109776989 -2.546860486688446 -1.6711571481321732 -0.22878627237291563
P 6.151088089938259 6.640947026115852 13.325261584900703 0.28662966574394505 -0.6257373467819481 0.09525397280900369
P 0.7707547912747781 2.4564424639909803 3.7169332088880216 -2.185023225263411 -0.4784820412049888 -1.3474668300905053
P 1.2773356562537825 7.1050905873782035 13.15056995079921 -0.1559294363121895 -1.4458799173537809 0.7052942205706693
P 1.1376995985065415 1.730808400309305 13.006354873397877 -1.4545368216978305 1.048476328788362 -1.9681614722422236
Ni 5.3210852967821705 8.365384375250542 3.7440402285083145 -1.1268124427961046 -0.10375686807369226 0.9160493464734868
Ni 1.5204157626082935 1.566659052774107 10.688002400744274 1.806209483885038 0.6234513789612489 -0.45392877734565695
Ni 9.22516189232863 0.9934123959975721 5.777090741732796 0.5729937365313293 0.378968778898999 1.6369769027060388
Ni 5.255294253084957 0.020062800774398298 0.15424786480983219 0.41159993467045886 1.9439301104986846 -0.0027299973366533632
Ni 4.530076295793495 2.2255958855087696 1.344971438280946 0.3235432509408428 -0.5164945158930201 -0.9212350044394845
Ni 6.2393581255157144 7.582114953119854 1.7210188039688634 -0.4917234795959274 -0.2820271339749272 1.5924117145011543
Ni 7.368976013243428 1.8837598625434029 0.028584659645986752 -1.2765542622403436 -0.5180623746007723 1.0531991881853282
Ni 8.551541127423741 6.870711727983506 9.556928140650813 -0.2372025214610689 -0.09597593857669277 -1.3872145423020883
Ni 2.195386561579213 8.702560006645509 9.789909807255256 2.307892388686522 -0.9657094327027758 -0.11394692123281666
Ni 7.44317240602297 5.4783087846224685 5.892316149268334 -0.09981588114807326 -1.4922531053016816 -0.7400056559099255
Ni 2.6257237903388213 7.741631649510666 3.9223196243743224 0.6389047374018416 0.751317481378319 -1.2521958880006372
Ni 6.539990369041196 3.313501419319669 11.29296930998728 0.11199416838182004 0.6575058974427966 -1.503920514337281
Ni 0.26106052581610356 1.6394036965922347 1.5246859388527592 -1.6396757896944405 0.45124943074128093 0.10168018805032167
Ni 4.935632077313675 5.73738586997855 4.324674160732454 -0.050517292023261384 -0.20625903780467705 -0.4176029463314292
Ni 4.96369614163146 7.428627175982813 11.482562176262778 0.40035804320805246 -0.14603454579598077 0.2319944948975682
Ni 0.16416876583340773 7.01489721559709 5.12248234013723 0.44721819809470076 1.3519122674563686 -0.3132706653702411
Ni 1.5209613243199076 8.027247075753747 1.4617410628646113 -0.6187763420830827 -1.2389878739507953 1.2688931461506598
Ni 2.1498367820637565 5.045974245189831 12.886974874726267 -0.23145713433685944 0.38946607888589696 0.03837834266788229
Ni 0.9315142587510301 3.658777255110807 11.352585334853712 -0.7873437788742569 -0.35734965796732654 0.9460461499458933
Ni 7.500169734673654 8.534980093093212 0.15544902525625073 1.703119302861067 0.6833627106049005 -3.039105643115798
Ni 3.626441165186822 7.79726045047798 7.892967694269864 1.3930812854955104 -0.3926755869621302 1.1716403977440726
Ni 2.916129063473703 6.431747226733455 5.787240963611423 0.3192546508678179 -1.5521330694867657 0.9079442008678493
Ni 0.6637710643080852 4.545869845004296 9.041499929134986 -0.7812800891786803 -0.22940667956573393 -0.4200745478003733
Ni 4.276436333936213 2.306995542243354 10.501670883887186 -0.1697624855405399 -0.6310628727599197 -0.03425455030749585
P 4.135246812332172 6.938111716389548 2.4363935334295896 -0.2270276378105961 -0.5778937449361079 -0.8019612716771156
P 7.492014049425455 0.5445861732994426 1.8938841933577497 -0.42249292743387884 0.29448387168104123 0.755884531923711
P 1.0429937840937715 6.5278400624469395 3.1672640648618957 -1.6511531942064206 0.10616264930170749 0.20589188427324542
P 1.396785930671295 6.611458953262667 9.52574697712989 1.2691312303033948 -0.12694616170596199 -0.08816698405523525
P 5.185101728460144 6.149414417568731 8.243420818236135 -0.8583260236200896 -0.8022415219216958 0.29307027916296624
P 3.3602347903450682 0.552188899389091 2.7177443315134084 1.4036503192606085 0.69319512331429 1.2204905864775561
P 4.132750173990886 5.374781514737156 12.09402496859746 1.0070939091868332 -0.19444661855078124 -0.19027911743665293
P 8.494192420043541 3.9297364896096747 7.041918239896738 0.20115565513984066 -0.4039650438330204 -0.39297126382567804
Ni 2.560912908360779 6.8006486586800925 11.336994290752816 0.31684912675011884 1.148849882212118 0.05315010166041814
Ni 6.917380371348206 4.300237619456469 8.379542164007367 1.264391144515248 0.8177252193795916 0.9329885454309866
Ni 2.926633438124446 4.528652287258095 10.427601172386444 0.4203470847354696 -0.5434695018199673 -0.27563537151597045
Ni 0.8117838060307732 5.4706986610858825 6.459471008492132 -0.07077424250008456 -2.2429568643554014 1.288948779249954
Ni 1.1587545818513842 8.914663303950736 12.094336586049687 -0.8116509881610537 0.32248164244554783 0.2951456736347562
Ni 2.2766012821403687 3.0682298193100297 1.5916504025703768 -1.3853052410945175 1.0364867605266537 0.296502958993599
Ni 2.31350529554804 0.8209057827851374 0.9269796237785616 2.2509190566252717 -0.8649874948006651 -1.1493270789588528
Ni 3.7053256899627782 2.1782337314937132 6.783411682635683 1.030261091331916 0.32009385893966164 0.8739315913678304
Ni 8.062403442322518 7.120310834451374 7.23276959683242 0.45101083236791356 1.106284755156398 1.3093134589492355
Ni 1.6324131092366347 0.9403542078409156 7.946032355192591 0.29880512476421445 -0.7148360986228334 -0.18058323030512768
Ni 2.6753976465217346 5.41171326857084 8.17280201573157 1.3251339709212597 0.3207649168647573 -0.8985167369063622
Ni 6.909307907378048 5.243809716715043 1.7395873204619592 -1.117942136889668 0.8210738241368505 -0.6060879479821368
Ni 3.6383880419903076 2.848174266547375 3.4569924716020286 1.489830354792802 -0.8574855299966652 1.292505129142645
Ni 5.69575673733978 1.3629795981685529 3.333605830733089 -0.4411097712041177 0.573790778511328 -0.1492347979008333
Ni 0.22558514434816834 5.983702359368061 11.505000482184867 1.9991198682969509 1.1865844206484144 1.4241908624161213
Ni 8.252943181805973 5.227886712182842 3.549345897888787 1.5878775740762268 2.0953472607628174 1.6584785242232405
Ni 6.346704327382327 3.4222069020609815 5.00594388577035 0.3896190595239935 0.2439059016231735 -1.838473486125066
Ni 1.374898734546024 7.685309337892995 7.656155999513715 -1.4226152903988853 0.040328781526033766 -1.0736307165668024
Ni 6.3987176261591125 8.002548849792362 9.038088781416095 0.3269605041525079 -1.2901669679277716 1.3704134115843494
Ni 7.944155253032291 1.5083579241007508 3.9718122431072755 0.285333829750657 -0.9933336221779473 -0.1103697454045196
Ni 5.369436859325069 0.2873602990393803 7.758023467242507 -1.013425507831816 0.39457331820547525 -1.2432937004150006
Ni 1.1904341483596979 0.3181604940430414 3.3386139023095343 0.5902211561532092 0.9170456489484852 0.7728990642038366
Ni 4.7384993632474925 3.7362007841166776 8.599477508257293 -1.4777695669735258 -1.067761145159903 0.8448814680794093
Ni 4.985999444146946 4.658902834203837 6.526733219448969 -1.0130547547559587 -0.3224667300472124 -0.4060687204395846
P 4.613907863208666 9.300347693636015 9.921389255073429 -0.5803794874724392 -0.5644229641431828 -1.443206998507308
P 7.737738743059994 0.2675157229496278 7.93508413372562 0.5170604156988191 0.0769142939595514 -0.635566417057228
P 6.021956406841761 3.602223773276351 2.8679134290182735 -3.3538739760774883 -0.03671252492968516 0.2998150540859675
P 0.21083463515550568 4.295789904485512 1.1761422808771382 -1.4719053948832652 -0.6377022324533081 -0.9569067468094811
P 6.797698926713907 6.851302676582177 4.0899605668638515 1.5829420844478221 -0.10332903650765429 0.560506659807912
P 5.2104934650718855 2.1824225358218703 12.468406059362787 -0.9968102678726379 -0.2125063042659695 3.0480183722243956
P 5.3362500630033125 0.8018619803263304 5.591666336806377 1.051989227037627 1.429746502127028 -0.6414488439799341
P 8.096903285475618 8.744198386092952 11.364169736757278 -0.730355277304355 -0.1150499244890083 1.4258183707172154
