# total energy = -381172.1886912865 ev
CRYSTAL
PRIMVEC
9.14310288586036 0.00000000000000 0.00000000000000

0.00000000000000 9.14310288586036 0.00000000000000

0.00000000000000 0.00000000000000 13.38185527246116

PRIMCOORD
 96 1
Ni 1.7263092092401646 2.0433645794473634 0.08437163684098997 0.7602304675972327 0.07839833470424563 0.7990214723225013
Ni 1.8046747419576978 6.430490375541315 8.7361431403892 0.6642347315261979 0.25376376825385977 0.8175845800366692
Ni 8.680269640163223 6.57029755799188 4.210707802056925 -0.6256489008331999 2.418150548213842 -1.2675798266558749
Ni 4.133459556481859 7.855890933834479 4.412867287263353 1.0816062785731115 0.5433306622492579 -1.000140874907768
Ni 5.885287165187037 2.9308032646762157 10.97063239446817 -0.12115860848990746 -0.046908234515764376 0.20994754239985777
Ni 4.3744900282470685 1.6581839514781367 9.772073126954993 -1.1574504793969356 0.11479409972446035 -1.8011940329483174
Ni 5.261617847986201 0.05952525541993098 10.99711447695132 -0.7581740992888362 -1.6236580741099458 1.5536582478820404
Ni 0.6274554760035828 0.6899385251271798 12.05065499350979 -1.1017290174649155 -0.8288820073273595 0.8144768876456232
Ni 5.505537540185285 4.305011591294492 8.933391865168304 -1.7460785800314123 -2.144853337912745 -0.2811174776764642
Ni 7.451738367889651 0.1450489231934153 11.3769317609126 0.3379162318330632 0.09319246229428467 1.531959165642052
Ni 7.204536301843222 7.048344679463847 2.1222814412540187 -0.0232096053472439 1.1772006654406695 0.09833492572717258
Ni 2.9970907588078357 5.18528208405449 5.332870046850712 1.9883618584494982 0.29789881089986114 -0.37056435688538764
Ni 6.615766207414852 6.962600662916767 11.135148811800212 -1.1269636236619882 1.985208143311865 1.2657247757250072
Ni 1.7623513198424883 8.223297370273793 0.3053247695215617 0.8283253634929412 0.645801721631991 -1.3251910494114403
Ni 5.143050092965669 4.398536388187228 4.376121157757838 0.6509053614071435 -2.4080556258716848 1.6817133263814652
Ni 3.493734951047211 1.1971430009144204 4.485009110014625 0.3765033480776419 -1.6829240588601146 0.7009842803414056
Ni 1.5813453169012905 8.09579680397511 10.571692311337747 -0.338581633331204 0.4426974274062118 -0.01387907197493739
Ni 9.099124315151313 3.3784038543608315 13.022096848543285 -0.7748921833744655 1.9122212094311777 2.223085322242455
Ni 0.9776079634531335 0.04289395171987346 3.803270119333961 -0.23484199164869235 -0.20376635328981035 -0.733804155084904
Ni 6.238631509767809 6.3201514128957434 8.193428682573217 0.23761981150414563 0.3785571452828771 0.46389951540512364
Ni 5.958377127681958 6.489381099638109 4.483001284675135 1.1928864516070423 -0.5450417314030935 -1.2008992946091899
Ni 6.5609624501976205 2.242985939361248 1.8447425606519046 -0.05460354627749305 0.8765677434390968 -0.7896636852566852
Ni 8.522587692053717 1.1538412668168545 7.723431148664488 0.764098178082755 1.4838571679285024 -1.471763212878446
Ni 7.0819364385589605 1.5159172744177218 9.46581576096427 0.6889690010480843 -0.4283689265986816 3.188198001901496
P 8.423631892193507 7.066950893333895 10.074328556920694 0.7548476060187645 0.48191652080783454 -1.2347386117561379
Ni 4.429705225083048 8.232102178115 0.4613874741537286 -1.0726488122695075 0.5137465208342378 -1.9040029352864436
P 4.953723866623124 7.113937297794916 2.198651948975756 0.9312821042628413 -0.8636523209290093 1.4338826357825887
Ni 8.958238246589364 3.2723987223660718 6.18396947064148 1.4813230886527393 0.7564149505058844 0.41618138339355426
P 2.256270867495488 8.36459487845449 5.259229669576934 -0.022763261838444668 0.6048458480449196 2.1110032221325197
P 3.814859001928696 5.636923925105475 8.25305816936323 0.7539754878264564 -0.7072333465749111 -1.413104779805289
P 1.290210642675215 0.6969741426077705 1.7532639901297409 0.0634208874588069 -0.04523958856408983 -0.081326306984318
Ni 7.592825584709655 3.87889729281116 8.235742047275522 0.6962917599617428 -1.6549941652190656 0.17178748639036867
Ni 8.324356083740938 5.017734728197671 2.317763718603299 1.445522276904046 0.947764932409213 -2.277465953875865
Ni 7.902127603879115 8.124561004876915 8.06931197856117 0.8334917381852291 -1.4073581071294987 1.6044673601141077
Ni 3.2233459767086736 4.135727045936292 9.621941553004644 -1.2727215187578145 -0.9448292468196566 1.0242819909303456
Ni 0.9955650170358233 5.654752975251221 0.48706770653545023 0.25453664186414227 -0.9424615179184286 -0.6992148471458087
Ni 6.579504662349196 8.914433641846662 0.24002381616467286 0.8380749866805374 0.2137134372001932 -0.9162462929756413
Ni 6.514652635331875 3.8665998197619147 13.022820067962018 1.0731802592929451 -0.9677568021501075 0.00800204436887009
Ni 3.1284222851121934 8.485347835005705 2.391832907390839 -1.3629602977404138 -0.2537658251363888 1.191491628142045
Ni 7.644849838724679 3.734052260806591 3.897010693448974 -1.6053528480428547 0.5594337384587075 1.0366919345589243
Ni 2.083667375879388 4.497163036352441 7.511034131433347 -0.294031614634971 -2.0006291058526253 -0.6132970641360663
Ni 4.483923823731394 3.582231041488584 0.6692001397217535 -0.8124524010164266 -0.4683015011275612 1.244782112035069
Ni 3.5212465468874936 5.445385067924329 13.08797564598695 -0.13719123647273793 -0.6433712578136275 -1.2918065604137237
Ni 4.228959263544586 7.106668531197035 9.698110912468326 0.48137607492333234 0.6309903676507713 0.3085820016453201
Ni 5.924556791020874 1.9683911378088412 7.899550163245224 -2.072397079724547 0.42203527107116995 -3.0299327183672786
Ni 8.442503256040082 2.596257139120908 11.139724934670953 -0.7301886698195037 -0.159447476767777 -1.7485622656852144
Ni 0.5998963360295787 4.643489250984502 9.968598632315365 -0.05823960036818357 -1.1971112883216672 -1.1762064198482
Ni 3.019098206859534 6.339900514595647 1.5212221025687793 -0.9188549342430821 1.1406650324084808 1.5525493310885778
Ni 3.4038582521073733 1.3805719260549116 1.5876229711731211 1.2480016474136313 1.5265886453587578 -0.2598811940055073
Ni 7.5105376609600585 8.745779970570542 4.002271576888932 -0.8988252692857166 0.02247504117406452 0.2633588681414626
Ni 5.801280338141337 1.6107952505010075 4.1334138409686645 1.46558125243745 -0.010665707243962276 1.621889669355613
Ni 9.051351603863353 2.720237610903635 2.0870612955789274 0.29472169872346016 -0.14540025464609152 -0.2257531419735467
Ni 2.5957816977836883 1.917848066421311 7.952569186827353 0.2910254808187956 0.2107121884800242 1.751392793155474
Ni 6.681779408467308 3.195505229173393 6.02475239559891 -0.9429466850849632 -0.025940888235477907 -0.19666316658612581
Ni 8.25567309671794 0.42016853883729144 1.8945633269309663 0.35257280540397345 -0.5350162288462914 -0.3562757081768574
Ni 5.737955209264703 8.657997042135 8.816795363076707 -0.3152635274305538 0.925975090227631 -1.3691949657962161
P 0.3079872410099931 2.5494353105073873 9.188610603608472 0.2961378623446964 0.385429189812362 -0.4573717415889349
Ni 1.340378846854553 6.36257540913998 6.297380515773702 -1.0779296010524726 2.1729297844339865 -0.4045394282792517
P 3.245298566144538 8.75078124771399 8.665580331463657 -0.06845356478670792 1.5560722566401717 -0.055723261704233064
Ni 1.9010064713605597 6.728171511256803 3.975896468706658 0.4432481577033592 0.32394202904115826 -1.6996436856076407
P 4.5962376965469565 2.7887651651817715 2.89616827757001 -0.722135460497724 0.67673543509637 -0.9778530100438451
P 7.997554166120731 5.393150522548613 0.012969491093200431 0.004556509022430862 0.6478413777698391 0.6690308673632607
P 4.168303920638494 7.220884169361475 11.892226968224954 0.720313833907953 0.5655023132502905 0.6857906033201028
Ni 4.146296472586796 2.577495492506 6.399256622616759 -0.11639641121457373 0.659903965361328 -1.1443180557800356
Ni 1.1600128610980744 8.447230240104364 7.882702168012626 0.8488353105208348 0.898640149858104 -0.1597243845782475
Ni 7.063814809128772 5.014333494016022 10.311736531420395 2.946554156839622 -1.3915813039112164 0.13616536631138487
Ni 8.90060012755409 8.565185407248093 5.880508979747979 0.8787992038727768 -0.4886785221220164 0.1820536442030671
Ni 9.052028193458627 0.38167973396881305 9.851467258719396 -0.04783126055066601 -0.9440625438569612 -1.0311388659511789
Ni 3.4408055298709423 4.822054045521129 3.0363558130903523 -0.13556295684069558 -0.3205772263339834 0.4991660519169016
Ni 6.551435337247945 7.681477107895888 6.289404987341838 -0.05075229085220292 0.4026954330919774 -0.3821014109907097
Ni 8.570195827494178 7.802915797145016 13.139455885394963 0.011348849353915938 -0.6921383999150015 0.17580406374892946
Ni 8.705120593135602 1.8559675477616135 4.295414990764761 -0.17183068092347825 -1.502381194874619 0.5260610765355327
Ni 4.847737020833642 0.19557645130645973 6.378167142070001 0.1947438380762259 0.9065689177868773 0.26842728380330544
Ni 2.9939912470132675 0.5484599835142332 12.149800969904888 1.029589262075872 -0.6540336226234801 -0.1029315439589195
Ni 5.756899717932388 0.09886254021329405 2.3219658885761114 -1.2431232362754074 -0.9882739482668528 1.0130501267702683
Ni 3.861049956460137 7.135761883793836 6.562689582286098 -0.17816510778193834 -0.007610208247090119 1.651756632118375
Ni 5.043884001744766 1.5097913956496962 12.924543600627873 0.3523529760836835 0.8697589480473796 0.12102182580172705
Ni 0.26343107323037773 6.0241617511684415 11.737331837799767 -1.1221304639394027 0.4669416446655571 -0.3314211110270228
Ni 5.02629267226763 4.851833130815844 6.599623145395709 0.3379267733560245 0.7139135868085641 0.6790401719701467
Ni 1.4367380055653314 1.2664385758142203 6.262453863693317 -0.20293331586555372 -0.35345880755335257 -2.3818242029789816
Ni 5.921283560276167 6.108589160935528 0.2751214442644039 -0.32117269382613717 0.8414968678778927 -1.0442442929848854
Ni 0.5876875510759302 7.257639441969629 1.926064058452576 -0.8428634092081162 0.7544100042607137 2.3542136403505647
Ni 1.9500683601205975 3.946025952385554 12.027022816119167 -0.4238563834403087 0.8957322321826896 -0.13061229770363958
Ni 8.91340961435111 5.604913922766882 7.783167609755377 -0.9553165195042257 1.135414839753135 0.1355243902932763
Ni 2.113382459455632 2.5651980194567545 3.4883688641084736 -1.187091185081504 0.014342641874917234 -1.2542129184306656
Ni 2.4881125211086594 6.132160079538469 11.05025418948828 0.4843225591461659 -1.5062653604203737 0.3290250999910205
Ni 5.928470038950299 4.847965598399614 2.359876849357815 -0.004943974268836646 0.38744699157333923 -1.0641448885635543
Ni 1.9873996481949983 3.8929593846697026 1.6639797642409002 -0.5267671014636218 0.3530700567553661 -2.054925405302345
P 7.73160873966467 1.6675190592723965 13.211463304537443 -0.7948028062554634 -0.17147921112133047 0.18913343386798395
Ni 0.7771737817146558 4.673533486255744 4.22417010638236 0.34778129755260107 -1.4937883109992853 -0.34238249513453295
P 8.028338992705718 5.420332966693897 5.707976804332461 -0.7149325149913816 -1.8230409536200798 1.5384339747331184
Ni 1.968354565398286 1.2958427939007429 10.199850555808329 0.770048739239235 1.3927046188823822 -0.5545602124164901
P 3.5444791706927963 2.8181510970630166 11.434312958763721 1.8504440282233812 -1.3950862317406811 0.4581433296476367
P 2.1043033585352595 3.3758346425193158 5.396085458495681 -0.7774311477462353 -2.1102023234977785 2.1819355874770228
P 7.292886102642372 0.9144291242187204 5.9630620534741015 -1.3016538855214486 0.11621206311790955 -0.8260031431176678
Ni 4.976161040498847 5.173962922987601 11.177287543242118 -0.7796397253617798 -0.06833349426907587 0.5664369092494181
