# total energy = -340887.58632155607 ev
CRYSTAL
PRIMVEC
9.13279182352644 0.00000000000000 0.00000000000000

0.00000000000000 9.13279182352644 0.00000000000000

0.00000000000000 0.00000000000000 13.36676399047990

PRIMCOORD
 96 1
Ni 6.4965565228055056 2.540998347110723 11.281214180386542 -0.22913311418937315 -0.2479942127599342 0.905192606264641
Ni 4.54061393972378 0.3620786566037628 5.761489176727606 1.015913307250676 -0.05406669993741656 1.325208275802621
Ni 2.9950624809205877 1.9845556192301281 5.139119565972936 -2.711924795422368 -0.46292301042446726 -1.0949413051191208
Ni 3.6614457543340504 5.113897535353388 5.134347682350995 -1.152360209358222 -0.8841985205114772 -0.4313046121882379
Ni 3.5651404666912447 3.151014030639748 2.974011396234322 0.29912496999747834 0.8118955000716921 -0.6416172512369981
Ni 5.558701018459619 4.682318334514275 2.626649320048541 -1.0186728722736842 -0.24862156193128795 -0.0009438519705080519
Ni 5.230185371062809 2.9294707714990005 0.8674654262066581 0.5573179776672853 0.44854360177434366 -0.6212039776879689
Ni 5.648074517262132 8.402880649010667 12.51637036364803 1.0171237826190096 -0.5794726593874536 -1.0356822623474873
Ni 2.7184119571390912 5.685646821990677 11.745442197991348 -1.7451840932416007 -1.8244861707070386 -0.5819512028349332
Ni 0.5143588240913062 0.38297996350744473 0.8628469734839491 -0.5045280875597633 0.5167014896975037 -0.8713298920789251
Ni 8.274939371192927 0.2991637684062735 6.447551789525869 0.4040946274323492 -0.6430300724241248 1.3907084143879596
Ni -0.2888135756622629 2.696018352084548 1.745485619689636 0.7049406938859925 -0.025622071443478455 -1.084760507931377
Ni 0.6442508661992786 0.005020295554030379 4.549564988791463 0.05370957370831395 0.6579080179772218 0.2327113184589347
Ni 2.535016368599008 6.869905044269507 0.3981467905523387 -1.9961697845296915 1.0529865579538897 0.08638829488825767
Ni 7.749182823158688 4.136634035163148 3.8631279315367415 -0.5249804418768443 -0.3745176851061808 0.20830255059726707
Ni 7.884549060564252 4.437404261615544 12.115354049968392 1.1459476209636588 -1.0777406249701182 0.7343944803707352
Ni 8.373098615534783 7.814610142331098 8.705104815889117 -1.6482285643604582 -1.8835932612818398 0.5972379537906747
Ni 7.147176597881227 0.8088767414000079 0.3321906827450766 -0.1111891559820214 0.19387274832518225 0.6257034082202192
Ni 1.9613035317632166 6.699678941246819 9.38953631210388 -0.23193201709074893 1.1446846950908351 -0.06352064626146481
Ni 0.098475238931941 5.15028257717121 1.0608011451469723 0.7675545120624717 -0.7939777392510068 -0.33021397809279907
Ni 6.478683649603327 2.194354108346348 6.940170916442691 -0.6443112531293936 -1.1404346615652297 0.057247154547927205
Ni 3.815771667144684 4.789975682141909 0.4771043405111702 -0.042192574207649915 -0.7250348935327062 0.5515692481089661
Ni 6.04744236205419 5.7483617020516675 4.6937261045279906 0.8638929761849057 0.17261203917419304 0.9518553004285025
Ni 5.481455866929714 3.3637258802830474 8.872149054311071 -0.1152818379941563 -0.281330879238851 0.7958186491144875
P 0.5502406490908149 6.0440632291544425 12.418698810378732 -0.04036709096313693 -1.0287366842675896 -0.03799473407621844
P 4.532641012638701 6.5032508590636535 12.744072777457939 -0.28808979522923933 0.2707068238661015 0.18532023076948084
P 2.5347789160168634 9.16640029410444 1.295168670281843 1.069792830877951 -1.2242266564812205 0.4826703682547236
P 6.52653947769705 8.128686846175205 5.935244190432626 -0.42324214689507755 0.2878306280305817 -0.9015220993915893
P 4.9592337092527785 1.4246332977419554 12.64842048441603 -0.22142109025709608 0.675479965422714 -0.5887044623983667
P 4.095783058242685 6.550768773867402 8.378862320326759 -0.38087293790024723 0.4341469667330394 0.470050622608184
P 4.768294434833799 1.374256819160854 3.791135048468038 1.133173609127442 -0.2435253783553032 -1.3704591772206205
P 0.4794925655200459 5.737091837191429 3.8672185089037603 -0.729655165913537 0.6097602546274016 -0.9531683628129711
Ni 1.213766272006086 7.8082537193629244 2.725121819142996 -0.5003032508451384 -0.5319928686389355 -1.55436555836171
Ni 1.8806061850005962 7.00808418149432 4.936693066253139 0.5774844253128312 -0.7183186578547952 0.4653552740150438
Ni 6.203457841314698 6.276118331450892 9.44014293703383 -0.6576385663659191 0.22717239091857652 -0.646267605524816
Ni 8.739067841369067 2.776386918348815 10.19885416733918 0.1659405406912884 -0.1496934827048067 0.38563282118273584
Ni 2.158772752191168 5.729210238022557 7.182443786004646 1.641406399232302 -0.12044795557612804 -0.29246195615500603
Ni 0.3500425505265268 0.4283973362383763 9.44697335188713 0.44733903994328117 1.2461447967105506 0.18832096526901762
Ni 1.4169069560306409 1.5786578284290984 11.658090699253712 -0.40578409931963016 -0.19217067803241097 0.16167456632608285
Ni 4.351291169421707 7.412931701258943 1.6822209455730646 0.5838324790180461 -0.5318689414665614 -0.25072960941322625
Ni 6.041259462126815 8.579508838959635 8.067898071867068 -0.887804749805497 -0.9452596494888559 -0.6075041116033731
Ni 6.914673988795352 0.9816837713347745 4.794470842177736 -0.9488846478359529 0.28566113118308867 -1.259688082612624
Ni 1.0128996530951453 8.316977611024111 7.424649072908608 1.037997283633909 -1.434375773368923 -0.5455042728618089
Ni 5.068471029830834 4.998185065516085 7.125327307207292 -0.2836248174793502 -0.5169454873875097 0.6409536495110704
Ni 0.9306223333821023 8.084155354231504 11.996015861857577 -0.18652607815212394 0.1437938293909201 0.29938516563740053
Ni 4.691743375467085 1.0056390837564984 10.410289252713872 0.8011117791926269 -1.2972963798837014 0.9697154685383751
Ni 8.290392054615557 7.247865625502084 4.644001707268625 -0.7934113252245756 0.28784168377417524 0.6802434482496285
Ni 7.298342564791016 6.379574594932893 6.909173308402061 -0.5758641161005889 -0.4511262748998553 0.3271883038925978
Ni 2.405358125956531 5.598647849009608 2.5962800480714314 0.04503544297308373 -0.30384525829128317 0.4044203862028841
Ni 3.6558747514452774 4.6659980358876565 9.619298170424313 -0.4980360520775164 0.5865444786325704 -0.40673412193772535
Ni 0.9403304908751609 3.6543495752445807 3.807201455487595 1.2695338650584522 -0.4497962432345221 0.5933280772133072
Ni 1.7315955569133492 1.6273538733519473 2.6983883115101817 0.07055158496631721 -0.764338062007703 -0.051770961924704394
Ni 1.046992364216112 3.530855966946238 8.40349711244508 0.7364202525515123 0.5170850982891675 -1.0285909027183446
Ni 4.959379833918714 3.081960993193826 5.067540398364661 1.6126041302886291 1.0127410801702816 0.10994242805911388
Ni 4.432317296682681 7.097466813088454 6.214743231920693 -0.25680589751429317 1.0796625245831792 0.08807365301048058
Ni 8.58121667099275 7.364043867712054 0.5478716029443432 -0.008707812186643068 0.8547807294709924 -0.4084727018953869
P 0.14935128121470806 5.882522410963267 7.935058877903019 -0.03615870930874417 1.7715325013281424 2.8954529672884326
P 8.52910496200367 1.8834099520282246 7.928655877697579 1.6624956158024335 0.41292071036441147 -0.06599301906135732
P 1.8693637185152199 3.5142616845709918 10.421477835728686 -0.17551095798854288 0.0935822415335356 0.3834993197795008
P 4.324385965306419 6.346888333721551 3.520217177987006 -0.6553546554277487 -0.09796725797510869 0.3297843467545482
P 7.071840199800098 4.337875098530547 10.012535172201233 -0.061908307469022414 0.30514109428457126 1.5804167469228072
P 6.728602492310333 8.354814766709664 10.29597683983206 -0.1372737688842152 0.12241767770798916 0.0991633351657389
P 2.332131402739839 -0.2048594754076155 5.775043152772242 1.8201322646137168 0.5666695940855144 1.1449011819770152
P 7.238467982924137 4.053516498620978 1.4867846845599344 -0.7875011303877276 0.350794373347312 -0.007609694026457862
Ni 2.8859347538419824 1.9959168120065767 0.26580350717330614 0.12912645718673244 -0.21466345981828838 1.07542534657338
Ni 1.6496744160735228 1.4313093684168623 7.177417097496482 -1.051637500125163 0.09522851888770698 -0.5536379577125369
Ni 7.022431797130816 1.2103049439817501 9.217399629074091 -0.4716673322760006 -0.14945539855207166 1.1789395025086469
Ni 2.6190289187200295 1.5892062027512832 9.401820830113206 -0.3291220305802009 1.2627314974246382 -0.0005828690866635124
Ni 6.6913863664550055 1.924324858490033 2.4990103376334543 -0.4875467225104184 0.2487691432527457 0.9947598131015127
Ni 3.9207348412441405 7.232741722577808 10.759282445483151 1.591035402978918 1.31252553812863 -1.8440080427900503
Ni 7.691034338908168 6.731451923296067 11.45078546225001 0.1388226014285738 0.9654705772190921 0.06803627474363122
Ni 7.7577859128656135 4.025204844596066 7.998792064229745 0.3524563344307671 0.8043863361788404 -0.11945628108682008
Ni 3.322600919613958 8.919924513838529 12.35746618239782 -0.716458978938237 0.6370293747559996 0.7467033796450754
Ni 9.2253068000595 5.282534532634033 10.16539709851503 0.34975256234635893 -0.35905815601800095 -0.34981221193970075
Ni 8.769434373508691 2.8283525026719603 5.867234117789814 -0.13931291080143104 -1.6828698085834115 -0.4442421461855123
Ni 3.7031826120417435 3.0312648669059907 11.532576004169657 0.4184028165249053 0.31197765759043045 0.27015480801737346
Ni 1.5200161734310464 3.7903277096887473 12.736855132239912 -1.190966094655878 0.6870717840253716 -0.24751470202035436
Ni 3.4516563980094523 8.807673372025564 8.233124884756457 -0.37847101332697397 -1.5898025590130815 -0.2474630228468125
Ni 5.7076477170055195 7.9840142941079035 3.8314755023368896 0.33770334449130873 1.0279746092905844 -0.47964675093705145
Ni 3.281996528067261 8.904170448292408 3.6282480567919357 -0.03401620904444464 -0.2757209892512413 -0.408820829263425
Ni 3.552875127544323 2.8629201189572155 7.271211780722691 0.8821971738107321 1.0853698593806018 0.7678563595736067
Ni 5.482570067507468 4.891970698964561 11.613525415981016 -0.7071698403268273 -0.327284720261146 -0.7244263134144298
Ni 7.990051069369343 8.822769876574975 2.75308551380715 -0.08655284549057997 0.22204072611896597 -0.7582671732232747
Ni 4.951772218498472 0.5410393615327185 1.2844166347065111 -1.1512075838110174 -0.058034169225596836 1.116231839066781
Ni 6.562129966643851 5.748800076049473 0.22906319976142908 -0.7874671918259987 0.913066609696079 0.9444734061421346
Ni 8.21945766209572 0.48357674993292993 11.55925654161107 -0.2475023607251802 -0.7801485466773984 -0.8266461760183054
Ni 0.06915897782872558 5.065365880679716 6.105563447929849 0.14277695809063154 -0.22026975026147225 -2.84916359730359
Ni 7.707171981702367 6.169748707441811 2.457319143883866 -0.5983759240498597 0.769036495924637 1.0923244363215638
P 8.81045887346995 1.667912600940539 3.704919669008046 -1.2360946115634002 1.0252919202520987 0.15133873161771355
P 1.7428654217735884 3.698113912692122 1.597341693527216 1.51205214230548 -0.7556973556135694 -0.07043742798595612
P 4.776559611250749 1.3649870356656004 8.3167200663004 0.4006843161992196 0.0486774106010452 -0.9686392047550607
P 8.36528094590726 2.259854489851725 12.740851641853233 1.5513997908651669 0.6578095447261445 -0.8019926391356832
P 6.523626117169971 7.952816677930774 1.1423021775722353 0.6116975808594304 -0.3876647640111001 1.4977686358032722
P 2.0094972731469136 3.7981362465246504 6.045399356568587 -0.7668528580097568 -0.35562084820167783 -0.3360884345957051
P 6.682335769958654 4.1175830318418685 6.009951339171072 1.6460287284956618 0.41826937627083444 -0.7680821024311675
P 2.149429906362947 8.855173021246069 10.438706847121587 1.4286506979596878 -0.22907577858887646 -0.7179047102458281
