# total energy = -340859.5778932634 ev
CRYSTAL
PRIMVEC
9.32814103709104 0.00000000000000 0.00000000000000

0.00000000000000 9.32814103709104 0.00000000000000

0.00000000000000 0.00000000000000 13.65267731073219

PRIMCOORD
 96 1
Ni 6.427070555860224 3.393848245231582 13.288109555656435 0.2668565968820759 -0.28475893108379347 0.508438221247447
Ni 1.4587253757701268 2.0890838381790315 4.165991653791141 -0.626099100996741 2.276252136073422 2.657928800821887
Ni 9.081271837653206 1.8752828443585614 6.808945063055818 0.778720298871304 -0.035787184901938364 0.14038763192284853
Ni 3.63119346716736 4.6029525653893275 9.609996471612217 -2.044652048400795 -1.065435839460836 1.1218463570400807
Ni 3.4335021730121587 7.626053842933537 9.478043386172155 -0.3492522256711727 0.2874467623286017 0.08084988156853172
Ni 8.928495542854268 -0.012342996292462749 8.542357142365683 -0.6588035332082977 1.8893072809474816 -1.472077401684755
Ni 2.2696953059954343 5.605410575943893 5.184890513019729 1.483437821002897 -1.5783002148004368 -0.6631499831024514
Ni 6.417807711756222 0.12936639191534943 2.4870260684049823 0.1090793087278702 -3.3549206721744484 1.5574367410878662
Ni 3.6978243789849703 3.3441665657774884 4.959512363290419 -0.7099078080832806 0.07551587095012802 0.4329812285597124
Ni 2.1919452499965852 9.251062661803301 8.383863629891676 -0.26252531649657374 0.9909769490203126 0.09455823229355974
Ni 4.098328116754686 3.7531029430940497 0.29931952572043996 -0.4346588733724514 0.7043850784928385 0.018402156656271536
Ni 5.360127105939126 6.616226600916572 1.8335132941783998 0.7859553831671626 -0.33452057588795286 -1.0030017413953307
Ni 1.288178972191608 5.98736064108233 2.782524787534285 -0.9351667840292281 -1.991892497310576 0.16437602441764593
Ni 8.02057824226351 1.366479388514864 4.723785573834041 -0.08484691854306678 0.07355077680395719 -0.9476332919273551
Ni 7.276379145972186 8.72238093729331 12.142882480066046 -0.7904967226809418 -0.7969684464482145 -1.7728759027299146
Ni 3.862260850148463 1.7623843527263994 8.746983909422521 -0.18732363435275481 -0.6950018375057256 0.10916338380124427
Ni 8.389608831990019 7.7550527060898755 3.4404199224457215 -1.7255709469963638 3.705764924923089 -0.7952674045967079
Ni 2.5086356400578835 2.3967259313814364 12.670340352464812 -1.5657658297788517 -0.7489338116374908 0.7919054301030104
Ni 4.901443752180829 1.5395817027524934 0.052928805368094675 -1.1133540032983535 -0.8324974925927598 0.10917161133136037
Ni 7.811795788350342 3.9864090799371468 5.5790296601226155 -0.9469043841811307 0.3506359933925768 0.7109383062303241
Ni 4.732175303931865 0.010948439199262036 11.729029239580079 1.012321990354992 -0.9429070900962793 0.03865962135372697
Ni 6.117665443991499 4.819365438715458 11.573073914297108 -1.0801554050591977 -1.7184816442497501 -4.603422656263266
Ni 4.636403279343961 7.627369110827458 4.421310337982298 -1.094713505379031 1.2773405055870648 0.0576796140996555
Ni 7.189590121255534 0.8333210890949942 0.1502978077108884 0.3650704236503519 1.5277795803430656 1.0068005463161305
P 3.9298245760752373 7.946494145713675 7.250486091930002 -0.25656421381713235 0.9858558257436634 0.03565040221375796
P 1.5674635164754158 7.27912161945313 13.414260537337494 -0.5100934974626827 -0.4350535377077088 0.05273666827208337
P 5.358186852592064 4.3865490202042885 5.93223878974359 1.8920249369889608 1.1630734820106678 -3.247617995731026
P 0.44766402068673816 4.1998929169605015 4.850605383231373 2.017893549360028 -2.502412797898032 0.09681103288347843
P 3.202257555350315 4.636925655245093 11.971063718042627 0.2969703855483208 -0.6979025560922884 0.4261613774244015
P 4.255805794663813 0.1960374147396534 2.112396728395267 -0.4902008723038139 -0.6233894153750619 -0.18776894942028954
P 0.16293464044773792 2.419309360964305 12.690354811991044 1.632488527917382 -1.770150276268635 0.4915594432142373
P 6.281001194506178 8.100912193344744 10.101888940470875 -1.1444350409738742 0.6228199160248371 0.2984330861367763
Ni 6.8034423926258585 6.0148786573026785 13.043659088651152 0.44472319958698897 1.995261413782809 2.4248302742268626
Ni 5.9957186555004425 0.021813857942808445 6.885795886253432 -0.8580033501733482 1.2860048661302819 2.7051774493962055
Ni 7.9883308585096975 8.658361904981362 6.2787297921503615 2.043635948431455 -0.968439687149745 -0.06803936006742475
Ni 6.38016866245144 6.283249276509263 4.049793798654864 1.1070370599413903 -1.3650387775359976 -0.09956854102395754
Ni 0.7209990765822959 6.050978563327339 6.715478954945768 -1.1040478954060793 1.6043994829906498 0.9155045297136104
Ni 2.39237901763273 0.27320166347794717 3.550338072999103 1.7160020723610059 -1.7469941498671462 -1.343341495068222
Ni 1.5845619990963984 8.377444936006516 11.465763911992951 0.2278740449712914 0.3753584358399213 -0.005651798969138653
Ni 6.296915003208522 1.025433222063284 9.631226387922688 -0.0938439798353545 0.4797755632054318 0.009661177238847877
Ni 3.1419138106284725 7.3496237098237716 2.4832714916155956 1.0211411313085188 1.7862479531614461 1.4998136912577589
Ni 1.8343416331073379 3.974991435240975 6.768874167368445 0.23421901335271275 -0.983315318709997 -0.9905264917464555
Ni 8.774637183688698 5.9894035039814 0.4596105709828061 2.8520344910934816 -2.809615916917955 0.4624170173223262
Ni 5.9245356108301115 7.222984866363618 6.441906964266484 -1.2148889240200627 -2.053602315615547 -0.24763451542767026
Ni 0.3700510883619364 0.3452167783336538 0.33632985831564494 -0.07318053794873203 1.3544484036146611 -1.5606994709995379
Ni 8.354982772257838 3.5305428247885264 1.0460950545812744 0.1205950226769536 0.08192537402089761 -1.69419654645014
Ni 2.6781932606806884 0.9990345827739328 0.9780014902404949 -0.9868814387947004 0.5288298975299215 0.05304468643080542
Ni 1.2563700110691034 2.993493757719332 8.75942111994001 -0.8028405889582754 0.8258164810281584 -0.0925309174508858
Ni 2.4183299061496824 9.162501290279238 5.98279451601797 1.6695093281161055 0.2791639534945192 0.691561701475925
Ni 3.7988761314307453 2.6017584725757614 2.529923390843124 -2.44765447121023 2.161177271883749 -2.2287962565843036
Ni 8.923756847179712 6.055362789640411 4.683932956648213 -0.13074625217834257 0.011094310140948636 -0.6078992901592628
Ni 3.873333353624244 5.190075093838464 3.3280447395288006 0.09085147286593385 -0.3603645335342503 -0.42875510629350677
Ni 0.5571362860959395 8.847144824394043 4.852912232523336 -0.8158308305703562 0.36425666949980495 -0.1839817144637154
Ni 0.7270539729648817 7.474928629107819 9.167486248878612 0.04677325159979687 -1.4566890921541429 -0.15820820504403724
Ni 0.7083193343964248 2.198512261325102 2.117038411402469 0.20436130656133192 -0.2632467680436305 -1.088445155871816
Ni 3.069937873965351 5.906513642241055 0.7806973139405963 -0.12138203735462322 -1.7588086260035711 -0.3875763180623519
P 6.124950722184073 4.3330241466204376 1.553388284382235 -0.6443027684889614 1.0238292196636432 0.7071243318008725
P 8.019300286933953 2.8845877104743938 8.448877042043994 0.8178756289145269 -0.740614236028202 0.5511930957164701
P 2.1007533426846776 3.960178347187445 2.290428032385721 0.5603850466283833 0.1958499266562111 -0.8900881465230348
P 2.9822626758449933 0.5017802984157991 10.659246303510686 0.8234032436009755 -0.4490354538090976 -1.2352893420532856
P 8.24777444669158 6.010783603363447 2.381995863783622 -0.8493245914524277 -1.1665781527298165 1.5126964607576983
P 2.055940952880422 7.379259214071922 4.293657525585484 -0.13463915947484553 2.822880238127029 0.053106907127308534
P 6.5289431847220625 9.08448071818873 4.75720737055129 -1.179836817511936 -0.6355288789510732 -0.5187892254644679
P 5.721499291829398 3.5906626941241693 9.503874874483135 -1.2811357109634387 -0.2430723499782846 0.02882335198959552
Ni 0.8348453073493687 7.952221624343944 1.7586017915137382 0.41684961310517243 0.6341152864329983 -0.13384803103211784
Ni 6.15144264288434 2.1713020737607778 1.9775220691653022 0.7539420634853596 1.7933364845771116 -1.7528511228685553
Ni 1.5923043562024626 6.007649347956655 10.905990560410403 0.4385147567834319 1.0569324299755152 -0.2946458511802022
Ni 8.518868883096923 4.17161932131173 12.317923182022518 -0.8919038595755349 0.9978906454210106 0.2874274790548921
Ni 6.547758045303908 2.4803807006912955 6.868470729803923 -0.11917937327634957 -0.6174583946026075 0.19447644334745215
Ni 3.7257341771311676 5.758345449141389 7.4277114445301375 -0.21131228395786836 1.6912814296858742 -0.7214317495624801
Ni 8.600788618163739 5.0054338690704725 8.390935293653252 1.5768886791648906 -0.4546039490358106 1.1234214148366846
Ni 3.5028289176052536 8.083851023288126 0.4276001220127221 1.1712789006395958 1.9586504474279949 -1.9066794536773422
Ni 7.91229718047171 7.9665962897661675 0.8790056600913185 -1.5220773877519655 1.1646688515222459 0.3159001325732882
Ni 8.994109687292887 7.108360668629502 12.262684728920133 -0.1242760710729666 0.48354145800576726 -1.9411651461590378
Ni 4.091686480297436 2.4190108604493723 11.073891503175332 1.4806155210627532 0.7203344027332433 -0.4109065081478601
Ni 1.4268138050956145 4.593568455451134 13.360482871130062 -0.3856765299364777 -0.22720298704619582 0.6834776389162099
Ni 8.129997337268488 3.478417172368422 3.215956863357503 0.640051192301459 0.36496783663421656 1.5264521197808938
Ni 4.570481306249316 1.2815559920165411 5.921139234658643 -2.325703448726014 1.1435498101554435 2.4822507211278606
Ni 6.365392886962277 5.118901377309224 8.002052554055505 -0.04633230740763634 -1.4420150350817358 -2.3764716804178168
Ni 5.797878111087774 3.496952188717518 3.695356152852121 -0.04935361073246339 2.3627641010237372 1.9965744761672775
Ni 1.2982906771349496 3.846729495230876 11.034230112881884 -0.5172571050906576 -1.9021879935648918 -0.5032538488330301
Ni 4.269648756043812 6.4692150973122695 11.419209025432776 -1.1111436259105962 0.6566132104251982 3.1775868020445532
Ni 7.430909131296353 7.17509418999912 8.52118226208765 0.65275784123485 1.127544950086755 -0.05346146225324987
Ni 4.770038228622847 1.3903127890040132 3.861810300933737 2.0434390019293005 -2.8812869602006956 0.6412213013501602
Ni 1.2003825082370587 1.452307614699076 10.340933749713548 -0.07401948891025963 -1.311032755633187 0.8758177526469497
Ni 5.230988320666413 6.159315593965688 9.556587266977902 2.378645548140684 1.0591538631068662 -0.860948034623969
Ni 8.380663144683133 2.0256338224736723 10.666795568096154 -1.274915698195656 0.13533515710060562 0.33363894461394794
Ni 4.4665471582062235 3.6456614140004997 7.4917295440279785 -1.4062502187773007 -2.5874237528227892 2.087457830712411
P 6.160994659362183 1.8214408139775948 11.902144613215237 0.5561111018433778 -0.9533817643753579 -0.8899943012576478
P 8.373527116748026 5.435060063328298 10.711399007539955 0.18924501974518373 0.8684152895352913 -1.3606483617777858
P 8.436631991232995 0.6713229940128573 2.1656426905604778 0.8223519195183258 -0.2783702539486303 -0.388886295123027
P 2.2858050056607024 1.8518225695130779 7.126069211677878 0.31966397049109463 -0.4517711075727058 -0.35448776303849916
P 8.817406710593884 8.829328074909004 10.5167253670279 0.9564681166101656 0.3699727460479757 1.6537564361572228
P 5.536634191675205 7.709652643396845 13.224433798936657 -0.37053530341966506 -0.3500634087185584 0.0700857010734922
P 1.7699121625873557 5.5908213632765635 8.470803770494012 0.5576000276840783 -0.5748174200036293 1.5317403647630263
P 7.806795904725222 6.29815564597371 6.456747103929179 0.6043020597263077 -0.2542183392927751 0.8733970590205989
