# total energy = -340895.4610338651 ev
CRYSTAL
PRIMVEC
9.03718385283411 0.00000000000000 0.00000000000000

0.00000000000000 9.03718385283411 0.00000000000000

0.00000000000000 0.00000000000000 13.22683206117210

PRIMCOORD
 96 1
Ni 6.299865864537296 1.921079301043624 11.391079818040339 0.2215337045755604 0.14056863758540306 -0.22635503722360373
Ni 4.660656319577645 0.25545677961373836 6.006237828888049 -0.8377474281377894 0.8031753465898748 0.0944877840669405
Ni 2.7080191734476076 1.6935139811349826 4.6020772955655795 0.31054735290180707 -0.22149488091782502 1.349129819615225
Ni 3.3494875016488423 4.191120409122406 4.634416857032284 -0.788455523881197 0.9296437973284698 0.6667996640398968
Ni 5.056141547719577 4.4880461130626115 2.8297617847055117 0.5521585449535329 -0.711868017133445 -1.0653587063659975
Ni 7.08011822108677 6.049553953539736 2.4065694554036616 1.0052653406185268 -0.26813572070481567 2.3352008466934877
Ni 4.984991801337752 4.470495902536319 11.490942504115333 0.574658782938578 1.0272282180428631 0.07752261696751164
Ni 5.497960416112952 7.906957259028129 12.566151362301369 -0.15010794453440598 0.30378663713920584 0.1436758157558171
Ni 1.9438710780504784 6.337343064873308 0.3320487179517599 -0.5363768566392441 0.1764095585434123 0.22472032983365814
Ni 2.5125448924570226 1.5313869075810715 0.32508466427948324 1.2342891829235452 -0.2559515199337979 -0.8362944977413469
Ni 0.6871720767566526 0.027160351552894313 4.591548976686521 0.01811342177125913 -0.5287537928763474 0.10984704013183018
Ni 8.545280647341027 2.435882464087021 1.5570226862628096 0.9303266823281073 -0.27428374258408245 -0.5239216615950267
Ni 6.932667533678431 0.8357144559423227 4.8377534877437105 -0.939687297607401 -1.1002856001501695 -0.25815958332871025
Ni 0.8458984581267097 7.259985286022304 2.631583578385644 -0.8814176153322303 0.8440219482925916 -0.4441477866994932
Ni 7.676075292742994 3.8134293954636207 3.9217029883032 -0.42136369892544207 0.11219394309745194 -0.7022657181569906
Ni 7.437141195881687 3.8454662112801543 12.643554839725518 1.248144857859715 -0.8191146435279507 0.0058418034927576815
Ni 8.17136717642168 8.735314543812132 6.709204191400008 -1.113479216022308 1.354654606088196 0.4415756550969427
Ni 6.80111325219993 0.8602341424510447 0.33059102023914866 -0.6887489146174783 0.16316940570405447 -0.003153715137633278
Ni 1.8895214559572107 6.392234917981806 9.265474592925214 -0.4790474267901556 0.09012642177445122 -0.3182264667136197
Ni 0.038605040847692125 4.871783002541216 1.3674957757909443 0.07415858559128519 -0.21984191869543426 0.14586613853891653
Ni 6.447063510805195 1.8998690311645257 6.939550252698423 -0.49602982028076503 0.3896781948967031 -0.1956781769650372
Ni 3.349903212093852 4.349036155124693 0.19684612545911803 -0.16012856199520165 -0.9802423362116279 1.187585351109103
Ni 5.9751056351485925 5.624002015603275 4.961172496557036 -0.020100627404616996 0.5061638233909734 -0.5599700705781517
Ni 5.479678193716097 2.9691485931990154 9.10697775601827 -1.121781051019784 -0.2943136646517641 1.0355125695388425
P 0.0745350753535806 5.371873630704693 12.414981873846907 0.744625414070124 0.9642133077732233 0.5572516432057242
P 4.059828205967934 6.214455442454909 12.6373381611359 -0.4392094688576113 -0.2521558003367915 -0.5743618205234495
P 2.3798067399286027 8.198731768323645 1.3805770990333792 -0.08742933455826232 1.2528062678911263 0.5820162517449138
P 6.263057415786734 7.811813790222355 5.887130460364165 0.5821779741337586 -0.21858156392577197 -0.2526939322284487
P 4.591567051053696 1.156714313240403 12.68556328391214 0.4255206585166091 -0.5117770558126927 0.15065713216965668
P 4.176416911426073 6.1571054754107 8.320126448013443 -1.2605067218591774 0.5578962187682586 -0.78548667106086
P 4.599510735426822 1.0806573761707423 3.842844524321515 1.0807511296616679 -0.07029473176050474 -0.6046584146244619
P 0.056952330966373844 5.508877333886258 3.5995102227716123 0.5963100426597666 0.3496669446110881 0.44732438465526186
Ni 1.8026289357665277 1.204186638623831 2.473470821781156 -1.9074600405971087 -1.164835459007097 0.7205634880249138
Ni 1.9216667179767906 6.437113571675716 4.724994740689817 0.4081592844200261 -0.011908835622444006 0.1868994023311426
Ni 5.896364654553541 5.82216034011925 9.564097479943094 0.7903547977864388 -0.8829345661973891 -0.9724189835124672
Ni 8.574515936245536 2.3363921099758165 10.229221539902115 0.2142860218742116 -0.18073903915670164 0.34104603571129655
Ni 2.538192419477424 5.076927069970078 7.145226610240568 -0.41393398212027427 0.14191461009033626 -0.49181166843435936
Ni 0.5561482779547201 0.036682831898700106 8.963096756126866 0.22942210618470166 -0.13806515443725897 0.37340439743734405
Ni 1.59897600362955 1.196893631468981 11.448828324880742 -0.9618563775052726 -0.7211335015957709 -1.5688542388961884
Ni 4.186321664637616 6.790774714176203 1.6136731752973719 0.2682267377567251 0.33076933637563677 -0.5737331858005152
Ni 5.690958508800652 7.827213151054901 8.073327290276218 -0.5722943964714595 0.5961897150318184 0.07541559792683786
Ni 5.261701325593448 3.0269594566061704 4.816920972138555 1.1064143387557268 -1.0523561234587424 0.4852854372800674
Ni 0.8392073273987657 7.3293185585031075 6.861617196316064 0.6843839527805633 -0.9304809485177846 0.507068851703746
Ni 5.280570964923468 4.539368278654176 7.285444839624092 0.2867548784678997 1.4412125937850986 -0.2700825600185413
Ni 8.132498249813244 7.134775107422001 9.34252110159767 0.18448770756585645 0.49895830678146974 0.14312765656183093
Ni 4.588413073981772 0.36338063344849403 10.454884532665657 -0.4513944409595775 -0.13536086813221848 -0.43224794993811366
Ni 7.976552609832959 7.231653715476512 4.660884056604042 0.6739607005647104 -0.10953619375963071 -0.6491151022759402
Ni 7.475341370904673 6.297001077340161 7.087082274759046 -0.771827942626845 -0.8497670783064849 -0.5664865315404308
Ni 2.306641701606838 5.176851208893466 2.565145819526172 0.2619393620861166 -0.35207246872878717 -0.6034173431285091
Ni 2.236820421212328 5.163105652657374 11.435892500294061 0.1242704146460118 0.12888965858557802 -0.6920427548774017
Ni 1.1303709230837893 3.3815062430982015 3.7781916092205097 -0.8637230262659448 0.089770066876297 -0.31239391919224263
Ni 3.825259068779232 2.4933589517014507 2.218655682202107 -0.25870002921321256 0.9802014556713635 0.7909291822326702
Ni 0.901950685607801 3.344462827574373 8.343538175814377 0.22800311434998796 0.46876532813785715 -1.0500624423285592
Ni 3.930723001241559 2.818616226187449 7.025630330084618 -1.5087523885082854 -1.0014773343310044 -1.21911890294101
Ni 4.1350808336983365 6.8546314534031785 6.050032020551497 -0.21044890751630854 -0.06767529185978667 0.04249879259415907
Ni 0.7189748295182784 7.220375310359718 11.469766575533868 -0.032726543698743636 0.06867159433478495 -0.9073788152826824
P 0.17876272110118183 5.607427820904397 8.111222008493959 0.6709301412685026 -0.7698481931926547 0.09635286230013727
P 8.508291454918721 1.6424900426017952 7.835840046507218 0.5661556305635734 -0.12464708125914015 0.6893353832485676
P 1.8394916076186127 3.2324378998277576 10.370550439148502 -1.1582284952135407 -0.03548430894953889 -0.2454778740959837
P 4.091205307382604 6.140214979286271 3.6663718255413236 -1.0952302971144492 0.36401961378833436 1.9618386153479894
P 6.84909165986424 3.9105339331078106 10.482012350357635 0.47290120468310165 0.5578085441504588 -0.12956945826142202
P 6.253405703715631 7.899447359467187 10.336901389780017 -0.36584946790822154 -0.422245330199447 -0.37599581231360407
P 2.417817134096259 8.379339882313328 5.841392370511117 0.5910439091648209 0.3563186455996509 -0.2534020140390668
P 6.956950445977168 3.885482860204163 1.7834402838558803 -1.1748558193575767 0.4872155644232447 -1.0012999282128756
Ni 5.326353336976094 3.099690710115751 0.3963076118483644 0.35020584783369363 -1.145198658612776 0.3238039608013972
Ni 1.6178637173267445 1.139209288632046 6.922143733391166 -0.47903379994340084 0.5852632979273018 -0.34125069552293485
Ni 6.949955665880695 0.7468445999827659 9.00318660623793 -0.4985541293645155 -0.7545976947914875 1.4792433233055748
Ni 2.85149350007759 1.8303007919104561 8.958016955232514 -0.6715595473223853 -0.6617492461001828 1.141053783206467
Ni 6.344753555414792 1.8949528032931027 2.7092518452888976 -0.3909555189472299 0.3979126669913534 -0.5635462179651842
Ni 3.9451011603287536 6.915614368249432 10.507818028090814 0.23237373261385785 0.20361697219613964 0.11376283024646859
Ni 7.872733444783498 7.168872401096411 0.34134707614460374 1.1764427042287222 -0.1970038377549962 -0.15532856950339702
Ni 7.446476606527238 3.8356879786388314 8.240990542495632 1.5412737581747584 0.6081669419983526 -0.3267093073736503
Ni 2.957183362129596 8.385277311930102 12.38950695703302 0.8900107563178801 -0.2523902849451008 -0.014209715841478754
Ni -0.09781034168234859 4.838020084659532 10.244577522253444 0.31836350651211626 -0.342754533761971 -0.08273347174448976
Ni 8.554625095170165 2.4662383637563403 5.7602854552529426 1.1294660783688677 -0.17349058512440443 0.5801701996751104
Ni 3.607670799550831 2.662119318008348 11.428286806587094 0.32559987635955534 -0.42048669563712743 0.11438580854244816
Ni 1.0574047028009421 3.3240387926673587 12.535940961287803 -0.9588193904511617 0.3035284983818128 0.31760503107953686
Ni 3.0743323729701397 8.277761938793486 8.114978765711147 0.4312416201607864 0.38738451376651994 -0.23664742028854727
Ni 5.623785123197183 7.901263833368208 3.5565890230426858 -0.20767828674970687 0.27488743760635237 1.012771933408217
Ni 3.129034445223307 8.298231159618437 3.583135749830011 -0.07855594332803245 0.12723978168698089 0.49535027771523726
Ni 3.4794964247339344 4.347825172524011 9.355735271438839 0.2334983331366043 -0.07723902428882182 0.1502601538415541
Ni 7.196923818951 6.115444059073826 11.562446508093776 -0.05283925528821868 -0.037454288191716145 -0.24361665251752881
Ni 0.6445644672982008 8.627636501370949 0.13040113685277607 -0.10005653640396961 1.6342250509925147 0.5526095164480225
Ni 4.405464329443011 0.24311017939694057 1.5881458428186799 0.4793428465433874 -0.18593086777028622 -0.4863987249489043
Ni 6.0019641447696745 5.50343694936678 0.4520254635367301 -1.012317876589934 0.10140945088743826 -0.8033411827437777
Ni 7.797101255342435 8.694032689185919 11.534312851868544 0.7547776720127775 0.9421990082856612 -0.1341053984585626
Ni 0.3182733390098298 4.898876478935565 5.772175677698589 -0.8035833806615708 0.17399092179959066 0.6480725199440387
Ni 8.00552582041344 9.150058010178332 2.1827446257817513 1.004036353307432 -1.3698523968745568 0.8617887853577093
P 8.565081116580526 1.616426805136384 3.6656443322625556 0.46963178990321053 0.30493026382534577 -0.4308299865446645
P 1.7592323801809158 3.1943009850898814 1.467173199602403 0.2999050426966125 0.897060978296442 0.9061426288827361
P 4.731010793803798 1.1700712705822471 8.271729618749047 0.8451102962607638 -1.7287745415353257 -0.9713753727393012
P 8.616773806699165 1.6231143209908931 12.505255204417553 -0.4962151968186938 -0.8488345391898865 -0.2734525049320387
P 6.307032351121926 7.864816871961133 1.514856091363412 -0.7602206974052198 0.8607945397652402 -0.4071591252902859
P 1.7816355582935213 3.275491042437057 6.030470132958699 1.0913577015329206 -0.7585358535036291 0.026718132721134633
P 6.966963645391758 4.018880727134446 6.0249276282646855 -0.003802404465225709 -0.0025065684719376186 0.18690043077240717
P 2.273655981513651 8.423540747238198 10.221272433218838 -0.24982098155602783 0.3557445182637357 0.2569249395906607
