# total energy = -340864.2540324354 ev
CRYSTAL
PRIMVEC
9.27135627365344 0.00000000000000 0.00000000000000

0.00000000000000 9.27135627365344 0.00000000000000

0.00000000000000 0.00000000000000 13.56956706954467

PRIMCOORD
 96 1
Ni 7.380055118577424 8.979911063390155 12.827229961064761 0.32759350975081647 0.8790912811918989 -0.29682563244034044
Ni 0.7391857554948443 2.1693026391630554 0.6321275518315085 -2.0404444380773503 1.4127173145588832 -0.7728450710374496
Ni 2.090839152118334 4.754360701881168 1.9226993999086155 -1.5518350786303725 -0.9221240919126571 -1.7361302105694485
Ni 6.971781679430388 6.239706126962201 9.7966303889085 0.34417095449352336 -1.0041919050486898 -0.6582574308968405
Ni 3.664531329893346 0.9004211287842974 3.717993677960779 0.764284068841316 -0.08398199943961021 0.17940026574062007
Ni 2.686050945192195 0.44938541369535323 0.8438102281704405 -2.147721403489159 -2.117814588627398 1.5282164107701681
Ni -0.13885617382962218 3.6491408786946886 2.7512563929513267 0.35752937807830043 -0.08472787646669924 0.6046105921056619
Ni 8.102210319971778 6.903396156513944 7.395508614997859 1.583985438110672 -0.2472691616684516 1.6206344567922732
Ni 8.831930947979448 5.787365932063828 11.600623053294749 -0.8302323507076669 -0.1558949835298283 0.11269607954485109
Ni 3.067669235425894 8.382483416197932 11.29069367017152 -0.20419212797331932 0.470656374512983 -0.3043162843904307
Ni 3.3443172313998333 3.375478259399043 11.378190239507115 -2.433934036300344 -0.0520229300345104 -2.33897625457552
Ni 4.111818635693364 3.1540041038366757 3.3653882425077786 1.338054278527354 1.4503906607399408 -0.02395882480844261
Ni 4.08062052226958 5.759746562111539 1.6623124354752332 1.2459864167558155 -0.07635585035292011 -0.7977289787633229
Ni 2.4906385717499644 6.315694161916536 3.56817227121992 0.5955687936183679 -1.7508484906162298 0.5258469036421975
Ni 6.21345891771919 2.392371467982151 2.6368654737138835 0.43694689807567977 -1.165483634114057 -1.5246921996669935
Ni 6.083576489501122 0.6521879851197827 8.76577704048681 0.2548063505857611 -0.8908203967033691 -0.6022888859510208
Ni 2.741419484082787 7.061194638080902 13.665367973546442 0.06795014278772814 0.40770934136680104 -0.8068556236549393
Ni 1.693190687112058 1.3161895322379566 4.904801435212431 -0.21765288146391548 0.06857980595192704 -0.3684964186127654
Ni 4.221517321586445 8.234354959088925 2.3319296430096887 -0.5081510290243312 -0.6201323418903449 0.07690143844374497
Ni 8.81225713024237 8.821676828084438 2.6346403482393783 -0.6001993504118437 -0.7499925919193083 0.8642709283496147
Ni 6.451658599764917 6.125223421298935 12.333650774038901 0.7374615493318332 -0.3983500116390881 -0.5620470077118384
Ni 8.801474543047165 1.2059531076885366 9.97028010807446 0.8303963870893569 0.6655722193906989 -0.0642544391036958
Ni 4.867675216670321 1.1481647448444212 0.8992677720800125 2.9671157830410575 -1.0672566947196587 0.8802037975297873
Ni 2.036907673430026 8.332241937254844 4.083530800963109 -2.015826125308038 2.215820670260242 -0.46939730529490126
P 5.609986346321229 1.6521649361758775 4.853183159881994 -1.226784647016384 1.2404348908099672 -0.9406195796136831
P 1.1003060044302828 8.805322155846829 8.317750807602133 0.25873448199557375 -0.12205592349319623 0.4596481963279374
P 4.108332605783307 1.3482591531392554 9.932054306693697 -0.8809026233690248 -0.8477230512932626 0.8745676822899325
P 8.03137715903338 5.152593262324502 4.075660346732663 0.04473616656511005 0.49705723310401495 -0.045032614759606314
P 2.104338246663662 3.3938355445637063 3.510908667133542 -2.2147852870171922 -1.1877079927298964 1.7876137231607214
P 2.1353138475399964 6.84902892408688 5.995251988061886 1.204384424944313 0.3298051726901546 -0.4143738978711702
P 9.36147372548699 4.587346492307304 9.616385954117476 -0.5617793558727486 -0.5807160448762515 0.2380496999527126
P 8.732032085530331 8.810718085122504 5.070214481580266 2.297204569955373 0.29434554633096405 -0.6874137407458226
Ni 5.9188615762509125 1.3818029196674138 11.093378814448586 0.705837751778965 -0.3922001899876084 0.2576368780560208
Ni 5.9297739624321295 -0.2966435297692074 3.959274231653081 -1.176613682588948 3.840126919477148 2.139287670899509
Ni 6.89076856944613 3.3922872280876972 4.566010320413648 0.35877816288373693 -0.9957386320750142 0.9014259401333573
Ni 3.0488669251663287 0.7857771015241294 8.14936629159022 -1.387670141782268 -0.2041409630204097 0.4504313057153598
Ni 4.762093012905073 1.54127024534025 6.874464889667311 -1.024396405021023 -0.9097889673860718 -1.1741834758809004
Ni 0.5964532276615121 3.2851752505587273 7.902617492044322 -1.1553930826472747 -0.7814940049616992 -0.7655871039234557
Ni 8.20384292601978 8.496168785232834 9.167287025326965 0.2136676715639223 -0.8147985326511 -0.7503594883404239
Ni 5.490589821901765 7.729733586895836 0.02466922442734202 -1.5323841689946125 0.8855766318059265 1.1244370005853925
Ni 0.3320387861192764 8.448504743297715 0.3598408017875982 1.0087574129321852 0.16405489363280135 0.45634972808232377
Ni 1.9851735061477922 5.282559132747863 11.526532864943043 0.1933533854866025 1.1085648094398264 0.586151614069526
Ni 5.236860618315224 4.643187870361228 10.744912112378165 -1.576857311706323 1.2862239241196236 -1.7456186096758581
Ni 5.007422367825359 4.022915601630758 6.782557936214124 -1.3565765057012573 0.8860530572217128 -0.15588289934497024
Ni 4.4356763771513785 7.018119917436948 5.774583513348413 -0.330057912130909 -0.07475405308343899 -0.27220731967102796
Ni 0.22896633846214717 1.0940663817455258 6.834488656246606 2.2303502313349846 -1.7249348560742614 -2.0742498166625696
Ni 0.2536355628894892 6.487826160081762 4.950707628022691 0.003451191773394056 0.5986196646295496 0.7477845285243959
Ni 0.23266653669912563 3.335537257131683 11.447679980940283 0.5437631218009861 0.9261033882753792 -0.5342713802604669
Ni 7.666085726968858 7.319615147876191 1.2064741579038165 -1.006289411007667 -0.6161710432497517 -0.6024079280273883
Ni 5.0659617105171195 7.388927806407012 8.841766929712374 1.4282696604711853 0.5295539201801396 -1.0881091126886357
Ni 1.1344524091077859 1.2139079312598908 2.483909421460816 1.3866098188385538 -0.03884114123691375 2.8276249519008654
Ni 7.161900108514527 0.7030061424150125 6.06098312171437 -0.6184536686363413 -0.9290493582775807 0.7184603256389819
Ni 5.00390852384687 2.9851170803217695 12.474339894978145 1.7586993541192162 -1.5863683365205516 3.0802088409140116
Ni 2.1927220847822175 4.02560429491245 9.365918413622314 0.6204578435505637 0.011530369237102723 0.644539824200432
Ni 1.2567045112195312 5.69238088837091 7.545045391105104 0.04429805058642693 -0.5896732540695393 -0.5515931593683662
Ni 2.96153075029202 8.907677927674046 6.080088605319835 0.5258957546022621 0.03982073154136368 0.7903825657005807
P 7.7674680064009785 7.710968362060847 11.136557374281349 -0.2415425435973195 0.2977710270727452 0.5200755483760592
P 8.248503048564318 1.8063754029151966 1.9086950164534517 0.30098773423783004 -0.5622722363487671 -0.04566947701265683
P 8.093958813003823 1.6270766464508373 8.112796354416735 -1.5810960323780188 0.7666682528027764 0.7115898237713939
P 1.7513035474212055 4.027532736990355 13.333822423574015 -0.12503326095396533 0.227683269116724 -0.0697655987299121
P 3.8272807156410766 0.5166398311622575 12.77931559251376 1.1784270816486027 -0.04385324973952447 -2.541503079031275
P 1.1580943672743982 7.524048550846309 11.883941790014129 -0.3202116154644485 -1.803620897222255 0.8785544348518224
P 4.624487545019245 5.916645722132551 3.6284889328844416 0.9314728801174087 0.007284706586871324 2.1952037653408385
P 6.411940110045008 8.917032726023109 1.960680437487182 -0.5157589232785763 -0.06379626852035465 -2.0866844428814963
Ni 0.05363015961363496 6.162976383516364 2.5431812012879353 0.07483838526712917 0.504075573403377 1.1121227019944135
Ni 5.097104195804041 2.9176123362389834 9.024019540244138 -0.5165425955221362 1.0234288989014309 -0.17184405065991695
Ni 3.230075580996305 2.647241048374376 0.887674868357843 -0.9140788530106774 2.6177820533996723 0.14524573134609825
Ni 2.771032195605987 7.299422134195061 8.986255452399336 -1.0227316157240904 1.1813931062554621 -1.55646023610721
Ni 1.8266796728700518 1.9555051664877297 12.369460460008595 3.4055030131076895 -0.0649928599316171 0.6186146196942378
Ni 6.970965800089737 3.705214040652207 11.576061376598673 2.6081028784386953 -0.21335348275761323 0.9112418977825145
Ni 8.191141168102815 4.56955475986741 6.270605702718156 0.5258528171794685 0.5452430487806222 0.8852138491498691
Ni 7.38562720361983 3.665421380083148 9.126144455303374 0.9447413150915407 0.857596858763549 0.5905062914937959
Ni 6.55474680872749 4.942921543133155 2.318740211759562 0.09269495383257584 -0.4979563478795166 -0.186684200996543
Ni 6.649360998174658 2.701191069774971 7.134864833999295 1.8823493615724098 0.6421990918823972 -0.9483336604284893
Ni 1.878979392877056 1.6481875243902007 10.143048121271148 0.5496350072007309 -0.4073838397065823 -0.9578914793202535
Ni 0.6877390002530671 3.3368630610602423 5.431408901364855 0.5069410678766302 0.3822639047105029 -0.8349683227307555
Ni 6.166073016468383 5.445966784781802 5.41137999068747 -0.981914324597412 0.1676950614885499 -1.0163007724970818
Ni 8.36570226157771 1.4084117118000323 4.082281949290543 0.20184625344896204 1.338397263689069 0.168740986254561
Ni 2.996335421255731 4.611859957951431 5.645143328818404 -0.6658671249232984 0.4519955648786861 -0.521631065788637
Ni 7.089657701442275 2.221138791362871 0.06482995783530858 -0.09063935685512776 0.16673501156812576 0.8703826976743074
Ni 3.8951841280380446 5.225614463312831 8.36535273145109 0.26843731110563446 0.5525285266984419 0.37444749398987776
Ni 4.356248669067704 5.153372056240579 12.97120299635013 -0.757287840029141 0.8255819964198491 -0.17086111792135733
Ni 7.212679326113952 7.4845062168931324 5.494819414574553 -0.5259741732486812 1.0936058741371488 0.7963313270848479
Ni 6.451148675177009 7.071708355947936 3.4799293577147505 0.8405874686897459 -3.9652331997608936 -2.864891035341176
Ni 5.511051704911065 8.165255541749412 11.143653670273792 0.20591091043663892 -0.3748264745958512 -0.013697037871118346
Ni 0.7721528436708601 6.532078342955973 9.70898455073899 -0.7901015441250522 1.9988653290839833 0.048174502822697675
Ni 0.5896285824040832 0.285299098391691 11.917947270078248 -1.4787586703596727 -0.7598895393180461 -0.9356694346972596
Ni 0.33502230852634146 6.031972121204901 0.3423809838976513 1.6204704204105833 -0.882628604921196 -1.4438184068390618
P 2.8233411869691345 3.0659911199638716 7.343714183900691 0.1068905286066675 0.31797141328002015 -0.028583982285279804
P 7.633496910123509 5.284561745674918 0.3777363734163022 -0.13750002596240837 -0.1692742330502117 -0.2921611370851355
P 3.9079044286672966 6.397217196488702 10.51521982672996 0.6675625103478503 -0.5642974943089121 0.9036005791871727
P 8.10671619905765 1.7782646510872873 11.789958979920351 -1.1537509190581612 -0.39168776912756414 2.0542805726294944
P 5.243656522368607 3.7333989633292664 0.9864083213396881 -0.5181109684505206 -0.45775792128375997 0.247212083178271
P 6.679205493601453 5.405386058940523 7.70053901353472 -1.2717432140049454 -1.4118349119539297 0.24775818548972814
P 5.799010755380404 8.41513713253629 6.989806122909491 -0.8090752570140776 0.1407205897822351 0.29994540901624467
P 1.8463164051825558 7.779993608551211 1.8883545882096355 -0.5754992765620024 0.10218798092467561 0.7597748681170527
