# total energy = -381176.00378063874 ev
CRYSTAL
PRIMVEC
9.12851389605174 0.00000000000000 0.00000000000000

0.00000000000000 9.12851389605174 0.00000000000000

0.00000000000000 0.00000000000000 13.36050281120471

PRIMCOORD
 96 1
Ni 7.96293034539976 8.153168571999506 4.1600462872378285 1.3767511808769193 -1.0116851281019414 0.24217066409962168
Ni 6.232584049579785 3.6581149585628263 8.385545843783023 0.873634886063018 -0.5929185004797144 0.045946899043759586
Ni 8.06824600856105 3.985025293063311 2.48169965715695 -0.8724208111502587 0.5753730353967833 -0.06750791304398696
Ni 8.51884770440638 4.507906560800042 8.916505846190615 -0.8787079297105512 0.6648615664769195 0.5928449669293016
Ni 1.1742281095108038 0.6408079726469426 4.934995943773348 1.2974488463011653 -0.41659378834062444 0.6751801747941081
Ni 4.830380437616866 2.8131614686143753 4.332650963822088 -0.9094670652702788 1.0158346314939408 -1.516761374855691
Ni 7.510731159647763 6.56649595412835 2.430061480562447 1.7601430285442783 -0.6362431314092785 0.4610581893015866
Ni 1.312689406107011 1.0777123336068155 0.12560378497596966 1.2439290200061546 -1.3408380119200778 1.3068624263055815
Ni 3.284703975007681 7.038996954465658 8.053510761661947 0.34386833565144004 -1.494793612335348 1.5503613222983235
Ni 4.853165207942825 6.637050236920551 9.937341149160432 -0.234683354583641 0.6865331379130821 1.1137430112066562
Ni 4.116129007575094 1.8040955584255107 11.737014855524286 -0.9472144592223816 -1.462287669287843 1.1165424283286642
Ni 3.019164638464494 3.1275931248153475 10.259316609126378 -0.5987212232044204 0.10256027666242981 -1.6940505077905792
Ni 5.97152681328902 6.2729685944203455 7.880505343323956 -0.6571210032995521 1.0491586995673674 -0.31671800048889326
Ni 8.705954850789057 1.5438507598587081 12.280226236238958 -1.8926887958252052 -0.38324503767684964 -1.2950790605174083
Ni 7.67661451155614 5.269352406941655 6.835513254411197 1.3627198995948335 -1.1036609443803056 -0.1912098567810384
Ni 3.5993729725662154 5.203910091850793 11.471821489652315 -1.2078618419699523 0.8941983120366664 0.11497356272511812
Ni 0.8158727836874711 4.3335975906982105 10.670031264130651 -0.21256184009425325 1.3144335537846201 -0.7855854014222534
Ni 8.80069056651133 4.125805232152625 13.42356436806306 0.09050463104947638 -0.8160138931154397 -0.3199377929777716
Ni 0.8977856761417657 4.655085588029778 6.1471402480060675 0.6801339192549577 -1.1394743545344892 -0.5082554158126795
Ni 3.6589273962867885 8.865904668758382 13.798058906200612 0.1951125342695543 -1.0798602424162822 -0.6720691399689522
Ni 5.947144553056394 8.823539236433554 4.855286674538879 -2.180472629778251 1.6087580170696616 0.13915401662606355
Ni 5.323046324833196 4.374465946767648 6.264458993900369 1.4225510128198533 0.46463330824735466 -0.9664054303285357
Ni 4.389190239450248 3.679064897624554 13.226537265785662 0.14942043154907814 1.3663484974863567 -0.5617934969401358
Ni 5.581310235915731 6.658036690037288 12.434646913428463 -1.0654142421942814 -1.1928903082617843 -1.2649688713955891
P 0.6085806676955153 8.618421532417418 12.064546841811309 -1.4093250010478826 0.5759001115448469 -0.6428961179494218
Ni 8.675620799589876 2.933183167430761 7.150621333481221 -1.5018662029114136 -0.8631067328381844 -0.1359231683935917
P 7.431431760680777 1.5497934223115122 8.675281218878286 -0.29942578906734885 0.7082113942174642 -0.46745560818749815
Ni 3.6195104739039814 1.0685381772856666 5.625466682638778 -0.006239810262124738 -1.9364206894955167 -0.06118197082595915
P 3.0523924285231834 1.5386018644510855 3.634324226021355 -0.49397139508983956 0.477692712534474 -1.0150766702819938
P 0.054738219864813725 7.71301902440066 6.073123519947587 0.8154099409828537 0.11482161052828613 0.1715144352346401
P 4.641347174832436 8.461967935215256 11.605734047845708 1.017209143243964 0.11047567485476457 0.6504744445173121
Ni 0.14763180151185484 3.2331735148754563 4.369432484284582 -0.961563528855202 -1.3761536565022363 0.8535232029148074
Ni 4.554544137560987 0.32605316705913606 2.5967609216002883 1.2785975179226172 1.0477870160308214 -0.27773442013684424
Ni 3.667590355837804 6.248440277967681 0.38172523388081897 -0.735977508587139 -0.4077684767395106 0.4710219853825178
Ni 1.71464525216587 2.2678149285330202 6.800522748346923 -3.310186562491867 -1.9574044908360353 -0.5287399089192765
Ni 8.935929497752944 0.9352801335283204 3.1980497325103965 0.4600626581575367 0.7969206239294147 -1.5205146712505362
Ni 1.6045736333395866 4.809567426261425 3.486115502440349 0.12904443899588744 0.755694270289776 1.1235656537240328
Ni 0.9312270734222606 7.47844360650557 3.3793383642273027 0.7038510603662393 -0.6077195700482888 -0.5992177032248649
Ni 5.862185475562928 1.9815173517169056 6.124067016645533 1.1986871174492193 -0.49539578624119196 1.4091751057335795
Ni 3.4693829367322238 8.075795289434273 4.146538825438421 -1.5381007597634155 0.1728393246936507 -0.556467456741532
Ni 7.218764775791415 8.119292657464397 11.862188687502519 1.7571276387567223 -0.8282423168608316 0.20809994766815773
Ni 6.230073708297878 7.856656188294471 0.823371857735057 -1.2824428598106365 1.5369252513980758 1.225534833769683
Ni 0.36721819982552545 2.3218374729196474 9.499143277801847 -0.2595672623095142 -0.48732535052823167 -0.4032669893247313
Ni 3.5333555611089524 3.960378305931866 2.4253183048167064 -0.2353523556262076 -0.1456887324207878 -0.5514018692931665
Ni 5.493639989837805 7.274357424543453 3.200254268581598 -0.6174038872155883 -0.6868442413955977 -0.7233328232399349
Ni 6.731868109266594 1.9165588478549191 3.5030032528822654 0.4107720394525248 2.312440670178837 0.9259378092317924
Ni 7.320529447103026 2.7112872551377363 10.815647489805981 1.2190271145581522 1.49512091376778 -0.8020288916902574
Ni 8.016268251254958 1.8064415864598742 1.163551399826012 -0.7390219518404175 0.9781859679032314 -0.32757602624931975
Ni 3.4152873642355783 1.9845571467964505 1.0325572274792578 -0.5881606740797548 -0.47611071275933486 0.8194661133300983
Ni 6.070543801961162 4.973743746098105 3.7390301044639846 0.9241310950403568 -1.5623768587019609 -0.37725976662769223
Ni 8.370573255526356 8.605002617201409 1.211047969731057 1.339678701504654 0.5126077792441043 0.32473238615293754
Ni 5.659687654993726 1.1598598288645467 0.39913878671487246 0.2715966826702226 0.07760952025436312 -0.07635585035292011
Ni 2.6435171690400145 3.1818164965045264 5.078540909678259 0.03838091377104357 2.0134920778582224 -1.8575577564500267
Ni 4.004113015319552 4.628266014625265 8.546967178169233 0.4466134746311663 0.562600052001831 0.5172288229558835
Ni 1.9547342923674018 0.24384907501614014 2.3232980351200294 0.3296326516680323 0.02136098217427934 -0.05682780762232148
Ni 3.6510312318909737 8.983397769265357 9.78981432555673 1.279608475685635 -0.1798772053770386 -0.9902382710820753
P 6.776981224230892 3.613257441983596 13.009709504327963 -0.9552427288434967 -0.43487741714116074 -0.07938640964912778
Ni 8.223759368846716 9.305424348908314 10.065201502735992 2.726716609019562 0.36924332408111893 1.104165137710234
P 2.4960460293702016 1.5861249070460124 8.587463090877574 -0.002014459326867498 -1.014015833117647 1.9246848891158272
Ni 6.74955916891872 6.557741709439812 5.274565701145644 -2.750144243914883 0.7547550463049582 0.6852846102179617
P 2.8870659159537015 6.988543658956213 2.2354123561175476 -0.5170383042116321 0.4448437843252533 0.8922221621469021
P 2.360743198532321 5.70888121560534 9.72628534694837 -0.40482224962699315 0.5547031657522575 -0.13515363721741885
P 2.1644984098835036 3.8180830335596565 13.862590195618989 0.3539725139649774 1.3121938658208239 0.11148688972809832
Ni 1.588680890896681 4.020635625211373 8.327427335275699 1.2405906996615408 0.5891322939644047 0.38734209056435875
Ni 6.202779452178241 0.891622103656154 11.42360376716083 -0.5701063876812053 0.06326636415881362 -0.44059272235838315
Ni 7.273891870342081 8.51559795351053 6.83779812140342 -0.5969065385931849 -1.1565027707716857 1.1456246904066012
Ni 4.362251995366954 7.159000396254537 6.048393463340995 1.1814198457283394 -0.027253693509630483 -0.07554466730553441
Ni 1.5354251416652547 2.8601185433566547 12.055234844932501 0.9053707837137182 0.44473965464722115 1.3894624577960004
Ni 7.993383067277724 0.9855326017352112 5.37935282336067 0.7355388783878235 2.063052919505486 0.608197795236288
Ni 5.191613983826327 3.6789279699182686 10.893686241023762 1.549474548817996 0.6205429470652023 -0.38840986970724073
Ni 3.8726532887714264 5.464775629352757 4.18703473814676 -0.5857335526955009 0.41756335134274536 0.4835975080546833
Ni 6.269755357579505 8.678213297495553 9.26501424422925 -1.894476998073879 -0.21131639772292637 -1.199883965970798
Ni 8.09704646944983 6.594666547568218 0.14650351721205984 0.9043459419936295 -0.7052317427638499 -0.15083145296399186
Ni 1.3419097786284016 7.574603370373215 0.5024151399038786 0.2715529739164807 0.6987628472100547 1.2698362267902195
Ni 1.9367054777064372 1.0300797488468598 10.72101492628911 -1.14373467247274 -1.0230293494701672 0.5488901586149064
Ni 1.5693284417416205 8.053969013052317 9.417484158029868 -1.6027357221349816 -0.8094097575353608 0.10891501523586405
Ni 0.7145727537258566 6.243383081348859 7.720446896040977 0.15511825326480383 1.7968380699724666 0.6118605887998559
Ni 0.9663170802864364 2.8272193797930516 1.9719835319539125 0.6153871138958756 -0.17731561529744946 0.5989927316982522
Ni 2.5915394117339225 7.802478459174053 11.90960583933792 0.3081564840721273 -0.6857844326725157 -1.3904785577653407
Ni 5.875449206045146 5.4756842032868605 1.2412724787652105 -0.11241351530742574 -0.5631356127903269 -0.456326331043556
Ni 7.497942111880668 5.451730983200596 11.647633013117789 0.3563505272788508 -1.2134694179647165 -0.5774080635489411
Ni 5.045603406356896 1.7545642428050583 9.03593510446447 0.2179169337585795 -0.5455019588689638 0.5924772991772377
Ni 2.1567300446802227 8.491206564764152 6.844612556919577 -0.2752034261848744 1.545765989618157 -0.38057211883037684
Ni 0.6554044661370095 5.58298988244617 1.6480317487605758 -0.01812370618390427 0.18125788777464913 -0.7145779598654404
Ni 5.617796905384021 3.161441653809199 1.760887564281337 1.4172910499724947 -0.27045999796261805 0.48206770167371815
Ni 1.2626651507439297 5.717325090826297 12.395393391441825 0.19629961259912 -0.08913089063040135 0.917708993564097
Ni 9.299490814969262 0.48158752292643237 7.605853924353137 -0.285881731834327 -0.11035046213080996 0.4221075190700021
Ni 3.7872104000490836 2.649286389731523 7.223676829041574 2.4102680601419717 1.5784902193240555 0.8923859414182761
P 3.4090982319114596 5.028505700098676 6.4967048150858515 -2.509925304224993 0.9377106334970043 -0.41588930607443214
Ni 8.116271119412358 7.047961154970502 9.292083026059201 -0.12175099065826775 -0.5476591144212827 -0.07482321575847758
P 5.05930530549923 0.046002232203779324 6.870411562486573 0.3290965766589042 -1.0453899765535544 1.4317185382517341
Ni 8.653392868602813 5.783114289439752 4.53193554755045 1.3620830373417832 -0.6699235543808592 -0.8437686946312049
P 7.318566816646263 3.5298775973692926 5.4953214620709945 0.3340595770911343 0.32513373535641427 -1.0102941612916858
P 6.652139670153246 5.323046324833196 9.703599164570935 -0.5911868625005884 0.0645889396249791 0.1477870097107132
P 6.912530524940086 9.274752542700293 2.667210226484335 -1.0984637164500823 -2.2081143027549195 -2.0837664979037536
Ni 2.015329366655747 6.6195143620022145 5.482148103874925 -0.3148130701566965 -0.5871517731992661 -0.2668260007544566
