# total energy = -381167.7350356544 ev
CRYSTAL
PRIMVEC
9.30284260869770 0.00000000000000 0.00000000000000
0.00000000000000 9.30284260869770 0.00000000000000
0.00000000000000 0.00000000000000 13.61565050357862
PRIMCOORD
 96 1
Ni 4.189498006159736 6.373107762870895 13.470399038171582 1.9832790446099522 1.2297928377150884 0.025030974826698825
Ni 3.2761542110627286 7.315225250491101 1.738664092407238 2.1697480442718957 1.0081416337250573 0.06095905618187565
Ni 5.881685096353622 1.2961557728951292 3.12716081239403 -0.565941200559922 -1.0506885059483324 0.32492984687572424
Ni 8.86610215981613 8.703897794205242 13.069322789267481 -0.25539230499621823 0.6522431063819606 0.371344943805154
Ni 2.795346088085374 1.1787818063367108 4.713424805129661 -0.21174294373738373 -0.11605214050127756 -0.7474412862523644
Ni 8.454321129797755 2.6769953230416874 1.5373701119844434 -0.3993170035380478 0.8813955038450433 -0.6870057066741265
Ni 8.313662147919079 0.291646910025868 2.2229179883269117 1.028721257648622 0.023819213906784785 -0.1492700220141429
Ni 5.258627205393009 2.212839288527483 1.0248216199414895 -0.2276498447756273 -1.2823487574349333 -0.12907657778540352
Ni 1.6156433003196955 0.8643196745477835 6.831448590402801 0.6505682897826989 0.3027939342086334 1.0825434456754002
Ni 3.4105895911638386 7.417844908500604 6.365888756922625 0.354395460435009 0.49661191803648025 -0.1312177924981224
Ni 4.20478257674351 5.947781793856797 4.432806415144611 0.3118915256345274 -0.05884946603804058 0.0520974920261877
Ni 6.853832160263798 7.892643395082878 8.76092235949095 1.9430484792246796 -0.81090742512681 0.2385348671192473
Ni 2.8106864757254497 8.133745169775318 3.8531062832343923 0.9400809335013938 -0.26200672498894234 0.25782354014553016
Ni 8.873870033484694 4.571649482124962 3.3299665047583114 0.22508208404845106 0.5616510578250005 -2.592001087780826
Ni 5.88858780564952 5.546140862399783 7.257727170511104 -0.20652437565092174 -0.6377585396125404 0.4874148249182444
Ni 5.002119923161475 2.162343458260455 8.794403290428871 0.841139484538474 0.46730339888035005 0.3726942587441968
Ni 6.945679126407198 3.375992319099897 13.366716065239544 -2.267750526360314 -4.045626710518297 -1.6844407526149572
Ni 1.4104411956715552 0.45081575805825036 11.904844103607918 -0.23951959963001979 0.054957330072485995 -0.7423849547753796
Ni 3.225109513075407 8.426589355658844 11.328506949339838 -1.3113790832290126 0.43673992427119623 -1.337531316144348
Ni 6.74377022808082 2.6786512290452853 10.926763686612938 -0.8070569410324681 -0.2806868178969488 0.5482540676928042
Ni 4.889518314916797 6.743007394978038 9.664607012995058 0.7976029947084198 0.44463166831444717 -0.5929799498452691
Ni 8.600599028677408 1.4170183054723637 6.031325042591141 -0.03620370361406668 -0.23823764759380262 0.7857795197109306
Ni 1.9926875156333745 7.809689946576782 13.32386717168576 0.5479776741029659 0.36928420462138334 0.8839907753760453
Ni 3.4766769858242967 3.5761522829955075 5.392464412707426 1.157805034522877 0.1767098633926505 0.7194756542773738
P 1.1648740564750295 7.5585876159637335 11.348726677984898 -0.3927354936657882 0.23995257340238027 0.08925301803056242
Ni 0.6882029076538552 1.3828024499598122 0.3410859373602627 0.16938427626551475 -0.6966391159988324 -0.4954034995506759
P 4.818025968637853 8.987932188035916 4.775607796701861 -0.1689191637036381 0.6259283797468317 0.560518486882454
Ni 8.285195449205535 4.525888798800807 11.576733771269108 -1.5912984268323174 0.7387298745212955 1.1331931495114678
P 8.459549327404622 8.355404003189555 6.593038128108343 0.15377022387734163 -0.22227958160264943 0.257591369530066
P 1.303067785033744 8.608739016054646 1.8462003027925937 -0.19358941275680852 1.8398595678393153 -0.3175425532727177
P 5.274535066438811 6.392811183745171 1.835797864066619 -0.22405004323951092 -1.3498702973256753 -1.290807686835564
Ni 1.1877404438730317 3.9940638863642812 1.7016973863033158 -1.2170021137083233 -0.7482897502955886 -0.9357211138708014
Ni 3.933874493986302 2.9964828504662537 2.993495707669875 -0.2979319781306417 -0.5170820129653739 1.1653458229846123
Ni 2.2392314533151687 5.3714055676493055 13.471229782026198 -0.39324200098856144 -1.3918882936286736 0.8804238839603935
Ni 7.383954652483142 3.4793096903131633 7.602298883037368 -0.37760326601004 0.28702330163793793 0.3540442477431774
Ni 8.147057537703121 7.2119823020195675 1.9043802811437347 -1.432171566628753 -0.6571140613210167 -1.040576614325311
Ni 2.5352851199360056 7.0226694527317965 8.823091396799073 1.2756926855709965 1.9763982583297188 1.814487407623114
Ni 2.6660923913775463 5.104814003912714 2.761553511916439 3.2578214186265892 -0.7859425276513561 0.8058978877273605
Ni 7.08287745079521 0.954732142344245 0.35016551185190226 0.32940022394225205 0.041298858748786936 -1.4098626187189072
Ni 7.765138632805816 5.020195346560302 0.4775037532443318 1.2782756158068243 3.110580511227333 1.9478618414529227
Ni 2.9574388195836603 1.5134980872887507 10.124869807832264 -0.4997203817584749 -1.134103577140879 -0.4845387889220301
Ni 0.056395693118050455 6.464089564641628 13.444243165588905 0.15805085353056653 -0.3483492542409291 -1.1161655046052197
Ni 4.987756334006669 9.239648506268274 9.791994559453887 0.6355892998753634 0.17900405874346592 0.24165721479831284
Ni 2.803086053225788 2.5494998636073434 0.7450637429077479 1.1158042646110589 -0.22259814128433275 -0.6541606351196476
Ni 0.08643829338782581 7.285446850954483 3.7520513633698616 -1.1624011385339916 -0.5338232369794549 0.6646576779962295
Ni 9.03189742271572 4.278647147915249 5.446382758809981 -0.20631431652264468 -0.2181647881033275 2.5800089484159567
Ni 8.41837494553987 5.939511566681523 7.1035437158906785 -0.7458040077592576 -0.3923374868964211 1.3849697121319695
Ni 7.820378912858435 2.3532470936528065 3.6719092339327957 -0.11836047691948004 0.40949342985041737 1.6826926595755989
Ni 1.1985689527954377 4.769427918285061 11.5117059703941 0.41975701655995445 1.6785303006677932 -1.8317616213225292
Ni 4.452210284483405 4.26137176899007 1.2267974987354286 -0.12274343647852408 2.560004480269572 -1.3560052065788197
Ni 7.622135334562494 9.101798982890083 4.429348548506761 0.18191017664666737 -0.06686410881240097 0.7933722444565239
Ni 3.529321772758916 3.8134212864886083 10.226960134091179 -0.32356304843518463 0.0560086541551358 0.7018777386899525
Ni 6.5344562669518345 4.1592172531164096 2.484515786093102 -0.09192927931114489 0.30899492081302266 -0.4042892599416586
Ni 1.364940991943472 1.614182754013151 2.4406593946730855 0.5890726443710629 -0.2376864030760229 0.38132879449074325
Ni 5.82206317738137 4.014297569273416 4.744033018236621 0.46811715303089696 0.05237671382950334 0.6683662371960682
Ni 5.206680131662154 7.990341849295171 11.930128299828027 1.645108530674238 0.19581084588815953 -0.09290964094654322
P 6.695841982403641 0.44743324444640586 11.816478261209163 -0.06761075717043839 0.4802306484649793 0.26502879964471776
Ni 1.2691775290162821 6.544838239423832 1.9755898210040874 -2.828961411324102 -0.9138338268794068 -0.8928947627338946
P 0.3323794068615686 3.748999100674465 13.307229037486685 -0.47985038230742516 0.08707735053548228 0.2555311445669277
Ni 5.775753626336922 5.132173664342951 12.180997129088881 -0.603742844788728 -0.7981493541301931 -0.09406020961121865
P 0.8841384506717476 1.5056930022493187 8.988303371460319 0.20293588696871498 0.84177531835026 0.5300727687980871
P 0.33274686914888396 1.3271528448276528 4.170949998350892 0.00199594738410624 -0.9947212465540934 1.631628493909932
P 4.003496968879161 3.7403753654759506 12.504613258111183 -0.07463552522770373 0.24706630162902607 0.19823025396292956
Ni 1.514493491459453 3.257250834662102 4.280570045504821 -0.3920148134496797 0.0990329802354617 -0.8045804544675175
Ni 3.471662753599918 6.009217767158833 11.220317679395759 -1.0784875304384716 -0.5965144453610889 0.5477796991595469
Ni 3.872652486066753 0.07619214241949405 0.06072337554992619 -0.26886077179629825 -0.09094711790353369 -0.02085601751340279
Ni 4.774711932948228 1.5619379893153562 12.054180777172869 -0.370721194178226 0.28475173199494186 -0.20176603503032997
Ni 6.197795691871974 1.4913201102517952 5.876814127907083 1.9302199600014434 -0.32609764193158036 -1.5150042829552681
Ni 0.3781335781958214 8.774124953874693 8.59888265419615 -0.7356733470831588 -0.29973997787365797 -0.3297522079650321
Ni 5.978239300911744 7.441381100574219 3.502367716271132 -0.23124244722289208 1.2210333463549037 0.19294637985617094
Ni 0.434219486651401 6.462322024525427 9.689128376112386 -1.5650140392144918 0.24981198269496332 0.2485930226861977
Ni 7.268050535073985 1.366689926374239 9.082319760525284 0.7119230387410964 -1.0824524286234904 -0.5182369525054237
Ni 5.673496779193375 4.409612567682977 9.63455697045111 0.9284096678110526 0.7299318166136913 -0.6672218391789799
Ni 4.146583992706935 1.3176918537846225 6.6102353631547 -2.19579409062667 -0.7870303613988961 0.12001163936965784
Ni 5.456991720644269 8.758682234964734 7.299786252718227 -0.3778326084120267 -0.05450275903357065 -1.145000426559041
Ni 1.1534966798323294 6.990183925964579 7.1697976314357685 -0.8155765484677051 -0.4750521895878335 -1.8248119294775733
Ni 1.7365988613240986 5.872447373535795 4.658703623700642 -0.23183200117777492 -0.21279632470256254 1.7335542223121563
Ni 6.9892443388501775 7.305280511626795 13.066544960432232 0.7570189026384705 -0.696726019285684 2.3676931628942386
Ni 8.838919253397512 3.182595521859431 9.84672969514698 0.6165479669731962 -0.4482754357146215 -1.3932869737484135
Ni 1.4816637595117113 4.498547744056004 8.94921282636414 0.11838181707571871 0.7816886374710086 0.26874481504372427
Ni 0.40940973540985026 3.0164746594647514 7.473208916361357 0.40540846114776635 0.057468269419797796 -0.44905370864154276
Ni 6.802833976490061 7.018594807621819 5.724822423030746 0.05268524620885765 0.7196885416191283 -0.05834604403906081
Ni 8.83282589141798 2.0521419834367234 12.055352005070919 -0.7884971757524097 -0.26656040579789575 -0.1669101036934093
Ni 1.1116804018201165 8.501812141867243 5.257111772314435 -0.7253025453717961 1.130445925783634 1.507863558145429
Ni 7.121940087363236 6.584347412442268 10.992799915638455 0.23167207856114297 0.16595648153088838 -2.225566436793096
Ni 8.265650176657447 8.85200835310011 10.717600431535965 0.6181441078157225 -0.299080232802472 -0.42537359141578357
Ni 1.964555719257639 2.774879834108318 12.051470859089452 1.0918876058944615 -0.944696063675902 0.3309071475050817
Ni 2.940544857209872 2.8639266445939464 7.937665432695315 -0.8741905014561718 0.11993450627481925 -0.053848156168707265
P 7.369656183227353 5.876047573667215 3.9275978660052475 0.0647851147961852 -0.3673221957990061 0.4244132843850433
Ni 5.885536473238395 8.510500996964774 1.3135511584913553 -0.6959361763945369 -0.1567773861347816 0.19375987689640176
P 5.328640399679975 3.1895261396834798 6.8167166086764075 -0.22811572866845228 1.514281802966947 0.26272097744714756
Ni 3.5075810293296517 0.6946116360014889 2.3799881150423743 0.9148064752053212 -0.6145931572396706 -0.4132513542309528
P 7.829477093035508 5.307439221128288 9.294492485221156 -0.3930375982872392 -0.6429925343179701 -0.699399452352789
P 1.9863894911140714 4.486705225277461 6.667175272571686 -1.2963371012942253 0.8123269311821559 -0.35271395896752805
P 3.4984828491525786 9.155001940387713 8.252622475716779 -0.5338720879395192 -0.2937019992096942 -0.4354055217304889
Ni 3.629355240493137 5.313997725243664 8.008167026224916 0.6650793389146804 -1.2798136497179056 -0.487465989871154
