# total energy = -340870.672159775 ev
CRYSTAL
PRIMVEC
9.23312663042270 0.00000000000000 0.00000000000000
0.00000000000000 9.23312663042270 0.00000000000000
0.00000000000000 0.00000000000000 13.51361412236643
PRIMCOORD
 96 1
Ni 9.172169691607813 5.225525041971302 12.787581457360305 0.32470179002531824 0.35901341882299465 1.0334196915655558
Ni 2.876996143596561 7.961291278116033 5.620136878112223 0.6304290958306626 -1.4186159394315052 -1.5643039005213446
Ni 6.565768794983714 4.953434028458098 13.285126037633972 -0.43048545872105215 1.1734157444769404 -0.29117743301562754
Ni 7.555246061065227 3.081980791565839 3.6707163486274252 -0.9321511371313559 0.32109761761382766 0.49986693463866816
Ni 7.068374052053561 0.3628000210824395 9.643612222432846 0.36319326123229706 2.384880987527435 0.08760828333828784
Ni 2.7485910492625782 8.416530594729036 9.448732308427694 -0.7158907651395928 -0.8770030312043025 0.13606637883967532
Ni 6.684497572436844 3.3188289601036494 7.1926343957693994 -1.5631322488107466 0.10083815176500054 -0.701552751250366
Ni 5.350901670716621 3.9663850747235925 4.5421148493821555 -0.21135393582908116 -0.01719990881805425 -0.364656733151701
Ni 4.7237969319469535 6.591242991810309 10.6358086443554 0.5036965927974034 1.8408653833960105 0.7283948111438745
Ni 8.311439145551686 1.8201539844208694 7.384298411711955 0.30681513955288453 0.4328310761350933 -0.15544478336628714
Ni 7.193058196289276 3.1131702938783574 9.501165388869472 -0.10770736808100806 -2.1682406064884336 0.03130986585687511
Ni 2.0614709863273175 3.085812539185642 6.990579418932081 -1.6967036291427102 -0.8950262072546005 -0.5745029740870041
Ni 0.4436849817421066 5.951027212992158 5.5920284702110985 0.9070563989462571 0.11514376975439523 -0.8281798390540125
Ni 3.904079935112913 6.806264048605433 7.826247565616657 -0.25542881466110845 -0.8157791513968145 0.07582543177074683
Ni 4.097412377067272 2.223918619153383 6.111004984400639 1.0481865654620852 -2.507360371711295 -1.1305099462523498
Ni 3.65600428439274 -0.06632431970441495 7.375379211228268 -1.5308186242797055 0.18096143958015287 0.004003978953070524
Ni 8.912451067999514 0.3161348749493136 2.7615340464033977 1.2545885566025297 -1.625912417361761 0.31007658391297566
Ni 3.9795607466596383 4.109692435704232 7.256581185324178 2.1693685494452897 3.460747278292975 -0.9704461760568127
Ni 4.833070987562305 6.319742898411965 5.4624600019009835 -0.6568924322285139 -0.2612618764031178 -0.31211829693335275
Ni 4.6557210880895825 1.9178127665284799 2.698168943836686 -1.3715868630671606 -1.0554442754657631 2.049429929405412
Ni 4.9511626792666 5.940981571039517 1.5626605443700956 0.9703016800591482 -0.7668546577819696 -0.016243458442055898
Ni 7.848545566825872 3.2862637218987194 11.92312996120591 -1.9053540499976993 1.4483324926593315 1.5331542143914176
Ni 2.2913389110083298 8.025673871255522 2.856562310687196 -0.5589161753923406 -1.9675950582157917 0.18098149418481088
Ni 5.432771806005284 2.6236114449694314 12.776297653104495 1.0405951262680724 -0.483001012121265 0.45142477997688063
P 3.7730526327692337 6.306908852167323 3.4802831084866046 -0.6809939532624079 -0.5242301939743811 -0.26772717241248734
P 4.92820912605496 8.389219005670293 9.232852570840661 1.110321644229933 0.38913209258524595 -0.7042552377831935
P 5.673617918445202 4.512875383448678 11.282611335828895 0.3559862019608966 -0.9476569460764389 0.0014418746528491297
P 3.577144148439152 0.8077434780066646 11.961251695115896 1.5308121965218022 0.05083045238830601 0.13310266822566108
P 3.3476455488299277 0.21775406232635727 1.7784461040638215 1.2222782745055982 1.9523291331956574 -0.10532189856796702
P 0.06271232050232578 7.220840674814548 2.9392791237029323 0.5294554469290623 0.4021619291860106 1.158866643018172
P 9.424344850624836 3.3572203013160387 8.332791674577125 -0.16359106662250533 -0.2893738041479855 -1.041818200041896
P 1.8850997982948345 0.7172394458522724 5.884192301375995 0.2418564752933125 1.208889769013834 3.0689422668612565
Ni 7.407894590548506 0.16302470325073468 5.434081063384773 1.3099791175576925 1.7916727237214432 -0.4367023861650414
Ni 1.6829404871247367 5.778847864524472 2.1047051025435306 -0.11344761299889496 1.2729470045050593 1.0857969196156914
Ni 6.273909657003043 7.623026444865167 6.886767681128479 -0.03005002530784502 -1.087789524565688 1.256970940791777
Ni 0.4345644990942955 8.261423297704761 1.014280214590133 0.6270282976792297 -0.7583946999400745 -1.5055307962471942
Ni 3.6333369581117356 4.1013826215889955 2.6186818785737374 -0.3769260374373573 0.8642866120788985 -0.5852980078199791
Ni 8.345232389620312 3.6529111869165134 0.7924820427276943 -0.08919105444437542 -0.9453874333159719 1.4257836608245382
Ni 2.114210606578681 3.4038475916293063 9.429015889470278 1.5141779303992309 -0.05531137097779506 0.19356807260056985
Ni 8.907391314516016 1.3375846124955362 13.622263506103206 0.10527124783568965 -0.34241180571057156 -0.615283755548792
Ni 1.4299897454569586 5.4226984646722585 7.706125509330205 0.3116323584358698 -0.7691910192246301 1.6101273866133625
Ni 3.299614823243865 3.072609167869212 11.813345313678814 -1.0079678271513544 0.42586518634022147 0.4247932934322814
Ni 1.933001260105772 5.118550034927833 11.517599029317571 1.0085522388999146 0.8678231644772473 0.5649940061553044
Ni 0.1761034273554364 1.9113403446453905 4.581723116706087 1.1194094654638143 -0.8121423259751755 -0.7238920381775146
Ni 0.6533849875654414 8.760122942140447 4.620480089739547 -1.098589186284353 -2.032351890877203 1.01290588788292
Ni 1.8588130863103054 4.197314808985996 0.5600565419245485 -0.03670738272336259 -1.893784599992545 -1.4647245608641097
Ni 2.7617667211986245 7.6932628403924985 11.714816771027142 0.5247606125565544 -0.2108245456881724 0.26046303465090626
Ni 3.960614370476901 5.5938252366853485 12.72305482744282 0.8236225587006331 -0.18969393435714427 0.09102965031501097
Ni 5.502777373362748 0.5449225237953451 1.079261114345918 -0.3524324231713672 -0.20310583688767603 -1.2860496033252884
Ni 0.6748409276109802 8.73568285551486 11.970008392567996 -0.7894209731182598 0.30716815201692904 -0.9238657571941121
Ni 6.964307479950424 7.379779719458625 4.054030530822343 0.44397449434642244 -0.5211512979387412 0.5160216900216597
Ni 5.372599518684182 8.963297897257963 11.34228780424112 0.47766494462033227 -0.9194948818199261 1.2981366163968096
Ni 8.160200528654395 8.870495739844369 7.539448181119484 0.8711565997258546 -0.21574178048413167 3.566016726356452
Ni 5.19511112230954 9.080891000115345 5.552960340804658 -1.9685013720801452 0.6066936998869359 -1.75664298581082
Ni 9.292495799996427 3.6665485151922947 5.890543769298074 -0.9588810969270326 0.9547904717974266 1.0278283135207071
Ni 7.223933772290775 5.189829773782968 5.907030440502702 0.3163701302311712 0.7960914431598999 -2.0528494966099227
P 4.000806171414258 3.77222165135771 0.3953052439632036 0.9478176400240194 0.11627505514536104 0.8584203831061087
P 8.412514184573338 7.611420404484221 5.9427875706405615 -0.3692152990566609 -1.300867127954095 -0.8081360330292598
P 5.82638000126362 5.412542025198082 7.528637112955563 0.2515672748231732 0.48039339929508873 0.3555187754061748
P 7.5132353341493125 0.694746625667688 11.935021305204815 -0.3130032706414674 0.22662474594522264 -0.3770201398130604
P 7.817152935723871 1.7847080106559914 1.9551764607286184 -0.8797646531098398 2.588889281624722 -2.116082693537956
P 5.720854595126919 7.332275282099861 13.39885692355313 0.46303793873577676 -0.022111487187058694 -0.2575736289182532
P 6.772849362735391 5.440426068118096 3.055631294319106 -0.4434661872514363 -1.4971073480701895 -0.1848072956888043
P 8.366717875671595 6.1362068039867905 11.163624030825511 -0.5040930569048738 0.930923692482158 -1.5170753065516842
Ni 2.707734463196002 3.493630516581032 4.6613865346908145 -0.7257720288090468 0.22933391734626954 1.0127433941631268
Ni 2.6135196373828173 0.6813825979450299 3.9861781286334046 1.8527945307334284 2.023424763590902 -0.45610881571611134
Ni 4.456968800706731 4.8253797929423135 9.410015961152132 1.2556540217525665 -2.81490930410641 -0.3305893591543468
Ni 7.907813007721094 7.716945810620921 12.624161576282757 -1.2480571832419152 -0.2775243610085672 0.1577968285382315
Ni 3.629514443618727 7.646109261851933 0.48588591106999196 0.06852735544743682 1.1775889020180237 0.8610850744224654
Ni 1.4836711446413817 1.1536237942378045 8.205587810039134 -0.17852891887926028 -0.7041734767026647 -0.42073017910650123
Ni 2.1372287916778845 0.5602393578350836 13.497547045923708 0.35359944689627487 -0.3595829181732194 -0.08221822267096808
Ni 7.1034507007466505 5.258090280176233 9.42219168545631 -1.1151560895040988 0.19739233144266652 0.6156496235286429
Ni 8.870938929930514 1.9316255242133606 10.638133545682306 1.96811853481943 -2.4315884188863026 -1.7675236372790657
Ni 6.746673448272397 0.5582191496924018 3.2441052649540896 -2.5346983974046156 -0.2692837182663298 0.3964715636694527
Ni 7.161887160230347 8.19760392529975 1.4039837205269883 -0.008433732589649991 -0.6649356142479645 0.4444020688021443
Ni 1.4710032946790443 1.5343056119835519 2.0361500594055144 0.28935169266079847 1.1525535563159504 -0.0688374304886879
Ni 0.2619558102306555 4.592963525265962 10.08264278495774 -2.3863398314611484 0.14894966256024672 -0.12905909428390677
Ni 5.823166873139062 3.5487892160526084 1.795554164701733 1.674429134015226 1.0321899329235127 -1.0259300680567298
Ni 1.0854556191124867 7.707601886304678 7.123620466229686 0.3470642168809184 1.4593015900763253 0.7371635584754401
Ni 4.85175883619479 8.013726205183172 2.805359082734472 0.3751825723836893 1.162110089656134 0.125398614713184
Ni 0.49227615812460823 7.082076012216905 9.530165716818965 0.5255154884447079 -1.642653384265526 0.7466977232181204
Ni 8.94200630686937 4.991954633445614 3.5587831524951987 0.44728376122531355 -0.22782108024616896 0.028853948117214825
Ni 7.090949047066617 7.4467475881006315 9.973979962336198 -0.08836958698434459 -0.0996508163251187 0.07990140161233336
Ni 8.416955318561591 6.029139465675374 1.4380918142193133 -1.0239778294263655 -0.45241465469397574 -0.9018648274429887
Ni 2.0841013801011434 1.2765905768897052 10.611552296953025 -0.908611402138203 -0.2228979319129387 -0.07720302884456381
Ni 8.323719204188647 6.298045050444405 7.740584461840729 -0.1283121888155532 -0.016176352649546335 -0.019810864078340075
Ni 5.518704517083616 0.9812782494878136 7.761963766933872 2.0715100491339036 1.1596233186785383 1.175344586068537
Ni 5.0862433242731555 1.9043970332957711 10.523591991230575 0.010398569625504672 1.065889382058487 -1.3750357408477092
P 1.4810951022656587 3.6001069347775867 2.8776701618525746 -0.8330369100359977 0.12196927731666092 -0.1803765136109603
P 2.753392275195825 5.410760031726704 6.0178556614195635 -0.6638500944932697 0.6695533155256339 -1.206269814892484
P 3.9759690603364977 2.5555356011120605 8.60617255590355 0.32838232420069896 -2.0755302260368897 0.46237330856858433
P 2.6397417174797835 5.8130750655524475 9.612841904076806 -1.3575041597218493 1.5071904433378043 -0.08095812501162186
P 1.7417462716802221 6.7371633276738505 13.485465499512834 -0.9131267735100532 -1.0416325663936512 -0.8867570252672727
P 0.8991034210149261 3.146400317212506 12.067589616410531 0.4430522396424692 -0.0193686343345989 0.04380928387546649
P 6.02061728964386 1.887980533854783 4.847657481272581 -0.94422400913549 0.2609356034119506 0.7334046056536401
P 0.4480928764738994 -0.14248376607055122 9.635693892893705 -0.4658671806544557 2.2976403719412106 -0.004318939090328045
