# total energy = -340858.84300875297 ev
CRYSTAL
PRIMVEC
9.33776239875078 0.00000000000000 0.00000000000000
0.00000000000000 9.33776239875078 0.00000000000000
0.00000000000000 0.00000000000000 13.66675914606257
PRIMCOORD
 96 1
Ni 7.921410761744997 9.201916821462573 10.044753544523378 2.0026247961264154 -0.22871093905028997 -0.08574654753920072
Ni 8.566500752626258 7.832645990548811 5.3310612597994105 0.896780728051862 1.4868761572604843 -1.015058929670181
Ni 3.703599425674122 6.798526134574402 12.015459392426198 0.6285383065658531 -0.8418640214093244 2.1250597002255853
Ni 1.957157688158601 2.396546106908496 4.8515354023255854 1.099750553582306 -0.08818729577020941 -0.3959509152792923
Ni 7.408375409434791 4.707633010578249 6.790329446571455 -1.0229828125029479 -1.0032580803805107 1.1820618501877127
Ni 8.401549176444835 8.03677881856478 12.336095749193097 0.7796006445937284 -0.44530786844586534 0.10427288847816235
Ni 2.1368722669974165 1.9858993214156868 1.782350103561695 -0.439392788513011 0.8949256771209942 0.595817162183748
Ni 3.7190160717129293 4.882127780128335 3.7718892848356056 0.3328560437013365 0.14593350144174222 1.6430732454117638
Ni 4.712124474384831 8.399887054703521 3.922250606967583 -0.7779646516522021 -1.6384023222986557 0.0209892006571574
Ni 5.777114973487222 4.2699814156704 13.288900500966937 -0.6599972964060827 -0.32650181934853445 1.0769471825345454
Ni 1.2011817665015456 3.8840890388080447 8.963235205633774 -2.404591321472169 1.8172269180414637 -2.3284218760984414
Ni 7.45659561545805 -0.06235290970571508 0.40644292477405003 0.8776303803756562 2.202962326240335 -0.33117608489575223
Ni 3.167070262683336 6.761473892610751 2.586899198667974 -0.9339023154945078 1.4468325110750373 0.19804487742500085
Ni 4.732957022726793 6.189246463232103 0.6838697189243662 0.46899827008426975 -0.24328240910656165 -0.196873482824719
Ni 7.867494520540834 4.23923216345611 9.92533383251508 2.4336543002763955 -0.2353209881676399 0.20399955234653896
Ni 4.994274308854001 3.538461094240865 10.344766518830367 -1.967955012658372 -0.9058109565749304 -2.287124045790919
Ni 7.883013881968149 5.282848523986225 12.393468830108686 0.31134619465401864 1.4377117797206918 0.34361379643847273
Ni 6.026097075230867 0.7465765298323047 9.030748162947633 0.6076570922414697 -1.5965740734089602 -0.03805926876556671
Ni 4.0236605762653745 4.4953109647694065 6.317391380606036 4.430941486239982 0.34550355726201787 -1.9225439315134243
Ni 6.855234366793467 6.8130276798792275 6.410803556244083 -2.5474114740959095 2.555536160085573 -2.8642647146110862
Ni 2.173308216630019 3.9339620288100248 6.714451721528 -5.436801780130031 -1.2034955945814563 -0.06112643499767538
Ni 7.416321845400282 9.044183335764492 7.148671688683419 0.22728783345051826 0.5427997294464523 0.7853681432051248
Ni 0.43515280963832437 0.9103384750595527 3.6346745986564066 1.529802010089733 -1.5995557817451034 -2.5005078675658354
Ni 5.729875232536085 4.440741080183828 2.2601129914582176 -0.43364225918247895 -2.4190699747043176 -0.14800221104531283
P 5.448295001585006 5.757132161541099 5.215248725480263 0.060866753578385495 -0.3718342247367467 -1.347808272590324
P 7.537357924113195 2.196531232195442 9.397331914322983 0.36482925417382334 -0.8957214335494121 -0.27370807258627056
P 1.5329151203323557 4.480445246723506 4.215498372276924 0.4202591530073536 1.0730763867252295 1.2864306408137909
P 3.568687431750023 0.7602077956635893 4.986467939327386 -1.2398941878151486 -1.6465637750635256 -0.6152706429226693
P 3.076867476048037 4.981108063599781 13.081903781164108 1.0829666492557477 0.38421820022339637 0.36250703379854987
P 3.6143957796361295 3.5842628197528885 8.265847207805482 1.0362383919612734 0.11181059161610422 0.4794402913532001
P 0.5471779474502995 0.9994954322845871 5.7465851586938355 -1.013275869627829 -0.19920110251663112 2.092530103028996
P 0.2365544735104232 5.126991928569064 7.342493759245693 0.07729507433773784 -1.1065534354367523 0.9507893210578334
Ni 7.118260463474947 7.039281667474807 10.623486593099626 -0.6282804249187761 -0.9354706884228923 -0.3268725724243919
Ni 4.251828805192241 1.4351767592855986 1.183146811832041 1.0915564478072879 1.1462728655135614 -0.3951590155056162
Ni 2.4848533277376905 2.487607967702226 9.714879339224565 2.1041435188982085 -2.976802157090886 0.028919511247827615
Ni 8.010128844128223 1.6662957211914247 4.644375271677403 -1.8667144832486302 0.46084838728362565 1.5649132519705693
Ni 6.235776534226273 0.6488811224934692 11.575007402517114 1.960761066013094 -0.5672702037839907 -0.19687296860408676
Ni 2.7113407593980603 4.525107765199348 10.865033034491542 -0.27856231535477827 0.06262024593438248 1.4490961102982334
Ni 0.6394863995500144 6.156190783657676 2.936658169405697 0.26943232802905215 -0.28363664455389215 0.27382300089758005
Ni 4.324635340119303 2.279740034649598 12.511918348583714 -0.7273715120856827 0.857757295600813 0.40082007044613555
Ni 9.063577868667341 3.7834372958326936 5.6658424593401335 1.538591840467221 -0.6976937825155919 -1.5641732884807513
Ni 4.894575017662999 6.198257404133042 7.3793937956791 -0.3382594741050949 2.052584930094626 0.6929765795455808
Ni 4.41516494844531 1.385733306362834 10.433696568424425 -1.5286864084280511 -1.68105949484755 0.06470258238470791
Ni 7.604253655319747 5.787283796949524 1.6075658633712682 1.2676518175443912 -1.5570492758414605 0.4693916488679465
Ni 4.425184367706145 8.223067182268116 10.289935176892223 1.819198697055854 0.8704150935741396 -0.9927782638951096
Ni 4.685175691545341 9.01347143460057 12.773718397036912 -1.5724026183690791 -0.5706910565400817 1.0618000424804617
Ni 4.155098922505381 5.812831915400267 9.672935977215412 0.15660460800234322 0.23792860099381608 0.35631658871712185
Ni 2.0525055819818965 1.4235512448589998 7.46419655420765 -0.8709005178509905 0.5214950544314051 -1.3860909702206063
Ni 8.345354521168309 3.34133158816863 0.13878996672840957 -0.520488981764394 0.17644298288450905 1.1829514518815176
Ni 2.3241130824850993 7.338547620774464 10.402426269057521 -1.286828647583158 -0.6354260348246218 -0.19246352668248146
Ni 3.2908236303104177 8.237045812867809 6.1989278554871206 0.26626215783118656 0.15612381171118275 0.9564213225326303
Ni 0.8482815724279928 0.4960088760005986 0.4341359272920941 -0.3968271472366585 -1.1814879799621136 0.6813549361462523
Ni 4.499139447431981 2.1786214035446654 6.032206773294581 0.34925145434022437 1.453812027716664 1.7444199613820666
Ni 6.913679422854578 2.911150203334098 11.654985339114562 -0.1986020354800515 -0.57467858043292 0.32674118905285016
Ni 2.5339045946316063 6.082459810234041 7.946154898836599 -0.8558541650408292 0.5267164507313445 0.11742999468541065
Ni 9.224719637711374 2.228354327107771 7.720256679995763 -1.3419266169985664 -0.09465130622799828 -0.20930528083016858
P 6.246458934631117 7.683008345017687 8.685020304320723 -0.5562463418696614 0.7992934950369653 -0.12815715129492766
P 9.198527213641807 1.958184842043682 1.6596229560434348 -0.5125797542196463 -2.1098796500510373 -1.390357201696128
P 9.688395576962138 7.573513740868048 9.308456957528216 -1.9270590457749586 0.016336532376494448 1.1963186172170428
P 6.945866690507982 9.264237048999219 3.5099519712723115 0.12563155665959652 -0.9762992924034799 0.41503724248678203
P 6.0474338627527775 1.7354792042329288 13.574330691434552 1.5868123660365059 -0.10593690644414659 0.34837702215507094
P 1.1576771305870677 6.78722744183851 12.289040895941275 -1.0285549072740867 0.6252498656225683 -0.1417829696084784
P -0.1253249130712563 3.7866774994519954 11.611552603972038 1.3896059253524005 0.35255660745405737 1.1608193958691684
P 7.741425387791024 3.9047348318981734 3.2214468555832667 -0.3389498153039001 -0.013287204027209376 -0.25844780399309036
Ni 8.51130523794704 8.010651758833356 2.455219938153103 -0.6238061911975064 0.38307560197852086 -0.012291929993475604
Ni 8.13236949421546 6.655032736828581 7.975538036383732 3.106525367321353 0.2268980542112673 3.2814071763663297
Ni 6.501912105850772 2.508403164993821 7.559987057977789 0.11191189308065888 0.47304338668792073 -1.133335588626603
Ni 0.7535116861091201 5.122295033985465 0.20748695233888884 -0.3081569982927596 1.4823016505159246 -0.0591759961395239
Ni 5.837026058275221 0.16129397457427602 5.370735545498794 1.888749865782115 0.1662166771708105 3.112923043317581
Ni 0.5722918599405309 3.640037275712789 2.5062517444927064 -0.6510501145151238 2.26485520709039 0.22579967894076597
Ni 1.215645960756005 9.365495746543026 11.847590699211144 -0.8902827790323442 -1.9043479773306884 0.08131293724787932
Ni 7.08117087046093 1.7367771532331675 2.3669323266253506 0.6175679235972783 1.0534786670989598 -1.983389087825255
Ni 6.4175921096482105 3.5664557064906193 4.944387312208134 -0.652738043740508 0.12386623722905764 -0.004615644395140438
Ni 1.401607502768632 0.024393037218156423 9.523749345617462 -0.05293824275992818 2.4411503515431248 0.13308981270985465
Ni 3.1825709485854676 0.01866805497321836 2.6438072590065005 -1.9190168921967725 -0.480677763304727 -0.11719036787077881
Ni 5.2096404652677215 1.5555125058041386 3.7225382757624983 -0.94975882291079 1.3693602877294868 -0.9643932849945135
Ni 5.517431795813551 8.889998199851236 1.5498790336325987 -0.6348699052108356 -1.179083484285679 1.1626888449777395
Ni 8.836380767050006 1.6949066257722276 12.248423496220134 -1.1976378502490987 -2.4853653554974424 4.397941634275194
Ni 1.9202735259216 3.2537246995338087 13.064260078747193 -0.6471538647845113 -1.4633662470640023 -0.1875216092961738
Ni 1.07519667361506 6.254629476898807 5.673905617338019 -0.24288568788877526 -1.1528476905176017 0.02681866285474091
Ni 0.6702281815542308 5.647301397938161 10.158556592332802 -1.2954130468180594 0.7131952205853007 1.7303056334678717
Ni 6.237653424507195 5.1845965859969265 8.973553433297543 -0.7547738153580357 0.9984622016537642 -1.4102403137733004
Ni 5.594739132309787 6.5512248300972535 2.9778498415262242 0.33011859016551537 0.3542139405518222 0.527781144550433
Ni 0.6837744737459314 8.46949073706165 7.473995602271324 0.24763502964830253 0.34599540929677186 -2.5331968731584245
Ni 7.5440250866036305 5.869091935014933 4.317492885512953 0.6095116289517051 -0.6453566636747724 -0.42019101877357956
Ni 2.7081192313039426 4.605543252163785 1.5686703470720267 0.44350835334328137 -0.4207312075477657 0.018176156688394503
Ni 3.9976455696850492 0.6226018572318004 8.107122051720168 1.1882535808207213 0.5696831841008576 -0.4548865132732359
Ni 0.1774977939995591 1.975721160190793 10.382555510262499 1.2683688982160737 0.692533321360575 -4.694321437427367
P 3.4469230075549615 7.885254944990145 0.6425165035110035 0.37588756887051394 1.4068238318925836 -0.18497133207049435
P 2.117281641080144 7.664631628237329 4.532963624867699 0.23667210287889562 0.5725216819909171 -2.0058731278603843
P 6.025546147237959 4.948855431608236 11.262284799546638 0.970870922299057 3.1112374280850417 0.3983332994685398
P 1.2124711214748454 7.707958846662565 1.4560840097282937 -0.17811317149808034 0.32415877303765467 -0.2984436276597377
P 2.395565641836373 1.6590309418951243 11.63947344789732 0.8374836329534415 -0.0040955102256123015 0.4214644861693645
P 2.927173803941362 8.27449024086031 8.545304965319481 0.5630224842512304 -1.3833265201015916 -1.3103925509460272
P 6.808797673425213 7.279532961195263 0.4865310469700781 -0.1749167760479697 0.2179074206768828 -0.7824118887902783
P 3.8427507638148284 3.041953581717873 2.8124276421101815 0.43490338528308975 -0.9771115038921301 -1.3106720298596588
