# total energy = -340866.1103229734 ev
CRYSTAL
PRIMVEC
9.30013372601201 0.00000000000000 0.00000000000000
0.00000000000000 9.30013372601201 0.00000000000000
0.00000000000000 0.00000000000000 13.61168577994199
PRIMCOORD
 96 1
Ni 7.319949357516799 4.8272995803026335 10.934389650889546 -0.9795676787421065 -0.33041632391159226 0.05374582626288809
Ni 7.0229867832741935 8.768966013507628 3.685268252813944 -0.15373988486003845 0.2991455388227687 0.7455929201897159
Ni 0.5628450311427713 8.044969192874442 9.480811279241019 3.6140122803991246 -1.0268795764541927 2.247669953560355
Ni 8.424172850829656 8.684278994590176 8.132220258696742 -2.5903720368178353 0.29806156172997056 -2.1942043775420466
Ni 3.584448291691781 1.8132935991028076 3.5419783004125764 1.055963895414659 -0.41040951390678354 1.0632156918810658
Ni 0.479470261112784 2.3657401505781506 5.6561042594565984 -2.928554377828092 0.10928011188476663 1.4083929761519165
Ni 6.873887037251288 8.356319074196477 12.901237760133585 0.6382501345369782 -0.004144875406308991 -0.3749421742381091
Ni 2.1088053524634525 8.241090415687008 5.5192388395248315 -0.12784964735683788 -1.746903904146185 0.29469290236805373
Ni 6.96269401546815 8.743855652089099 6.106351639958532 0.1448199566625893 -1.930642906471475 0.5867241987435443
Ni 1.6135360239514847 5.7318584998027555 4.4068377385100055 0.9538255367809959 -1.8464919855541684 0.3955243692648349
Ni 8.692667715330737 5.945631376679161 9.055881653142663 -0.10730241933310553 -0.6533808195308295 1.0625037534157056
Ni 8.014706557298187 3.9678556101511337 3.1144762572889015 -0.09343208910891651 0.5011792256921884 -0.12204229664644141
Ni 1.372625356475351 4.019880558956781 0.6455846020302083 -1.240641350393818 0.9331654373284831 -0.11871503204542133
Ni 8.837573100983363 3.594864441613541 8.25950282070049 1.219754993863112 1.0122548845624824 -3.328139804536178
Ni 6.335344185894723 3.3894802854776955 7.7812155366145355 -0.7236287572137988 0.1614719633969735 0.300657861702237
Ni 5.529859592391483 8.42473085886118 8.257379600140546 0.6424932260840484 0.10696251949518354 0.7642125921734323
Ni 3.5614769610607566 7.044070186731899 8.20320539040015 -0.364476755930411 0.08542927340909802 -0.6447249436280446
Ni 0.28712675267362797 1.9432071689751866 13.291266773900343 -1.0850777820614796 2.1647572759255236 0.01829134211002011
Ni 7.988721983296939 4.129352434607707 13.257918353909766 2.168437810100904 -0.30199612089768635 0.6112347822903988
Ni 6.39041027847217 1.336401335095659 9.389313772298829 0.1482860608343188 0.6962148839772203 -1.4413038679473242
Ni 4.11478842498496 1.1839814412851917 9.00960232703493 -0.30754687551258647 -0.16405952161849166 -1.212228346468764
Ni 5.747203720669635 4.126264790166614 13.183775826761323 -0.5851643104555924 -1.488832766766223 -1.1226706527135892
Ni 1.6129780159199618 8.039900619921443 0.7554526633835148 0.32473881391084075 0.7660617295670291 -0.04588622100915324
Ni 7.125371956924779 1.4356058629665638 0.18703499203260193 0.30204265786490564 -0.04056943678193013 0.9459091101473968
P 8.024471697849837 2.587083336415549 9.684524201322452 -0.6848356956060012 -0.9125927553834541 0.9784554195145342
P 1.648662629535848 2.6524446771745924 11.89819228309645 1.0000855961898 0.49562281465033353 -0.20552730184497506
P 2.2439455975644287 3.139920493512958 5.1380031023214885 2.9619465801352924 1.975631298256707 0.408716956695709
P 7.652522144304419 3.2191483338553444 5.52336344889117 -0.49017978925789124 0.7785405787603302 -0.23737864202761702
P 9.068969731522031 9.331754313833862 -0.21069546258255684 -0.6822663922169282 -3.906625931640646 0.5524056279673325
P 2.1687726155844413 1.0175741461512178 2.1152698755086448 -0.2411481363723782 -2.0028536243077695 -0.5808425431517867
P 0.24336869285499166 6.760397503773397 7.312238616534538 0.16460202438552296 -0.16108964035689033 -0.8860427728090675
P 8.903873755262136 2.594011936140291 1.6606532921198884 -0.36313926806591007 0.7258460765800919 -0.22320697851292529
Ni 0.2497030140261619 3.8368167240818503 10.606797085783267 0.4283822963351203 0.33420947240543736 1.0355745331250292
Ni 1.353364779253954 3.1426733331351375 3.1876664507302106 -1.3524861376819675 0.656194891940857 -0.35654181735405044
Ni 3.120687816693137 8.295784502910106 2.8878961660756612 2.6773385728070664 3.354875420758809 -1.3139923524821435
Ni 1.5455241450427073 4.783030943135154 8.842941138246614 0.0352541952166038 1.350692021896022 -1.1719304181806656
Ni 2.7458273212499424 3.4859598741279973 10.210479321501246 0.3854978382667683 -0.6991616253103701 0.3173224668421116
Ni 6.040818246723102 1.313495105401646 5.20320262075139 -0.5032160536165592 1.1486722189836733 0.09588337886288648
Ni 4.961472611482304 2.653160787481714 10.811720885293106 0.7606760397750835 -1.6854715078723164 1.4670622078583508
Ni 6.5687217449452975 5.318793054467963 1.280995787632369 2.160960527887253 1.619136017869876 1.038241281323915
Ni 5.498239137271854 6.471674848129614 6.77905543232075 -1.608190831712282 1.0367382144158275 -0.42857075819684254
Ni 1.2226606980035841 0.8025708615653045 4.200851863713502 1.6894325494025937 -0.3187016065778253 -2.169882512967231
Ni 8.459215755209293 1.630183263558583 3.5813838975853343 -1.6128707536864548 -0.05495064520426665 -0.04686221176917736
Ni 1.964774179393545 2.6121657974325014 7.569499849347677 0.37732584397893726 0.7910171139607861 0.4270108699088904
Ni 3.7054337330597944 4.345868850972432 3.7942714017183903 -1.865808426494593 -0.2935952984285008 0.7894891073520338
Ni 7.417684464238026 5.518894734572059 7.1789258477367985 1.450970958723443 -0.5026501538107602 -0.6770300835186533
Ni 3.5680242552972916 3.5326279458310252 12.669035738002751 -1.1045603162661235 -0.25997272527804904 0.2217278228642375
Ni 5.797656946853159 4.608467430607088 5.024617730342816 1.4918610120695854 0.12855361540239796 0.4447355408821631
Ni 5.480875787357635 6.98923659750092 10.929870715847597 0.7532020999955416 0.4712803812502271 -1.210738906407431
Ni 0.7048078544425005 1.3096262497164208 9.670599110895798 1.5222154559917267 1.315519073539315 -1.067694810698342
Ni 3.6778681363025654 8.344526504463628 12.25032697144249 0.4134146192816945 -0.8445904192015519 0.34930570461692745
Ni 2.816973345269106 6.254823626945975 2.131058712760584 -0.08446768082677711 -2.340471093953492 -2.1249625125260887
Ni 4.6443287467662895 0.7491750730288826 1.3600208850566355 0.03321916706444602 -0.6408991421240511 -0.70965481153221
Ni 2.871825534767803 6.116623637805482 10.25346547020961 0.7043696518738707 0.5324507821119604 1.345287563050999
Ni 8.108042700704242 7.0477251393383735 11.034489781651045 0.5234166969341503 1.6237678602149326 0.6672349518051025
Ni 9.029760367173692 8.700777432055535 2.216036825867813 -1.2009064936980414 1.3512489228407567 -1.821242209848444
P 6.2933354812549105 5.933494701993539 9.092864565445227 1.0748296219709104 0.5043805062383055 -1.0212928263950347
P 4.213834850580267 7.64882999116251 0.704261936584994 -0.16638251332471343 0.8325944231819402 0.631507416496506
P 4.501348488822417 0.2338686061183151 6.694063369012733 1.5201927691347432 -0.020416358872822903 0.06736110305347753
P 5.718968514274578 1.308714836598267 3.126713373420198 0.6436646206843302 -0.7807722963043263 -0.5056334048088001
P 4.590378670251889 4.888987368187485 1.5272717023315947 -2.7067823319894804 -0.15196016725179637 -1.4002739465892078
P 9.10738858449238 8.671751714282488 4.470785458922524 -1.904102436978785 -0.2892030828980761 1.0149013210463942
P 6.766554192387867 6.787646895979431 4.991568774662489 0.027977716159848585 -0.10340154161680255 -0.6765256330784092
P 7.26200022344315 6.193721747494222 12.868597080329657 -1.0655924196433584 -0.7787393250346976 -0.11526229761013053
Ni 5.4292786447094885 0.23197602887806673 11.277595280717836 0.11439403607256429 0.46374730609797554 0.07608717007256573
Ni 8.021170150329993 6.565531799031758 2.9644483579068956 0.4858773052277955 -0.39145482718115165 0.009221004377635733
Ni 4.856613602225301 6.304012034924715 3.2775578245549997 2.286516237003591 1.1316785126391542 -0.01783728529173702
Ni 2.6058789069440107 1.0356257059709821 13.409279892487111 0.25184778217806947 0.42635703837497546 0.7099911118257064
Ni -0.29391120032356005 6.453130381215338 0.5563786480708072 0.14351177937412704 0.10450968707931678 0.3464384103714614
Ni 4.4422461381502885 2.9025624771708536 6.068143900026776 -0.3130896597076866 -0.9993525746785176 -0.38874385600789174
Ni 4.953939503056745 4.56128785154183 9.902025501862816 -1.0129100016479782 1.9008345648607907 -0.7317626991748429
Ni 1.250263495296248 7.58807221666353 3.3686200852325996 -2.6248893538684146 -0.699819313499027 -0.11889166683260169
Ni 2.375486690862083 9.425685665806876 7.63724481441471 1.0019033661248293 -2.0035799609508333 2.370363767747866
Ni 5.537560103226498 3.4999100749160688 2.6974824354121885 1.648340150237658 -1.5834460206674341 0.8629966896228816
Ni 4.659841370042625 8.588059809687918 4.533467431116873 0.3928537644112073 0.3062816356469177 1.261755249554298
Ni 6.637459034295054 7.901979634796711 1.6582027068481173 -1.686123796744335 -0.13275865462268105 -1.7380395117770198
Ni 2.9870541932772725 1.0855023238552666 11.033183112843897 -0.5575223803686076 -0.568418201345505 0.12303268558416876
Ni 8.784385635445377 0.33101687439305805 11.18702313709459 -1.6535070391505784 -0.1253389651198422 1.719920947799438
Ni 7.392620603488791 2.4240984905415823 11.631063608259216 -0.6979544923761464 0.004171100658554107 0.6460909707376357
Ni 1.0692735902718102 4.798459865206761 6.473935710670668 0.2004534868664935 -0.20307369809815995 0.5722555728137242
Ni 3.801355313678573 4.843853818571144 6.974913461345115 -1.2410632684225853 1.7976729071689364 -0.4202555534629278
Ni 1.4317649076829149 8.591510159349502 11.941831301201695 -0.7669212493538469 -0.8693416580043029 -0.2505504035228846
Ni 4.4740897964825255 6.073471016701047 12.747874832749845 0.06061375702731496 -0.47303927292286274 0.9993428044865047
Ni 2.119630708274996 6.031443711793518 12.898624422519287 -0.7624333887858225 0.018594475172735717 -0.03227017288761539
Ni 2.8927787363514863 1.089389779808209 5.688758889461317 0.503387803307733 0.8530894578114985 -0.4423675548706188
Ni 8.535448952449173 5.4643215490891235 4.974213794868743 -0.10041366263307223 -0.9374756346680629 0.9916881161547243
Ni 7.698074199944402 1.5494116009956498 6.915131270887914 0.9039541058718497 0.19988450173690092 0.8338290669199898
Ni 3.0204695742316323 2.802892942607013 1.5594631856701482 2.319398589553909 1.5779397461372244 -1.7217996528793893
P 3.962415031843786 3.265211896857556 8.322348475250752 1.1464631271474965 -0.4800714971792958 0.9108222937465926
P 0.5249069950929183 0.9176646681338225 7.508955047914062 -1.989513198445122 1.0293632621079951 -0.5420587375153697
P 3.0895230681325856 8.386665410977463 9.825609091985918 -0.31208178726846253 0.6323761922547044 0.6996107970326467
P 7.184771911880388 8.863725077394067 10.016989106557313 -0.5593730604241011 -2.240761913586612 0.2183313955881788
P 0.7271105054490831 5.498573942090768 2.340665129668285 -0.6853967103157939 -0.2941491140494418 -0.0446214953641167
P 0.8859177311937156 6.126007472868924 11.055874509445774 -0.5869823375009375 -0.10844476046766484 -0.4209420380069912
P 3.6542922969707243 6.56024932300001 5.0491728737699795 -0.44435193229049924 -0.15521004164766172 0.9428631242322214
P 5.128540216120247 1.7682530508250545 12.937675684592028 -0.5541606629852263 0.35112681698606624 -0.21914437840777745
