# total energy = -340893.47947123164 ev
CRYSTAL
PRIMVEC
9.02361469652966 0.00000000000000 0.00000000000000
0.00000000000000 9.02361469652966 0.00000000000000
0.00000000000000 0.00000000000000 13.20697222932564
PRIMCOORD
 96 1
Ni 6.401749112270116 1.995806944107576 11.409700814448291 0.1154463885964786 0.3500196999648166 0.00914464261374554
Ni 4.373475203460678 0.2644803340796661 5.996678158361538 0.4105722647368929 -0.014492280078904074 -0.9289557701225097
Ni 2.6879091469058314 1.8357460714334153 4.823305089641121 0.40907305448354714 -1.5682664847135184 -1.626376244372057
Ni 3.3987443732507976 4.228691310008377 4.961040637865899 -0.13806952531263317 1.2790580024988036 -0.5833933345980985
Ni 5.104252617685331 4.332101931321145 2.789616109815122 0.9530462354128102 0.8033926048070035 -0.25594586350684306
Ni 7.137733152018108 5.918570654258468 2.6065540439711317 1.0967302786987436 -0.04012643570724057 0.09245069903225368
Ni 5.025422322066802 4.748325170297824 11.530915027021976 0.5363987110161149 -0.861376123300323 -0.2746418972544496
Ni 5.761740235548528 7.779312137649681 12.352586406990206 -1.0751468961010129 0.3563207024821799 0.21751481322415445
Ni 1.8274623933910834 6.523784473756493 0.4276850340195658 1.1944509678806847 -0.18335642217489068 -2.1883288925978763
Ni 2.7604048651978714 1.818871912458295 0.27221176691917565 0.30700334430429066 -0.8353372760344002 0.8696465908392312
Ni 0.7387281208946956 -0.4261645549889199 4.284156760795741 -0.17569350631299419 1.0431346048604746 0.6208417092525437
Ni 8.833405656729177 2.304730383954227 1.395382859146446 -0.4863120787723689 0.31835733586452913 0.10713864006173161
Ni 6.859408788687304 0.4704623805636591 4.82470465223847 -0.5361282309635476 -0.3150850928711606 -0.6586497812392528
Ni 0.7778617319338941 7.0162301837828185 2.291726453206074 -1.5094144475723166 1.1773783286691142 1.8527670199296027
Ni 7.627002549766765 3.811304024770847 4.051343899179865 -0.5918556064328387 -0.22052968879107826 -1.1650123509045935
Ni 7.501276529980482 3.750638264990241 12.817168098032964 1.0540221983072557 -0.1878643373475732 -1.5898524384144104
Ni 7.88140531125637 8.560333036993837 6.9515028951494315 -0.3209497791820537 -0.7532062137605996 -0.852904338383886
Ni 6.8728810450241244 0.7093724984466419 0.3179587849706016 1.1066336538553845 -0.09105176180219803 0.18095321205003675
Ni 1.8602903026699535 6.4865440170237 9.34724725891909 -0.11382247983981042 0.4153483459692976 -0.16160231832725072
Ni 0.08404143294908087 4.85275546004064 1.191834481472929 -0.13246426331071381 -0.35467133980421495 1.5853951739740049
Ni 6.362938546627339 1.5806214207897942 7.030519979586561 -0.8316528852042774 0.7164715773437274 -0.24516702772378424
Ni 3.7239825079782065 4.399625638064901 0.5481331417285502 -1.084708828757835 0.5422037477336661 -0.31002490473943384
Ni 6.052769847990011 5.514186397407648 4.769618193256964 -0.9426155269977895 -0.1118113629470526 0.6373417637900959
Ni 5.3639883353002284 2.8770531288724053 9.305170144854392 -0.626304789249644 -0.32956657431678726 -0.551119047945425
P 0.13652006736170444 5.56901387865515 12.405850095857822 0.03838245643294035 1.0896666869837428 -0.8127023122437036
P 3.993617130617546 6.28862005822141 12.64838319493252 0.12754908539728355 -0.15984214110303438 0.9866742078799009
P 2.408402690085326 8.423553089536687 1.4429147481311764 -0.5459207915739371 0.11596472299379383 0.11904361902943371
P 6.092915908567717 7.459109179771533 5.723887977757707 0.341438900274341 1.3906575065453664 0.735773620106449
P 4.91860077450131 1.0231064271433656 12.761090846187571 -1.2341503433528358 -0.024182253673158353 -1.4739131693419132
P 3.8275014126640774 6.207660189598533 8.405907411528212 1.1057926460113279 1.5210913696896127 -0.5300275173824485
P 4.839445628763474 0.9239459282248658 3.705057281444239 -0.13383543262662756 0.6033327538345029 0.7690452376753851
P 0.12234396909971848 5.508095457670639 3.7744732401329593 0.053723200555068774 0.47500693817219486 -0.9884909493736656
Ni 1.5263082855645278 0.9876706932956134 2.63962468847804 0.4564528293190913 1.2333970101265792 -0.6682173703230297
Ni 1.9460236633237589 6.56837917624582 4.739255535439058 -0.14243114471543858 -1.8444610711670688 -0.41858407929777586
Ni 6.048158781018735 5.7589338914622905 9.198471318445081 -1.3455806688113858 -0.13456999679980697 0.6660316755256207
Ni 8.679471818249725 2.063890114945694 9.966417000487125 0.19700306642404783 0.9874257413339446 -0.005066872999946113
Ni 2.3301138113323088 5.258782014716846 7.177975765270165 -1.0671744194184976 -1.437224298561312 -0.8136150538659601
Ni 0.7408116734654739 8.910972646328178 9.182886633971323 0.15340898388318097 0.40242623859099086 -0.934190536158888
Ni 1.4803600409114201 1.1203448961892986 11.359963554098044 0.17517645746725957 0.693820929823747 0.0570383809712308
Ni 4.096459264221527 6.887905363042079 1.6145790865946992 0.7058750327748037 -0.3109386748029548 -0.6063131766190655
Ni 5.459097231341815 7.9150994875200595 7.991709973989989 0.18478878374604302 0.2093903843448071 0.00012958359932880908
Ni 5.335221052512697 2.8049544496150736 4.7504953495670845 0.2750501884364618 -0.5831459944739829 0.4150089603520079
Ni 0.8985498677865887 7.241450576221333 7.148035412607357 -0.1581971493004437 1.7179481403437835 -1.2444183009377472
Ni 4.8114814476597845 4.765298589031622 7.11087165659718 0.5085932587680725 -1.1871521202264264 -0.0316685347478745
Ni 8.021235240389238 7.290439778935733 8.977980202326812 0.5576313951426461 -0.22528237298471523 0.09276257384571766
Ni 4.568394298659378 0.4106385240089244 10.387943417661493 -0.4717015279480457 -0.10018303467950489 0.13558429699693425
Ni 8.05778087881129 7.180252423189642 4.724991908117148 -0.5317509278314584 -0.6398563026818335 0.13953788232804357
Ni 7.070155303587802 5.975455519594915 7.059166345940795 0.3915108772300677 0.04391804153918888 -0.3931494412747552
Ni 2.422966803767595 5.31982676630331 2.444689350773374 -0.27102641198904937 -1.2064726749319092 1.3277865780527587
Ni 2.40997279899531 5.368039938177142 11.469951487965337 -0.4735033570434749 -0.4509005320422944 0.04930913064777314
Ni 0.9896919829268578 3.4594281802602542 3.631481436505503 0.40774585103169136 -0.23964095569923247 -0.11529957860596918
Ni 3.507217242256102 2.81845377679517 2.7125400048408514 -0.5740864553748758 -1.400692007963233 -0.19393342635978858
Ni 0.9510438423437352 3.188530251601387 8.154618699376742 -0.7743548228137568 1.3369137371650073 -0.7820046260495307
Ni 3.576924663690756 2.6385409523855734 6.7702103600942225 0.5098333018227607 0.2704126896644504 1.4025455162322038
Ni 3.927961312059806 6.787328156658823 6.144279224237386 0.8503538040478903 0.34048913476656195 -0.9725416251332607
Ni 0.9165916824683294 7.567112820826726 11.48208824936723 0.11177382484089782 -1.004810255358979 0.3275788544627971
P 0.15772736598380457 5.595326738319027 8.11831218673696 -0.5957762816434836 -1.8750677403093323 0.6155943448106753
P 8.374536815979011 1.3140548270550225 7.888563744579879 0.9415572609366042 1.1141253342467394 0.6952694893448155
P 1.8397706034670536 3.2956946965150373 10.440454537086048 0.21940226005485441 -0.11506175156355024 -0.9353791571503505
P 4.0917940555637 6.047039852830011 3.765822300983522 -0.4421330702623095 0.48050549939292087 0.15206712514330584
P 6.850466386791933 4.006421639486902 10.448682268718944 0.3712418425683865 0.6612226841727515 0.9295275834655797
P 6.307840356947081 7.819909378948646 10.171600457094488 -1.1438136053397916 0.4812588326191776 -0.3169077479021961
P 2.3116785670616293 8.393955634222037 5.762690422147501 0.17625143569899324 1.2779925373487668 0.4223808273360468
P 6.997064026743699 3.802605260464956 1.7506894818614993 0.5797061155544984 0.3767236916185641 0.39070149395489484
Ni 5.390066580989051 2.8686792146858218 0.549101375556374 -0.23727168413610747 -0.3715094944074763 -0.13720332065759597
Ni 1.2310375743432014 1.20315460576934 6.633135340445368 0.08506134854671803 -1.088145108132894 0.9422869400137772
Ni 6.712540440302782 0.794683553945348 9.327635335327365 -0.12127636501469437 -0.4937058001332788 -1.13001912265886
Ni 2.625348428095934 1.8670399662600017 9.002650764165304 0.9587597408578198 -1.2510466048875422 0.5167932780803616
Ni 6.487536614610472 1.7838332176452514 2.5332561263566915 0.587021418268989 0.16368439766726003 0.7332192291157114
Ni 3.9332311028841214 6.993228990612989 10.606241795474439 1.7744201072885826 -0.15026066806218638 -1.129860999814441
Ni 8.235121973109703 7.515001447521208 0.08140743989836557 0.3028062755038075 -1.1713647754851826 -0.08457772404208015
Ni 7.477860250547094 3.886353425945218 8.406158268009232 0.9358105882608141 -0.31063657018150376 -0.834449474112808
Ni 3.2451895265772044 8.50940375717802 12.522692367242497 0.023316306128437263 0.057249725651088504 0.40252111229764226
Ni 0.25883877034103236 4.786314587027908 10.26356011170168 -1.1646498253588522 -0.25875325104865116 0.01615706937583669
Ni 8.233073612635183 2.281214844762161 5.75316780184459 0.9007787934676615 0.4121815182055417 0.40107820920352866
Ni 3.6097074548975003 2.5188517306497484 11.416013735100162 1.1528402343184339 0.6348717049830486 -0.31335911131898936
Ni 1.2300630239852801 3.6150494346372173 12.548115498524048 -0.9455005618550685 -0.8693992507151156 -0.2942229047101707
Ni 3.038305118650692 8.374329272847232 7.909602301612229 -0.5186223608693004 0.43179852110552086 1.0860015794273294
Ni 5.686519385700078 7.833859886850003 3.2506054999552085 0.14583734218351013 -0.025911834769755376 1.1322469835481144
Ni 3.299592897946723 8.393621760488305 3.574810430830932 -0.80841628327384 -0.39389274719868295 0.8485848850729255
Ni 3.6655636281894752 4.440637965627426 9.490147021679409 -1.0811193116343638 -0.7088058332683534 0.2338066084056425
Ni 7.2786820093396996 6.2849023290782275 11.279955676797025 1.168766161520071 -1.9871791509953067 0.5792985957034346
Ni 0.6793761993743989 0.24484494909043542 0.3400197175173255 0.13406708902145945 0.10267109120868124 -0.07176900231318607
Ni 4.393038399534507 0.35429417317654605 1.595045668448473 0.5370479145643395 0.5572138479892533 -0.33403360894920536
Ni 6.064311050839839 5.400885894684862 0.49045961249134024 -0.5984006066402081 1.4584814081678754 -0.251534878923341
Ni 8.103295989971986 8.814239499690057 11.001817199923382 -0.5832892049200664 0.7549121407081129 1.0849808514722992
Ni -0.04343155858992012 4.900318931675858 5.887034024203843 0.43075671010456784 -0.39764038716657324 0.5986299490421948
Ni 7.945454926446425 8.715160213301383 2.395784067673129 0.8569157735361241 0.4362704408339454 0.48564436328138294
P 8.64898102510698 1.5042726191381945 3.7098118238848756 -0.6256725549822837 -0.045069895755444955 -0.5448635539540165
P 1.8857008008913108 3.377195982003425 1.4083913017018117 -0.5908459342214019 0.21167815193771927 1.1496914042768072
P 4.557502796048164 1.1351526474610483 8.134979704941742 -0.12976254810883459 -0.6132150459452212 0.3242487616482997
P 8.534949609615754 1.7760909564684317 12.163991060780683 -0.3601621877154571 -0.741892074299361 1.5449437508271782
P 6.484486632934755 7.608260502605629 1.2179551381495495 -0.887861056964729 -0.4701143859665839 0.858872640152179
P 1.5546334112452243 3.347237582111768 5.8593125783281925 0.24208376081277017 -0.237022801350095 0.9891136705593288
P 6.616050931254141 3.7555741820808244 6.343915865057579 0.11145860759332418 0.7289059464523382 -0.932521375986581
P 2.482260974155571 8.515873688720887 10.354662522938478 0.15205658362034455 0.6164978304615512 -0.8438921075829466
