# total energy = -381173.1383808285 ev
CRYSTAL
PRIMVEC
9.15676403606870 0.00000000000000 0.00000000000000
0.00000000000000 9.15676403606870 0.00000000000000
0.00000000000000 0.00000000000000 13.40184974667968
PRIMCOORD
 96 1
Ni 6.051622835867296 8.128312785972309 2.4407985932596983 -0.6868380707480107 -2.2658013730537427 -1.9556353147507548
Ni 7.528700416971825 8.945563118816896 0.7964855393992288 -0.5725185966671237 0.7200263845745212 -1.7306069667583746
Ni 7.818374642241442 6.486166222445291 6.167678408281859 0.2244591057524715 1.031750531393249 -1.7611830397730184
Ni 0.02029505145843456 1.2867176168519594 10.418369985248887 0.8284896569849474 -0.8922211337056376 1.3205628066108097
Ni 4.498058806092714 6.4413255497364155 2.5729673230697703 0.41412861462958356 -0.168794979420948 -0.8152451332702152
Ni 8.635615818322151 1.1976680881417643 7.7852949170570245 3.0050169289622053 1.1686517474293936 1.069788717112893
Ni 5.39196956612103 0.981467736226452 2.5312472754903985 -0.34051973089418125 1.9173150790143172 0.42852036457488135
Ni 8.342571903945558 3.151355229078237 12.142062109488359 0.5859965765489005 -0.43610100513561667 0.5954137560977423
Ni 3.492362272645987 8.337810386729178 1.6560932305890725 0.34337648361668605 0.7490747080907293 -0.5718789062005958
Ni 3.1856473098000553 0.5306491175323119 3.533049437259959 0.03395758789236732 -0.2541797727453558 1.064275757714464
Ni 5.688593775173786 1.221301695709992 7.515220744867529 0.03630346241672457 0.6371301619999221 0.9389995275117571
Ni 2.383203464145636 6.297967254467848 11.613667387222726 3.021169884572984 -0.13378709588719537 1.205524709196343
Ni 1.481756687446011 0.8976531294251124 5.200373438744975 0.6775749002785298 0.7791424740103872 0.4379457716538393
Ni 6.3651870580937135 0.057358884606018734 11.563665046716016 1.0672770064346329 0.46762221567234946 0.6125247047464162
Ni 4.834249391860818 3.452530349778188 5.775205773339749 0.46575533766693983 -0.8295713200849003 -0.6326345881224137
Ni 0.7803723820037193 5.6743458505801545 10.286468632944041 -2.646471965135197 1.112066909055814 -2.03853179443567
Ni 1.8742430575339377 0.5057005986712532 8.828187141051174 0.8965287599420559 3.2608213817951777 -0.7951946423772434
Ni 6.701579092667126 5.205263150655643 7.59604749961559 -1.1487385534452346 -1.4939585180285626 0.06194224603075138
Ni 8.272641698211906 0.9593816217535482 5.354360905522725 0.7636754887230396 -0.22283314011327432 -1.4362498504631844
Ni 4.266768107307026 4.246476718554143 11.221904401481133 -0.5268079820038862 0.9700052318646522 -0.4570850635864515
Ni 8.858793624312236 7.727383879589183 4.219518290021939 -0.6582967687752082 -0.5257916249242299 -0.4484893514976405
Ni 4.167701078914677 0.7627520212739479 11.213502154946998 -1.2520652759600435 -1.0153155257656772 0.26235948034267076
Ni 3.426781529754222 6.244812240158061 6.6616574335133265 0.06045537707257975 1.0778825498646212 0.8487324663943835
Ni 9.002655541594073 4.6159612977814 7.379420442503578 -0.025749598160278237 -0.7969090539651889 0.6380804417283333
P 4.063048424556958 5.847170612007015 9.426230956399415 -0.7594467953536728 -1.438216230160936 -0.4271183420210321
Ni 1.6462304802164502 8.498804609226108 11.051527243038771 0.13551050633620534 0.48241017261480146 -0.03565760130260956
P 4.240799524949997 2.6559010491860797 3.3927586578904068 0.6154483061511143 -0.5491698946388541 0.839971946592934
Ni 0.6181603099110609 8.422318160556056 1.0533034645230432 -0.2524638184955136 -2.9444337680625097 -0.8367578105310106
P 8.022515536129882 5.381237838856417 11.505876709884136 0.16461719389417453 -0.9361959966246908 0.4993365160564949
P 9.078986325278207 9.083473139578258 12.395973677757407 -0.5697739440424509 0.675517760639185 0.06861862960966247
P 8.94972028961735 2.2570873552586934 3.3268748261142913 -0.3903870480382696 -0.29820348662447355 -1.0181205993146403
Ni 2.338216283214717 6.353155070358476 0.9947734298170725 -0.22793986521222037 0.22245235973508787 -2.181573319041598
Ni 3.554051390889749 2.4703666994970344 12.876148881443308 0.7064319337195382 0.4410899737097758 0.17641187253625745
Ni 0.19999471120463858 3.1708774496653973 5.196419548102604 0.45921959343095103 -0.8439867241792819 0.5931005345835333
Ni 0.9519921133042806 0.34334018700377666 2.84822788631957 0.7395659972693457 1.6281361644859573 1.9167082986682538
Ni 2.2249562708120023 4.711457188261464 8.19037916288783 0.8186230486035126 -0.05179847272853014 0.7500995498108178
Ni 5.674638867024239 2.4335931357643714 10.338267530523547 -1.7393751998693077 -0.847300104823231 0.5437800910818505
Ni 0.29616637085887354 1.6384289173926883 0.7370370812763292 0.37966914740013324 -1.180843147289263 -0.5174694782117798
Ni 8.36087627493699 4.54626001114469 3.1523295087548195 -0.2731259748305554 -0.13549893637197954 -0.3197716997135525
Ni 3.40789112587462 4.360817229094421 1.8905723145569597 0.9522103697750762 -0.27979438798966655 0.2331484059963533
Ni 7.657316322397367 7.351251489786749 10.710142025122874 0.2680729857876803 -0.5955387117113807 0.32331185165632703
Ni 7.7817475867308215 0.2530718930214658 3.038466981288955 0.37996816669779077 2.286339859326727 0.050100773311133065
Ni 1.1898024279708588 6.532096550055609 7.299116538972932 0.8143383051852299 0.6096563820596855 0.5372335482125844
Ni 6.261550804526415 5.064294770759144 10.071516347945254 0.8388352618853295 -0.9735705806184072 0.053794163002320254
Ni 1.93405503918278 3.999134212690926 11.159036807726318 -0.03318677116461381 -1.302710094700105 1.6696530527828215
Ni 1.4601925085141334 5.271393299380067 2.8425461143334854 -1.3617256540023646 1.5034921685506106 1.6176229236594595
Ni 7.11680170746327 4.411042078963359 5.174682306333439 1.1767895460451796 1.1461036869255488 0.41817501678481533
Ni 0.5740146355804983 5.3045957252004445 5.34834308030233 0.23950802966579393 1.8637494870830353 -1.7976860197950588
Ni 6.390148396424201 8.565456693491559 4.698608417188338 -0.21866692455072664 0.5561733225398809 1.0146336692073041
Ni 3.4664211605805906 7.917624805911344 8.818725456936393 0.28538679447577947 -0.7523878316243623 0.7330140550834409
Ni 4.600110939509179 0.9647291718580987 5.336040052356313 0.3211852922316275 0.6925495193104912 -0.28405701992076243
Ni 7.598593995649965 2.7374695018082305 6.666615821153076 -1.6047167571207523 0.9966781131701479 0.4806309692271916
Ni 5.383151602506847 3.0902979275420335 1.1009543480659723 -0.6945758057119006 0.10559469261337942 0.95511700189891
Ni 8.669019692947836 5.065320328313441 0.2699496402007595 -1.4117726912574267 0.9367292434203417 0.22739067757696968
Ni 7.766382536944116 2.9560689258594883 1.3258050948165052 -0.793528310418414 0.31579626000557226 0.41626700112882503
Ni 1.0731818832250446 3.779674052835168 1.1430086175268783 0.9552417004022323 -0.8412749816750738 0.13344693893895726
P 6.323386430992219 1.7625488517543018 13.109608817591612 0.9603006029823784 0.7418733052462836 -0.40367605183769184
Ni 6.367705168160069 7.109192436680939 13.036541504553476 1.2699082176787357 0.5754565962495252 0.021030081197421845
P 3.643522130738316 7.650457906253004 12.80934021651555 0.3378483547096052 0.7371275630311821 0.3679294903657019
Ni 2.9753072867664416 8.88747260877705 6.749962517320267 -1.1841069056421993 -1.0531878753314183 -1.0169438053977196
P 6.3914669704225835 3.15938571099894 8.380967130560952 -0.5800449869511558 0.33075982329394005 -0.6640820079984175
P 5.218467204167222 9.15832052751421 9.55550523314776 0.8233291958299305 -0.34418972354660077 -0.9903071766467976
P 1.2265851484673989 2.490136152708891 7.272902555343982 -0.10921403453352158 0.7253503678905959 -0.15793155434388284
Ni 2.162754373791092 0.5179734092964742 13.239057072853633 0.9096766101779238 -0.23230816948324506 -0.8177195629526369
Ni 4.4545824912016085 3.954650653773278 8.020296852242327 0.2507735752772842 1.2592530519577345 0.5531815869014086
Ni 4.0892367692470515 7.753077759029884 4.67011531503024 0.739696609309939 -0.17291671489880542 -0.1122538498011099
Ni 5.813208174784792 7.014886925504969 8.775839753315395 0.2600413737324554 1.3775291966935244 -0.23569662633950378
Ni 7.710700255804096 2.978777700276073 9.916538119315941 2.02955478774804 0.9564236365254755 -0.12080662446712741
Ni 6.687999611836563 2.3168627098520256 4.460148887962835 -1.0388717158190623 -0.9694017939526981 -1.4971687974357442
Ni 7.438204119568961 8.749892231515286 6.849980017803118 -3.6356889940416095 -1.6836383113183195 0.5716364511724864
Ni 4.660499797282314 5.678448080797344 -0.006493976942032932 -2.050661487819668 -0.5273733675890531 0.45700561649876775
Ni 2.6551318810203566 4.273754718145677 5.812971930276748 -1.346328602721004 -2.4215958264499653 2.3393565207330744
Ni 1.820172366836385 7.421566279603262 4.9499057293703155 0.6295842313318641 -0.2514037526621154 0.7318555159989654
Ni 4.985748050216619 6.8775720943956555 11.100724704000635 -0.6996272520928789 0.9484958970379666 0.5865750747601898
Ni 6.5681558862058145 5.457513681957284 1.491464688509101 -0.4644332764214066 -0.5468366185199872 0.06756653419606429
Ni 5.3534195901961015 5.791030492673112 5.605524528952087 0.23593316783034207 0.7121552093565606 0.36264613047957545
Ni 0.7229851114296798 3.4007396932861713 9.329322177253028 0.07122907064931604 -1.4286411848779912 -0.5710924057435584
Ni 7.40958923245129 0.042584446089422384 9.181110797129303 -1.337929065803399 -0.4969980977313054 1.1727863384230577
Ni 0.3767971708599525 6.923676400519648 12.535648206917992 -0.862235900197457 0.19605741468132687 -0.42771792327824404
Ni 3.316076254473373 1.926784568663922 7.253456335897005 -0.3734321653514859 0.9191894347643654 -0.49382664198185916
Ni 2.9405756813784962 1.9978776834100356 1.8050545496743764 -0.28740073958201473 -0.8656953195009672 -1.962630000901033
Ni 5.1363951295318 8.204469591142765 6.834768801649557 0.3563926933706959 -0.7646663918813992 -0.3457010179848046
Ni 0.3435645277187792 8.478732982806289 6.52773243639152 2.249995773480054 0.09427258273234088 0.2689798138726658
Ni 3.3389223803481225 5.410649364431446 4.18486177009779 0.06011701989655453 0.9298808530399405 -0.33542200465629973
Ni 8.282054851478136 6.8537828218415076 8.351778114348152 -0.16910196913840556 0.5652976534386522 1.2814789532354705
Ni 2.148909346808077 3.1588546186940363 3.7088684604748132 -0.6430694103024925 -0.416710773534463 0.36448884011526905
Ni 3.251173112108554 2.5361580479579855 9.628612835946958 0.4299650674412078 0.4608013360957741 -1.178575177190693
Ni 4.754613016416852 0.33655502497043427 0.2200196381286823 0.9585098296305427 0.1632056582586286 -0.8972563821366999
P 2.7220220411466265 4.402590385904284 13.218578886117646 -0.15584587545944775 0.9311653761793188 -0.5467954808694067
Ni 6.189532856628658 4.150101778741824 12.52530197941263 1.3388659757953716 -0.1636867116601052 -0.27847206963381715
P 8.20487248875338 6.7043078083026675 2.0632954359047786 0.3487315772810123 0.5965854078083402 0.19130318782579311
Ni 5.416024384827629 4.424392640696979 3.534778234280061 0.5008634942239826 -0.45593475203209216 -0.8407846723022165
P 0.7754112473348058 8.073454613581276 9.065546942934972 -1.8038368698878033 -2.7542081295716114 -0.12877293050205565
P 2.0579460544474526 7.490754787462823 2.853373987618812 -0.832005897668322 -0.46285667596290603 0.8518625273829329
P 2.2888063853308904 1.818679814324327 11.277898012592994 -2.3428223677944877 -1.4453600402945688 0.19139163377454138
Ni 6.755521588670391 6.47551690605558 3.830449224213153 0.6692440118153312 -1.1110412960047769 -0.03273297145664685
