# total energy = -340868.6180849261 ev
CRYSTAL
PRIMVEC
9.28714483276888 0.00000000000000 0.00000000000000
0.00000000000000 9.28714483276888 0.00000000000000
0.00000000000000 0.00000000000000 13.59267522174239
PRIMCOORD
 96 1
Ni 6.013537622771397 5.13386856630405 8.335952531205388 0.7273172618089797 0.14686141257265029 -0.4419338097673099
Ni 4.228418396219022 6.325130613760912 9.496563286377018 1.4764246229098572 1.335733343703661 1.0085177861175534
Ni 9.221577433552785 8.39228184980241 6.7766418689944095 -2.990230000461018 0.6109218790356704 1.1158227765538202
Ni 8.452351101560039 8.142708410952265 11.704476059398985 -0.9208385403320141 -0.5095358251869999 -1.2877341901165629
Ni 2.208845202347333 7.54351112366865 3.744116090567183 1.2737013661725807 1.6466398797170998 -0.440842376475344
Ni 7.514358776533958 4.020237761185164 10.262918033236266 -0.9320917446483303 0.08211897808894243 -0.023292137758721174
Ni 5.489798385971816 8.814494021015351 11.561372304531492 -1.4155462993672459 -1.7769914675601848 0.7187994541459556
Ni 7.156552953641851 6.271729531879904 4.856472699436665 -0.029280237021356025 -0.8337287938966996 0.11033015041583578
Ni 3.3795455114938373 1.5137860077288021 3.4770335978613387 -0.7889838855808411 -0.39025566466672795 -1.3341847682696182
Ni 1.1928037134729041 6.795673085862333 8.02075241322412 1.2899967608984946 0.03636799710607285 0.6310065656006875
Ni 8.665026714616577 4.716699314649613 0.6086450995614492 0.631321525737945 -0.8180088120582815 -0.08450624737419639
Ni 1.307574247366035 5.542902279223226 4.151474402586995 -0.5919795336052128 -0.6644712730170362 0.3792004352938308
Ni 4.418693416319561 7.631441809451153 0.7373008434581096 0.9624389894816198 0.010935930186213425 0.03311632293799458
Ni 4.661524388135687 5.957981923325798 12.51826954125792 -1.2303440822328684 1.1564274374490602 0.6498064719160099
Ni 7.6880098076663215 3.4336059806467674 6.82685281667957 -1.052095413598188 -0.30306158604772315 0.9785595491925664
Ni 8.560249148393702 7.069225932263221 0.20440541072348783 2.0090944630111593 -1.323590794803856 0.5856600191450883
Ni 2.3760230936412516 5.164776183782311 6.155265951512528 -1.2364458242552319 -2.24509345108243 -0.5401903168480633
Ni 3.5996601274350164 1.405061405019069 7.59996396128985 -0.02373925259846879 0.8495297654846983 0.22514970406159288
Ni 9.134891225156727 8.966506005055063 2.405780962608752 1.3898285828861676 1.2817687165617475 -0.15659046693495612
Ni 2.79858817635184 4.814474373787571 8.759636714849309 -1.7770022661934621 -0.36319017590850355 0.34763243067956257
Ni 0.5140638894772095 3.539795192860237 6.166996543951467 2.8228074759075645 -1.3475277652354276 0.7022538910824487
Ni 5.7582897385248515 8.310991472462504 8.749401352703039 1.0354408357606426 -0.9497637080067967 1.1607453480981234
Ni 4.742248249650422 2.7188951878960257 0.6344642904722999 -0.778712328451504 -0.5746515838497265 -0.13858374594489037
Ni 3.2866926390336073 5.787897155748618 1.9295751896845412 0.1425391310482126 0.9777951602227161 -0.7220349303641178
P 1.6027847151489245 3.162449217572019 8.072417727765377 -0.13225754661654643 -0.6191715206389723 0.3802427605154161
P 0.5457376963911538 1.9938385159773804 12.966419778833549 0.85316042025875 2.0563726792718326 0.2622772050415096
P 6.711856605170838 7.63848146511477 13.110760581371744 -2.774699307546428 0.41861801785950487 -1.0786309979948714
P 6.599482154603846 1.7892334316433811 1.7922759002388973 1.240785075060534 0.18237451787759557 -0.29995517920825765
P 8.74973476119687 4.10828917984844 12.071504945667792 0.12216390982597025 -0.6845415614043502 0.3232887117278755
P 1.2205444146170037 7.310877436705628 5.765972064599977 2.284364994988543 -2.465902361676824 -1.3453783229925926
P 8.479348831130142 4.455089736300722 4.9065889182461415 -1.7505525566423659 1.3718450018245534 -0.4480638339244477
P 4.393042322727327 7.549129846196999 2.95727668869838 -1.4632281788242412 1.0540656499506813 0.6430151600257894
Ni 3.9214596904223105 1.6931114842575659 11.919294216732036 -0.444033629719132 -0.24706912984250354 0.48188978133495725
Ni 2.2984661484606774 7.299900031699828 10.572572797132118 -1.4239062412961672 -1.9345232153624874 -0.06699497796331043
Ni 3.4091436415729284 6.630120444886532 7.215359153723685 2.337313265050801 2.994591362753507 0.9895962666227022
Ni 0.6728972812806785 6.2195729273853395 1.931465123625895 0.8154269102637183 0.30285821178766553 0.7692311284339461
Ni 6.1846532634074975 4.095677237379848 5.043466571323543 -0.1803513167999797 0.9432361913009238 0.011433695758238374
Ni 5.113251105125644 1.0077759301137161 9.701051352688113 -0.508142544383899 1.1962481689904239 -1.016997027233158
Ni 2.564533556253549 9.04448087174601 6.221951365136596 0.7059925321892745 -1.748199997249789 -2.1564878368278797
Ni 7.317527032292897 0.34621546633775885 10.588435240236947 -0.5891672609673984 0.885159855983482 -2.2975038463633464
Ni 2.0506851285327983 2.151998589791915 1.0525158208708587 -0.5555745126136173 0.20242192344677395 0.7487857160954008
Ni 6.742996401265971 7.780194005709955 6.665127408024319 -0.3565945249688568 -0.22262616630879078 -0.4012435311367993
Ni 2.5365049536245254 1.605951631483085 9.837549161548308 -0.8349755218196071 0.8460757454978268 -0.5728528400780909
Ni 7.382741362200453 0.9062154308062456 7.49059668816861 -0.16860985999333544 0.18573777792287366 1.0766458492440425
Ni 9.031051660546021 2.3634482997513584 9.165839706071557 0.043227957450699746 0.9453249555091526 -0.8772827672282504
Ni 3.007344614355546 3.8861128177894204 3.100964604965927 -1.4494264970544588 -0.769170964619972 1.0374483531089744
Ni 0.42777517087323985 3.4040171377123514 3.6197835125167153 1.3019752734166095 -1.548952614876255 -0.544828586951023
Ni 1.0794726870043918 0.9848831184899447 7.267160989291665 0.6874895882890805 2.5676738238893715 3.678589135839245
Ni 5.200847453699848 3.1649846080682824 2.9134404371181106 0.8853966545846365 0.08611575795316136 0.6397706849465628
Ni 6.394254831576624 8.16244359338655 3.6096298772435835 1.2525172758957979 0.26118834285270504 1.1438421445848816
Ni 9.204451938772161 6.101440447119875 11.3740245924325 1.4509161942261075 -1.4836838755754318 -0.8276041690562004
Ni 5.5629625117211345 2.04915274966143 6.186012901387912 0.94044114505429 -1.261261597747331 -0.08558508226067195
Ni 6.955541994297061 5.640073673957311 12.218944868384021 0.5488361654485193 0.3547417880308342 -0.46709771062744715
Ni 4.681900383552545 0.04181351147006335 4.6622877914279695 -0.21631359382720167 -0.30641301901845935 1.2182218450480375
Ni 8.51199314466262 7.4066278983044445 9.16569018304229 -1.1284885449469468 -0.3916908544513577 0.4547600149977007
Ni 4.272365164820923 3.6767341410924925 7.320579716747557 0.06156609363825527 0.8421219030564012 -0.4668238881407702
P 8.859332355506048 0.2011641972319275 9.032903517194207 1.09050898037938 0.2281843771228586 -0.7904154758210451
P 5.551910809557935 4.6864510844432745 1.0550363519356423 -0.28191194855330154 0.15532959794466153 -1.1665555270219974
P 6.295532483681821 2.8514506038417013 8.39847916144401 -0.7455258143972063 -0.12142368922583605 0.36703423224494214
P 7.783676684963064 6.473901384309064 2.3886675411162073 1.0148606976164458 0.3779927881389748 0.4086393093802382
P 3.3957980146750133 9.088046867416239 10.591167518200319 0.8995531485906765 0.9209025608007302 -1.5487114453997262
P 1.7495958981706603 4.274204019466565 1.2611831022856848 -0.6684341143195262 0.992710900992284 0.3618130930553188
P 6.047853622345366 1.7639445366934703 11.566727272151073 0.7234258971743733 1.1106281197267582 0.6556274494731612
P 3.3329983423829477 4.925409316929944 11.057573496063513 -0.009705400213221995 -0.24960269489763465 0.2857128103566305
Ni 9.12317084857693 0.13063019085455657 13.386093773406822 1.1609695482937876 -0.046073911539927105 2.346739957681339
Ni 2.5657223107719433 3.6274658385918404 12.853790860502462 1.0574955015678367 -0.16140460049414784 -0.09910985621998415
Ni 3.1286997338232214 8.435689964013164 12.497241588284878 0.3793531588216112 0.3478933976504331 2.2945771596348545
Ni 5.418417392000088 3.892177323262168 11.905049594229586 -0.7926338236286026 -0.9315353579242279 -0.23991914906128356
Ni 5.039864087904126 0.279973049514686 2.0233242716059046 -0.07505152971919977 0.70220863966681 0.46774357174156217
Ni 6.96116071682541 3.114100342394188 13.359166626136249 1.515857117873867 0.10541934337777974 0.832487979511063
Ni 1.4781419464663133 3.658364168925426 10.813353167404014 -1.1378792421332273 0.2549444188255222 -0.8555507748677975
Ni 0.10417947410580872 1.0455467475067703 11.090494566507305 1.9127727110592736 0.32302851608795335 0.07845387053252939
Ni 1.7854721380500231 5.834815810646505 13.217761490029808 0.1903102277849045 0.41438392517349926 -0.07832377271256834
Ni 5.6774544312740165 5.824776407252876 2.893948577874309 1.5809142553845161 -0.5004701154403058 -1.7226648290931623
Ni 7.304664336918081 2.2127643774001653 3.9531167804758396 0.20424894935318372 -1.5006865807810157 0.3084027957549786
Ni 2.1784205163921704 2.1193449891147624 5.309285083639125 0.0627814541025951 0.3252928866420978 0.680316724689725
Ni 8.99564906504508 5.637733313499222 6.73495280526299 -1.0233548511303858 1.3558018323187617 -0.8375155146326415
Ni 2.459765277175348 8.731067600400204 8.600425336257569 0.5476583430903342 -0.36368357060515427 0.6275985683604031
Ni 2.0869142799098093 9.102200475900874 1.4205300731896788 -0.13720049244411855 -1.2728855551395046 0.41173774579990374
Ni 8.97828210450291 1.3049738468570466 5.6974375804711235 -1.4365290722665 -0.08578382853503937 -2.7761478670674964
Ni 7.585981236267234 4.258508744965885 2.822097654382029 -0.32809410353631885 0.8265271339419378 -0.5897370174279392
Ni 8.986324771791423 7.555008608776248 4.117072032567548 0.09707534228845861 -0.5747824530006359 0.714237545806886
Ni 7.179733666750546 8.393284861427306 1.479249902826036 -1.4333100511085703 0.21237080712936973 0.08931241051358813
Ni 0.006532577564365448 5.031552093420039 8.984934486233582 0.3982327693349335 -0.9729113497678537 0.28526543840656676
Ni 4.487669039820474 3.311656483919894 9.910283292499175 -0.42348691591603194 0.13388736891048555 -1.350577864915661
Ni 8.874749015666477 2.2330010656468984 1.7426082505172218 -0.7813829333051318 -0.6971553935136187 -1.0552938659308277
Ni 6.816411279921515 0.5959040657818743 13.353947250828924 -0.8162419499658458 1.1279383288704314 -0.375195942120128
Ni 4.117659908825473 5.715531724441345 4.405358933995257 -1.893150823063288 -0.33796508279312765 1.322170774527878
P 3.6928659113928943 0.8417830784803221 0.44612935489435934 -0.39406372555890845 -1.1114729842255566 -1.1753093619552275
P 4.207633766436466 3.2514572121368164 5.050752336321047 -1.899727962060173 -0.36523625980425484 -0.8382405657241241
P 6.536877512349954 6.65495426974737 9.958034075559942 0.3317561257689383 -1.085922132339646 0.8552152459052497
P 1.0059463626127494 1.018400423621868 3.7363548237623205 0.17104778001086673 0.4497206528015803 -0.7016982756892948
P 5.275302492558986 5.871509319257264 6.2363873028193515 0.8752348835602861 0.15688485824692336 0.6904944365536754
P 4.49414217965892 8.805624797850767 7.2010188736310825 -0.5046689840130019 -0.26642876531603793 -1.1297275595603704
P 1.1449191955288207 7.768547926287558 12.551299271294408 -1.011702354493122 0.0474381388773054 -0.05711628539701776
P 6.865670295277492 0.32976886183287574 5.440318336572575 0.031125517760210913 0.027141336301482286 -1.0781846544860723
