# total energy = -340889.5061147564 ev
CRYSTAL
PRIMVEC
9.09911538487924 0.00000000000000 0.00000000000000

0.00000000000000 9.09911538487924 0.00000000000000

0.00000000000000 0.00000000000000 13.31747511845024

PRIMCOORD
 96 1
Ni 6.622172340417894 2.2717306245145297 11.43494374499942 -0.1345867089703553 -0.8071191617289712 -0.9414808991727142
Ni 4.910810732428417 0.6552773387928869 5.7763349593683015 0.19695010169892532 -1.92059169288306 2.0081274711121995
Ni 3.141970013009391 1.5576593521294266 4.705756709390307 -2.694623328029443 0.4344971509836066 0.49285990719321576
Ni 3.7808916920279207 4.394208460556859 4.785328472798793 -1.9033385622295675 1.871581067312312 0.21543761898015157
Ni 3.4767173662437854 2.7064590568035194 2.8044337809316926 0.29147413832043995 0.6656439531688989 -1.6532170187139852
Ni 5.119426149199869 4.2912519707950505 2.7157265057493793 0.0639775312932253 1.3116541912672701 -0.28811062116484576
Ni 5.28301914340469 4.58728258837443 11.358501167346928 0.4492557973500198 0.41312151352130794 -0.1912085712294578
Ni 5.975971369149303 7.969678525288043 12.346271098599752 -0.9185561720557406 -0.1432963209292113 0.007312217390697083
Ni 2.1812217245003263 6.681280193488393 0.06600680230049587 -1.4629265884234224 -0.8078118169206218 -0.0949878636318106
Ni 2.47242981096404 1.635256607515083 0.032828698136246455 0.2712015041143329 -0.8191167004104797 1.6173030784261955
Ni 7.82218186607117 8.772766442776087 6.9013686847574744 -0.28775812292143343 0.7700374263853255 -0.3672669170810385
Ni 8.644387024830937 2.463203308037087 1.3594615124793439 0.30147675805910656 1.4799992276349931 0.42599297016733734
Ni 6.987237945873795 0.7906921926977198 4.727743811631618 0.693142929920116 -0.03727302541884549 -0.8129925897906126
Ni 0.7064853399490075 7.399946519106348 2.399835249177238 0.7004800870114775 0.1683077553718843 -0.7095794782095844
Ni 7.59002703798608 3.76333949858996 3.806200881269854 1.5490873406819063 -0.08493562160213114 0.13091594498698744
Ni 7.8077779665313605 4.077786725561995 12.437070260392426 0.4582181487496302 0.3222540998157741 0.27554024069900285
Ni 8.230240791378996 7.438062713150733 8.914038397207625 -1.001630572079417 -1.219470372743158 -0.09351487863070991
Ni 6.6781500978208665 0.8043071989399289 0.336822861437193 0.8794442936559436 0.5616626277892262 0.012223024428753143
Ni 2.3619665510693553 6.693664089428811 9.14733425435291 -0.2642736666462481 0.2972740328316687 -0.6357067992898342
Ni 0.25054777977793197 5.149698905844812 1.2111149958922764 -0.040982098839316514 -1.4721609625374967 -0.28957974951120447
Ni 6.371364325942022 2.201822121568001 7.114022288904649 1.3725731382398296 0.27035201162984407 -0.34784788912447834
Ni 3.5866255801044025 4.270205717077061 0.3048958856284229 0.033972243180386656 1.2767938890549753 0.2619733006478456
Ni 6.288143817293193 5.632170396178894 4.6512211617643775 -1.509029296318756 0.5322407229836833 -0.19456848884062622
Ni 5.238651857140566 2.863000236641094 9.494786702298256 -0.0360347821363702 0.13184411322821166 -0.7591606315718216
P 0.320919427693871 5.54059689967312 12.337322118689833 1.0784335372720846 1.699345951861564 -0.8857717785358681
P 4.301097213563259 6.408798086337963 12.480045382013728 -0.48856050848691346 -0.8454311699352924 -0.2514757435506314
P 2.0800395622244707 8.669436889286462 1.1732854239802377 2.8541646500626072 -0.7110969432953754 -0.07496051266729026
P 6.473993247552578 7.778087553266421 5.310169993585889 0.7842440569030107 0.5135295197274253 1.3356785792063253
P 4.700357294363823 1.3073153925344965 12.776399018186705 0.15744972961145787 -1.046522804606417 -0.596310813990715
P 4.33874025361139 6.345568334030866 7.636759184319946 -0.7372584321820915 0.22408732423534958 1.8126629528198652
P 4.909718838590908 0.9951247461599806 3.6285060781536007 0.7364331080673188 0.7651842120580822 -0.7951877003987079
P 0.3883384126908788 5.490415278724257 3.4500651475817166 -0.3942434456698823 0.004219180287670153 0.8099975117180308
Ni 0.5479459943887914 0.2035954348535035 4.585992333823107 0.2972182398930687 -0.517606003789644 0.7435905450477065
Ni 2.0705491849534527 6.542491387625657 4.504116674417476 0.2215753564467732 0.5062180736676766 0.7473279006029517
Ni 5.940448422969002 5.636565268874868 8.9406733275506 0.9891689492772965 0.4924829834697712 0.9374067291033406
Ni 8.992955934225137 2.7186336730917473 10.217073565899085 -0.2884474356789742 -0.5194710820228409 -0.23409482907002263
Ni 2.4557966281726493 5.587366352379766 6.861243406052072 2.468799737829277 0.4620272380830752 0.20276696549101852
Ni 0.5597038711957034 9.18928754532461 9.08796525667294 0.6574948416992031 0.5616590282448004 0.16761638573181456
Ni 1.091884738393924 0.8390649095224416 11.481780531159377 1.1883597673812822 0.36154981209160314 -0.3536195015009329
Ni 4.145720720485695 6.840460116766615 1.3802366125610195 1.1352322914286836 1.3612314879747653 -0.7317948379643591
Ni 5.6968469078206905 7.990988653350097 8.040132975153325 0.2419768029212607 0.2685075022219376 0.18046727355255368
Ni 5.325939670334116 2.8968125491426298 4.917504041652348 1.6459202279422556 -1.0760562952891597 -0.36849976104687504
Ni 0.9028260501637935 7.856694810451774 6.647018384690416 -0.4052467387589214 -1.0395453448473195 0.247318012628516
Ni 5.050181881671159 4.402161087340051 7.112930395067139 1.5294489976256884 -0.10983855549139794 -1.877982857073598
Ni 0.7973973307715579 7.367226100442322 10.772892114856317 0.028413003925054293 0.596716791179882 1.5932133844668435
Ni 4.810911545411635 0.3992609907120962 10.721446626790538 -0.10862396635800646 1.112776790638645 -1.1072689734465382
Ni 8.36089498815229 7.265070332828019 4.281168331205653 0.04484878088357437 -0.32351753990922993 1.217665201213619
Ni 7.653320484100367 6.329135331776352 6.562412080779482 0.30970068863079564 -0.10299916397206131 0.45311528030542614
Ni 2.4204556642986006 5.47421885346787 2.3421313895994693 -0.3770589634707958 -1.3877025376821004 -0.1537082602911546
Ni 2.8856843311153484 5.211709376700025 11.190261254951974 -0.40312994952623477 1.1559944636766994 0.2953253937457301
Ni 1.2571337715856346 3.411549502375109 3.8024320277073844 -0.0969511580057685 0.3602195233159538 -0.5233917572334856
Ni 1.5628276496269702 1.2674339701194715 2.586866654515727 -0.40249642970729393 0.10773822131894348 -0.6867198000025916
Ni 1.2620563929697384 3.4754070936387746 8.085957939690527 0.25862186767710943 0.05526663378278869 -0.27651854545187216
Ni 3.7423933351404077 2.529281083437021 7.030561563611567 0.3388228028077326 -0.4265719825992589 0.33890944898426795
Ni 4.379759065440487 7.253623645764797 5.750818310297241 -0.3560358242519094 -0.13259616090288776 -1.9630640031146576
Ni 0.29279042261657057 0.3070896823302852 0.6563291965230208 -1.6858191210197224 0.6910071145240357 -1.4283218538653595
P 0.6182257412400736 5.987518146480962 7.884903887743826 -1.0605034351562252 0.05870445581974406 0.020368536354022984
P 8.509001288095105 1.5151846818503174 7.907916460280863 0.9726609243199442 1.551464325554515 -0.8995498061565669
P 2.0728330628969096 3.526835293385459 10.167958361264857 -0.5411246557368745 -0.9027215190163291 -0.2527522962702099
P 4.154965421643273 6.2075893494309495 3.3979536042750564 -0.30977910727721486 -0.6049936864766935 1.961218979486119
P 7.144516154051687 4.17532924171282 10.093407489685852 -0.03331301232983295 -0.27269274394787874 0.4247207883231331
P 6.554556814530134 8.12662006619937 10.229179028910938 0.08856421949365392 -0.8862052665288609 -0.31598857852203643
P 2.5253502656219875 8.769235986034806 5.536966352663401 -0.14544884849583983 -0.5404073179548757 -0.2908480747006668
P 6.940204618823084 4.198213516723952 1.5634045335377877 0.549207432745009 -1.5727949687114913 -1.69577983177686
Ni 5.534800763219008 3.180732244240969 0.009715125419238432 0.8928047741232494 0.39587686750824724 1.296282079686574
Ni 1.5167042341075176 1.2077073772077165 7.069115425102487 -0.24226913735069888 0.10572170510954695 -0.8866359263083762
Ni 6.936856144388056 0.9272271476975311 9.21657124258937 -0.26191699348861347 -0.29839580514093766 0.544236719003295
Ni 2.920897907375021 1.6618260242278078 9.229196265085573 -0.14649297348963805 -0.6647800625067067 -0.028618949288273292
Ni 6.406450514587319 2.2610391640222516 2.403671436193021 -0.4842253714466692 -1.5352997999795108 0.31807142919299414
Ni 4.411342094690442 7.066573132284153 10.349795991582928 0.5022218080240899 0.32163009307852997 0.14651997007283152
Ni 8.55768155501739 7.241503624168445 0.12817195811602175 -0.542901288021323 0.21954675605251864 0.3741253347637686
Ni 8.032671700597014 4.473780223965345 7.998715622073538 -0.16250451842654595 -1.0027189200475892 -0.0882186632287771
Ni 3.3076831010820427 8.53126682326498 12.404402616597213 0.01274830080460385 0.31107854281492875 0.031940557462338544
Ni 0.3778962679581655 5.131691756641223 9.951150101065961 -0.08980014878328405 -0.15007966239963186 0.667169902895122
Ni 9.05024396423312 2.7867769476676365 5.808669575543075 -1.8608863066026275 -1.8338136187555514 0.5395683669933481
Ni 3.643276672040507 2.65208274369556 11.534225102086477 0.26173135984036855 0.7625192636314093 -1.0432107095140486
Ni 1.5991149214935274 3.6905829725505948 12.49677228569284 -2.3576519766081527 0.03745017442665809 -0.6505546629359441
Ni 3.149185611452265 8.462996161074715 7.56754858351789 1.0858072040283364 0.37795602136376844 1.1767566359247152
Ni 5.527457777161758 7.928050072733003 3.2910280804139025 0.5027661105633342 0.10411296586153038 -0.06714872993235532
Ni 2.9998236335963138 8.424643390032204 3.3174491815470315 0.5384640781855758 0.21138093241227468 -0.44243106111870256
Ni 3.563859593592335 4.601149640110797 8.852977873991046 -0.14073267396709313 -0.8825375878692866 1.113121318462257
Ni 7.611646535968764 6.456732225804619 11.353440239410073 -0.5576884736328266 -1.0454311142041348 -1.0501791704120818
Ni 7.8898610857661176 8.78803475827059 2.460816610090598 -0.46365397505322087 1.0474730843348283 0.3296393365362516
Ni 4.523606979417016 0.6447332839686727 1.4946734561127062 -0.8285251382085731 -0.986131190892237 0.4995074944167204
Ni 6.205205381219054 5.772151186147578 0.17281312775105562 -0.1446849737466218 0.21011929209103167 0.11189389535852987
Ni 8.063408512122898 9.152982075227428 11.629698479415222 -0.6892014287738647 -0.9654880607205888 -0.4056280333577401
Ni 0.6974571977358687 4.945978813111527 5.800252893878941 -2.403099053197358 0.6009053753399328 -1.3865116026977926
Ni 7.380083150378993 5.988209679244719 2.433901426995995 0.20904997028625288 1.6555520946050646 0.32694250643037887
P 8.599055232343678 1.691416347224308 3.518677026596203 -0.20444461030375755 0.9022124405903945 -0.4263809496343754
P 1.8841811051212514 3.383615218365498 1.350112171495671 -0.2770368798491874 -0.3603439647089601 1.1677878567672015
P 4.920610479620063 0.9446701517517412 8.181843506942931 -0.7592418784317182 0.6519921667134191 0.5719115592107441
P 8.515488957312972 2.0042985263625797 12.538629126042224 0.4831861315488775 -0.8730216779590513 -0.4683081859957806
P 6.390299584907495 7.881453503217296 1.1631872258063398 0.45781088600888253 -0.726816153802845 0.7567054851631096
P 2.146681482773784 3.2574741827872433 5.913264815972678 -0.8476533743975918 0.43883460201669583 -0.30063189356030806
P 7.0425150713977 4.051080822119581 5.944561223090287 0.20568285358623284 0.3074751417343866 0.7217528803473248
P 2.5041038313671202 8.739299896656428 10.091450269982117 0.5621048575329674 -0.4236272981486382 0.7563007935255233
