# total energy = -381168.7630243208 ev
CRYSTAL
PRIMVEC
9.23227758128067 0.00000000000000 0.00000000000000
0.00000000000000 9.23227758128067 0.00000000000000
0.00000000000000 0.00000000000000 13.51237145312275
PRIMCOORD
 96 1
Ni 0.6533812014068165 4.208072068677841 9.192669148505484 -0.7749207226195557 0.7941122079463421 -0.27051861911469544
Ni 5.354203922328438 3.8071511874702857 1.2909068894947489 1.4885761706707268 1.5509891856903097 0.8665052169967722
Ni 4.453872223913644 4.679933769928662 11.414521968489918 -1.2929882394266505 3.403829482060009 -0.6905376310867849
Ni 3.0108580238118114 4.0142957969589315 9.46490223735215 -0.28476638728296116 0.19540358314741188 0.2593672304835662
Ni 5.756232676831828 6.653259219914049 1.3831262626400085 -0.1496279195741939 -1.3102719662077627 -0.8902562966697828
Ni 0.8922045245621018 6.250196450334546 5.37661342941993 -0.18552283369859018 -1.1105203905043004 -0.5915583869073942
Ni 2.412357172569647 7.6630764967896825 6.588754220491835 -1.2132992109354395 -1.640886265062774 0.20675243250132783
Ni 0.8625338312441623 8.534123411084586 1.7040319182836678 -0.30536760847308053 -0.3993378294736542 -1.051978942624982
Ni 5.674887080085184 6.592169239926244 4.161432449378704 1.2179156266615283 0.8891556074064364 0.09125462184162347
Ni 7.457824504181421 4.920333042847273 0.23920369298685504 -0.8471391537653346 0.1589797931027391 1.5582736351668647
Ni 0.7353970614974407 8.693084764481899 4.007728877997872 1.3108399228960907 0.085865075394936 0.13719226491400244
Ni 4.85159873711821 4.0848950227359815 5.443688694888479 -1.581212246240909 1.3937446301111223 -2.5511534576368455
Ni 6.791946491997592 8.625172131447247 0.6986535204133446 -2.5743319526358373 0.5571850516338469 0.22642497122959068
Ni 7.867479119871138 6.932840278395338 12.833306979611853 0.7907959990889155 0.008075835029598995 0.1702391680666423
Ni 7.111844906169788 3.4449227811197476 4.97372791956776 0.24458313019585617 0.23520991651107234 -0.44034229691047394
Ni 1.643077652774603 6.702855014457572 9.926215138371134 -0.0006304344951473013 0.8079282878938279 -1.5615178531357752
Ni 7.737553279102153 0.3906305847447468 8.931137192468832 0.5394912338985096 0.37919606441845666 -1.0717216724695477
Ni 5.535433528972023 -0.09750392876638968 9.253933618537383 -0.6364295363884717 1.7072533796340983 0.2277837992503303
Ni 3.355111185937435 0.41897090687993854 11.272195332629561 0.7963506103585576 1.207337594035366 1.1408378105409192
Ni 2.0804198685827164 5.215590508464619 11.540267434022622 0.3326706671634077 -1.4473364472946493 1.0995253249453774
Ni 7.0834741175189615 2.348497509342257 0.5532082212252123 -1.2269813364082223 -1.62528686796262 0.34738869009987267
Ni 6.616634775209255 8.117073741145173 11.239725412784146 -1.351665441552885 1.1674782959465828 -0.02332607632045015
Ni 9.034651333865124 1.7028474170848715 4.782568998510259 -0.9701258166029162 -0.9739053382500066 -0.5356304653915227
Ni 3.6641616740879197 2.3613119104640754 2.318709566100508 -0.17585317181931004 2.1716951406959373 -1.290225846190165
P 7.467259891750944 5.157390231323448 8.946325212126975 0.7708349825859564 -0.592713840668076 -0.6516676934944647
Ni 0.5347639773050619 4.9812199127308405 13.68789735932488 0.8381752597038274 2.5593678751268376 -0.4702617101777256
P 5.474731304637761 6.503142388328482 12.507145388407205 -0.538956187330646 0.3230421429347082 1.4138617125759714
Ni 8.522850800299471 0.08670954995397605 13.245934388645393 0.8579526994410708 -0.36045709324805664 -1.9146290475417218
P 6.1771229741967995 8.37091521005324 2.825166457469253 -0.5194420285571183 -0.9417842893457458 -0.10442252668214919
P 7.931615751422488 5.439057784511891 5.239651669994649 0.48195431602430544 -0.27715797880808396 -1.0266386640879805
P 5.987418136840081 0.9510169016992199 12.412829365049578 -0.5058797164916513 -0.44778975432745466 0.9003404203786624
Ni 4.3383487359905075 5.379805027739679 7.657488199239944 -1.3487328412871225 1.6010153970097651 -2.342291177881366
Ni 5.891190108819394 6.850497595682442 8.967620383328407 -2.014703581667821 -0.9495011983740292 0.037264283668097115
Ni 0.20641525956888804 9.177788563686935 6.384244502991782 -0.4446576364563761 -0.15608730204629248 -0.3162747423038876
Ni 3.221695544286572 8.515501907437102 9.331360113500013 -0.5182539217862882 -0.6106087186706258 -1.3205388953514097
Ni 3.320757881489102 7.305371906397136 11.676702030404634 1.6635767646817543 -0.5832827771621631 -0.3682326234284174
Ni 1.5011775481331409 2.1324252875446783 2.705554917084487 -1.7802135740419083 -0.4416656437075877 0.6873103823987389
Ni 7.165604457850155 2.980511527783413 8.537237458273628 1.6462698979721906 -0.9663876897167228 3.2004274540881528
Ni 1.500697469704946 2.6860295734731516 5.957618191637628 0.31655962053415804 -0.4373245931300726 1.4764431348526186
Ni 4.566902996921153 0.5067006234938288 0.6407486761510642 0.2664333933017282 1.0664804786752664 -0.3702794786551171
Ni 2.119712441474978 0.7968341751179399 0.3204486579091277 0.6547237067119691 -1.0053756409441459 0.31237489302884913
Ni 3.5386673265022726 3.1679175280512752 7.170407088587597 0.3135385743196471 -1.200809820219177 0.9306542408708551
Ni 9.353404945631626 2.458417004843964 10.511652316999918 0.36578853276329903 0.06683479823636232 0.057980176059209826
Ni 2.938356948876912 0.5588583750339681 6.91495643371733 -0.8533558240990078 1.7295697837431117 0.33554901715246727
Ni 8.898272131147904 3.5967845131462544 1.935835940882095 0.36539618242088684 0.03622195844651181 -1.4546103552482432
Ni 4.615630957382939 7.9776848159742695 7.2631296208547145 1.2165385438083436 -0.06673941030907861 -0.5833236577024277
Ni 3.8304996171799965 2.021877997175331 4.911733176388358 0.41796367210495755 -0.3058761726783829 -0.3863961817113217
Ni 1.328561656364669 7.600315474580661 12.84772502732939 -1.067033522965259 -0.1785338039752667 -0.5093345078094712
Ni 3.58200363692433 5.3312063191624075 0.29696636017617006 -0.06293829139543354 1.0506509678421778 -0.04015523206264697
Ni 7.260863096736986 6.691351596735824 6.898268168971077 -1.0133386045449646 -0.6163206814537385 0.13859068792342583
Ni 0.9696753344565651 0.5684165518937797 11.77419395721032 0.35379279385400353 -0.1788315377213436 -1.6197703090197653
Ni 0.2422992756209658 6.578006926294495 7.472341337267838 0.41335882634309457 0.7623192318054612 1.5035857567056814
Ni 3.871564787345593 8.669616315165138 4.747233379739619 1.2168259931417753 1.216509490342621 0.5815652802504243
Ni 8.005012357271518 7.247568617186973 9.289092900808434 2.233998369610533 -0.26552065167947175 0.09164285841897765
Ni 1.9063637415296595 4.987636345569215 7.403549791418491 1.2645592946619963 -0.07712178198466718 -0.6156125996431204
Ni 9.060021632339733 4.201221718798599 6.745402888384093 -1.4036873431461308 0.4297082142353954 -0.23879274876632425
P 4.073530089176213 6.531190047268024 5.529491635195364 -0.45349734623519317 -0.6732999270522598 1.4258026869879317
Ni 2.519202319675414 4.060281771013527 4.521239229350098 0.9424206373781641 1.3050569976657267 -0.23110463609344714
P 1.8827014143861287 6.596480713502533 1.0892000914331574 -0.9990548409324406 -1.1870901566402394 1.0309599171711537
Ni 7.91803507127105 7.053469215756778 2.1087943501445294 0.05416800140197122 0.35739902314802324 -1.0345044399893022
P 8.658131361998322 8.545211376320395 10.797600877249014 1.3280460023617322 0.8656472398718511 0.5836730706220464
P 4.383549966460552 1.9517403852715454 8.992658319814266 -0.9796561246908547 -0.3938816914550894 -1.1703404479857262
P 1.9951043925259986 0.9392549802084441 4.744666806604269 0.16767603532515638 -0.06583978131294467 0.4372734281771631
Ni 2.0145291043129627 4.595172230519863 2.2927659431953047 -0.3511558704517888 0.3075769574195735 -0.5259895998676489
Ni 4.186080783755528 5.522240604474128 2.784102210531403 -0.23901129253503353 -1.521669867900902 -0.12542946795111945
Ni 0.2153031730847199 3.882883559518035 4.168134159590756 -0.2898381453789138 1.4789756714664852 0.3603416507161149
Ni 0.02538137720756718 2.1997193579891556 7.98167685275026 1.3975475487969802 -1.260641447664829 0.11708546686179835
Ni 7.443237505786267 2.2074560065050663 3.0744970356077816 -0.4345056356240388 2.3476989791604987 -0.18169111865732582
Ni 2.676344914412065 6.91622217895782 3.954219521036815 -0.1432983778117403 -0.46523186106330194 -0.7369442433757825
Ni 8.602626909877015 3.20201232873058 12.640201894464667 1.380657457909861 -0.42446753466174636 -0.9086563964435255
Ni 0.5780273527351435 6.481806595106203 3.0658491613060472 0.5035513254687908 -1.6191025935287793 -0.7954489244798946
Ni 9.117963405711874 5.613612454548074 11.006812593662136 -1.1386606003839423 -0.2614863337090981 0.7072166344043627
Ni 7.297893761650252 1.8522348987506814 6.659869530579195 2.2080037453189845 -1.0902999496923673 -1.162583943968759
Ni 6.7026611366308 5.594880163571006 10.97254514939423 0.4026129006805002 -0.010039386513873034 0.06727497109757445
Ni 8.15909906816716 7.519431491707281 4.562357946724993 -1.6726100785286162 -0.4107738392247377 0.690165849569663
Ni 0.7152356139687468 8.864758963948912 8.539224244384156 1.1039553356922729 -0.4719167292826453 1.3185987409059032
Ni 1.9939688223977683 1.5165308255579133 9.421230795258102 1.190384511120795 0.20597827333946464 -0.3050804162499649
Ni 6.320186345798889 3.657052820439649 12.235155108457874 2.268344965411203 0.5202182446015106 1.7425615680170894
Ni 5.364590234476886 1.1811868111862915 3.0318116007470266 -0.7804107991998495 -1.0822325993032007 -1.039486723695242
Ni 7.2499228479406215 4.962949235627037 2.946616144297358 -0.4322340659810427 -0.35082548369556354 0.5602410648513513
Ni 8.04924419860771 0.2344869224298399 2.6951639887973062 1.277185210956123 -1.3553115229459045 -0.3133107745795572
Ni 4.19083540665015 3.255605699416571 13.106716260607595 -2.228808597879478 -2.884684930138651 -0.629398083462987
Ni 5.273347636287453 1.1431036666419825 6.749875003588278 -1.8500691613824654 -0.35110701949172435 0.8994158516818639
Ni 1.676553890863734 3.03654221972024 0.3681509123445194 -0.005615546414564522 0.9233165695588614 0.7201317998041339
Ni 2.9496480242169585 0.1765617671571358 2.5987125396619595 0.004750884421424076 0.05130199270808584 1.1276367384696129
Ni 6.272843226956896 4.170182801960303 7.002854177781089 1.3327968867831563 1.4542514292469277 0.7241846297172688
Ni 7.202155044335226 1.7007886192101125 10.776129369547997 0.4482337838434087 -0.4430252430592757 0.7495243940336382
Ni 3.6656388384823657 7.638435548234832 1.3897338036219142 -0.0594125376303622 -0.2681627172880091 -0.16404383788920782
P 9.128303556472996 1.6237821928721532 0.890875999834847 1.4881964187338048 1.1139386721572297 1.6885645449753435
Ni 5.102421251295129 2.5785197023898836 10.950074709271469 -2.548387979076566 -3.3995663359082804 -1.728774798645642
P 2.3662788757403996 2.2782306455539567 12.07915454644368 0.3303636162967859 -0.31410730233892353 -1.4650498054140124
Ni 6.499255599515596 0.2008722001787297 4.718452677969334 0.3946149700766881 0.5310330758288273 -0.3896614827261547
P 6.950917077672369 8.744517782241013 6.5500682082290425 0.48741919579361864 0.5665402675965018 2.1648192395117105
P 5.435937274728625 3.4276122608723343 3.3534595314988955 -0.13646695671220369 0.07694874674191264 1.2352582317050338
P 3.87290346757806 6.3054054695769635 9.54185511648081 -1.1170954726186568 -0.01009440812152455 1.0894368303611237
Ni 5.375632038325369 4.211792676496352 9.252690953990555 0.41145081068710426 -0.17874694842733732 0.7701958063400606
