# total energy = -381172.12623000384 ev
CRYSTAL
PRIMVEC
9.23411779108552 0.00000000000000 0.00000000000000

0.00000000000000 9.23411779108552 0.00000000000000

0.00000000000000 0.00000000000000 13.51506478617981

PRIMCOORD
 96 1
Ni 8.026045995408039 8.896398548065783 8.04263970535272 -1.0740058405180342 1.7164101064327022 -0.6508634524256145
Ni 6.810512879899921 4.516822621530887 2.9136449283968746 0.3793022509790177 -2.7612557804470126 -0.7972579526641753
Ni 6.609615409918574 1.0009414486163857 6.368082280514543 -0.5669012504803462 0.010075896178763293 0.009953511668286083
Ni 7.638591640611783 7.730665030627595 10.107741220851086 -0.05068878460411915 0.14912552601647866 0.08283785853283798
Ni 5.281536864913644 7.576704582153657 13.709681602764721 0.32602539393274815 -0.5908310218230663 -0.05580579411571035
Ni 3.602838861589549 1.2377411691625182 7.046538781362378 1.6596702305384965 0.2837302327089629 -1.930740608391604
Ni 0.9125580121308431 7.641481919528135 11.910191179208368 -0.13687550500453202 -0.20952613859172303 0.08608104806048401
Ni 5.67399611163534 2.1917455962714953 10.608055888566032 0.13424115270547848 -0.5227343261551449 -1.0603892781758641
Ni 2.9352952413274807 8.745651572636223 10.55949643253593 0.7265407886542713 -0.15502055134467496 1.1292531910271133
Ni 2.079717277379525 6.849314643499002 10.021893473152861 -0.25617212058503624 -2.3834766509807404 -0.03218584070392522
Ni 8.680689552902873 2.4184985964949717 3.1242234476303103 -0.4502063341887472 -0.4109692430649955 0.7618065538351009
Ni 2.4462655891514298 6.6638104481296665 0.20159926294506192 0.3776017233481433 0.31107520038081904 0.9413343462925208
Ni 8.557543356006788 5.70896571628782 1.9514941624380382 1.9389632534117123 1.1977671767381115 -0.9554242487266835
Ni 6.7910658275106615 5.426364770741344 0.4535429369187276 -0.1866613181784076 0.6924677582299623 0.9928556541002643
Ni 1.623690362733964 5.264592258487105 11.610873709948562 0.07238015353462372 -0.13083701211993598 1.7617281136432108
Ni 8.977898873036153 5.779939146802466 10.020934048298521 1.8568548168457313 -0.8132952086326961 0.9544752545498529
Ni 7.706656323974189 5.19091323141498 5.723494677460309 0.1946854740344647 -0.7994017384800556 -0.4203902792685792
Ni 7.335140056748617 2.9070573086558977 7.670583242227447 -0.5358796052878513 0.10953413687710167 -0.35198427989035513
Ni 7.277020518411488 7.680182107829837 5.896096039827028 -0.12272800985955637 0.8672716628491515 -0.9728933520457246
Ni 5.2093260625945526 1.1570534465711866 12.738827680644025 1.005243486241656 0.5538189633750914 0.10151615166863162
Ni 8.942070495414915 0.711665159208468 5.265333758157977 -0.29909925896586553 -0.8101445788188564 -0.019010736774547905
Ni 3.7945299159811086 6.779015303594241 11.846967943883802 0.3252008411489238 -0.43996845851082295 -0.8062884382975598
Ni 4.689916162384 4.865539851553665 0.07946050831662478 -1.6047854055751587 0.8401722355291982 0.34514437415038624
Ni 8.328758849835713 6.680210241597532 7.74522723462468 0.7648329993662505 -0.45719896345649647 -0.22575725573860475
P 4.959478533394088 2.7833385964473076 6.058519557396291 -0.8445521097644486 -0.27530807008353875 0.13940109963986316
Ni 7.936041047811597 3.317458446542043 10.09532133221692 -0.07225725480351428 0.8307411720232856 0.658152272777544
P 1.0715916850030047 0.6307881371992922 10.528006243524604 -2.921406711039717 -0.6636950569726441 0.47578341132690316
Ni 5.427519035484296 8.157235109033016 7.766432463070404 1.9994230013596666 0.41223551137192876 -0.8769752632901606
P 7.094508177255884 5.825130920018531 9.293431453404953 -1.465071402680567 -0.2216874565446053 -0.29391128700702285
P 7.131666267861002 9.19245360345611 13.247371794270322 -0.6179502466373615 -0.2278601610142205 -0.9506170571460273
P 6.454445291994022 1.1007253271151187 8.687024157812195 1.0536779275939594 0.21675556646062671 0.1460815969838323
Ni 0.7140734171681633 2.902634166160905 12.041638848135767 -0.11456835686689947 0.08546115508829798 1.254681116316336
Ni 2.4784741925387683 1.7741141440354966 4.75137014071057 -0.12715313551044552 -0.8394937214049347 0.6088043184720354
Ni 3.5594569754904324 8.836579932027027 12.905535828939128 -1.3592782209031364 -0.14119778652896972 -0.6955047452840732
Ni 6.562022766037169 2.969396838893261 4.660467636850009 1.3530039578586506 -0.06038312907374763 0.8945348694404789
Ni 7.9717032113098485 0.7407978779087875 10.691551706424018 0.1328419583651067 -0.4286959709207972 -1.3444223868372265
Ni 0.32587479246565215 4.4256726433094355 3.716602271243125 -0.5065841987578437 1.0939313757973677 -0.28002501594323387
Ni 7.741976825108527 2.1510046679042536 12.356972894968779 -0.487645709982128 0.21904719070828083 1.4365771518956163
Ni 1.4227559562808427 3.6570246656826972 10.067871993217723 0.21338844976060667 -0.13594502277046264 -2.741890231436207
Ni 4.243982138650813 3.246835912509255 1.977281360207385 -0.5105809786220626 -0.15923381809507414 0.06263952920809211
Ni 2.69724891485896 1.7203531093677544 11.131413374197482 1.9617835937403376 1.9319225445148471 0.6594900177523609
Ni 3.301520358971359 7.852370705124477 8.276652569103469 -0.7611756051193213 0.8685333031703946 -0.5902880048354028
Ni 6.001641084510784 4.08628187240971 11.840859574864098 0.2669095616071984 -1.6446763282328256 -0.035911626294944606
Ni 2.0835771386799573 3.499167419436553 7.285944369992199 -1.856766113786667 -2.21174238642581 2.001461886166566
Ni 0.9603944367259603 0.0920613856624855 3.069257360570926 -1.3765007554290098 3.3683063494527348 0.07708630076104143
Ni 3.0910748110363118 6.4302242006279124 4.96017755612242 -1.211586599119707 -0.9625616311024133 -0.840318017078443
Ni 9.153984268102999 2.985787398243182 5.901285614111341 -0.12305016908566549 0.19130961558369633 -0.18959494688543477
Ni 6.053093589692622 5.8603867823272635 7.254981449115455 -0.49482654400128323 0.2757215034718735 0.2211081870023676
Ni 7.329100943613492 6.51327585741281 3.5700318873594634 0.810133780185579 1.8159465086671434 1.975120934279192
Ni 2.514699637231581 4.062476316351064 0.25361874296863796 -1.10480559950771 -0.2626327886087154 -0.6718475108764494
Ni 3.632157186060535 2.8298785508831408 8.954609504170554 0.5850936051186568 0.38030369566033856 0.1660151026829657
Ni 4.717618516214853 0.7076714031978533 1.6525137384831725 0.7818213063941309 -1.0678516479911802 0.4073028499570018
Ni 9.18346880669697 1.8368507413444357 8.803388818490488 0.21929761615619006 0.04023956424633715 -0.578515694790823
Ni 2.1164505985592363 8.919890144114346 1.223724701535901 1.1140029497362622 -0.1553555660865905 -0.23385288826254566
Ni 3.9358211546364035 4.541551589383895 10.611353392083698 -1.3211598167648602 -0.4131222848522562 0.18228015839157638
Ni 8.782855833831059 3.7970970007694342 0.7459597498392697 -0.11508052061662763 -0.8188287368564157 0.8601268242742542
P 4.377350504110484 7.694578097703937 5.908448519400205 0.7238300745913275 0.836194996049005 0.6077907896058564
Ni 7.855962777004544 1.007599247653734 1.3913488743310103 0.7140938211401702 -0.0708583175734586 -0.24122912612195874
P 2.791630834360676 5.463882991946262 8.640816631622332 1.3429866828319645 -2.0314491765572757 -0.055958774753806846
Ni 8.091100356320826 4.615720024707032 12.3753127766166 2.018775180634033 0.839404247014922 -2.5316750371972594
P 1.1291664103814611 1.18973298997365 6.708121286493911 0.7813430812061317 0.9746812971840828 0.8371455328877325
P 2.154698315081701 3.0704457915502696 3.1242640777492623 -0.3595132412775486 1.017110412882571 -1.6442757503602972
P 4.166240099683496 7.620815963570319 2.158207279900276 -2.0523476172728397 -0.6022742306630015 -3.6860497058823483
Ni 6.140928519572314 2.8750426217453753 0.5066335746237633 0.7543688666101331 0.7454977893727484 0.8342676971193052
Ni 4.814225858140983 6.336913438807656 9.52463437506546 -0.8269598506039821 1.7238249108395343 -1.3942552511989537
Ni 5.552687504210034 8.758699381290555 11.1985426414122 0.4332002865490539 -1.1923976848960818 -0.08080000216720278
Ni 7.731043629463284 7.2629754250192455 12.534722278089065 0.43356152654321456 0.2338588017998166 0.09986653188035059
Ni 2.0571213907714925 4.10619063069615 5.151226839316899 0.47604874917314793 0.9527539009833722 -0.8563812411888929
Ni 5.321548297963339 7.969348511234227 3.696897586963239 1.778129180709054 1.0339184855788452 2.614476128954891
Ni 1.1630186867627639 7.157808055759383 3.37252241525163 1.2345609485276934 -2.631743400675771 -0.1514073800721199
Ni -0.07843644463667758 7.919244187272156 0.8753223549349989 0.9018285748884145 -0.012467536339391431 0.1618637995187535
Ni 3.7469003356279287 4.702529967494983 6.684673090799682 2.756320547928924 1.0524242576925162 0.020658299680299905
Ni 0.9643189368519978 2.1435712029596417 1.244534709733638 1.2512929165703934 -0.8826581726075509 0.833707453740461
Ni 2.265904797476689 5.358364726204543 2.27316650782755 0.656488769032192 -0.8204068799768128 0.7038893698033426
Ni 0.7787094725381043 0.5709889128082182 12.865071924110195 -0.18200119369857687 0.5218740350373786 -0.38507154936262716
Ni 4.88288152505178 5.6208168263980465 2.732394891164163 -0.931305501301609 1.8220917023329328 -2.4253987451358228
Ni 1.5601226948101 6.61685495838637 7.290701787556752 0.014824980827974468 -0.6037359028101925 -0.631277559873887
Ni 6.089789974400558 6.1601539531309255 11.351654474447118 0.3794485467488949 1.327956013751087 0.4160859954662705
Ni 6.996312567043453 0.4442801932094847 3.999662152451399 1.5635819347536555 -0.5807841791100256 -1.1807035363876053
Ni 2.203417521352228 8.702472837131866 5.793651811948739 0.017303010054821814 -0.28700067593011863 0.458273684577914
Ni 5.575966715545895 6.011438483648962 4.907806256205193 -0.7532771762078511 -0.989619920771786 1.556270488693907
Ni 5.809368280688775 4.23876486201267 8.992032613960653 -0.42994475572623375 -1.6562786883584442 0.21452024937220476
Ni 9.17933192185823 4.404295660269961 7.849671572449557 -0.10840079460360687 0.45396940077560527 0.49949103935648814
Ni 3.1818831268938483 1.7193650587477873 0.31686321676447565 -1.2521766047269274 1.100058057520396 -0.9493230209249521
Ni 3.12933176167672 8.816384916084335 3.5987776965179457 -0.16480437020431615 0.11574849321792967 -0.0008338087552050156
Ni 4.276597043227671 4.033998296612947 4.137758386298202 -0.37869418508137365 -1.1309830292340264 2.248785298111721
Ni 6.958831282310309 7.883739003778946 1.8251686587339646 -0.09066995298274708 0.8068597374199975 -0.5727237706993943
Ni 0.8523995805517623 8.275108624583295 8.797009889815035 -1.0443679630469433 0.44172040820492314 0.4108874819844665
P 4.099791386961224 3.145112869242362 12.252987492805701 -0.49675281448971864 -0.522500612877784 1.1780267608863906
Ni 4.528180586601536 0.5154872469081039 9.306379533585494 -0.4421325560416773 0.2860791925571137 -0.5871857117609952
P 6.4765794727048736 2.1947097481313964 2.5627669147752887 -0.8193655831964921 0.15613692433730528 0.6203598845201187
Ni 2.1096081171630154 0.9798784255869937 8.633085828079935 0.12758585217248997 0.0909309199536176 0.7516460683623314
P 8.77713991482396 8.130243782283822 4.054478646800097 -2.7864513058760334 0.27775036097644423 1.009748830311177
P 0.5416724351608208 5.802867461656469 13.435015534767196 -1.110093844489843 -0.09224063990397663 0.4646032263403676
P 0.5466265394375717 5.580251346271733 5.770297804257535 -0.19989452903922994 -0.9895034497985797 -0.578459644741907
Ni 4.91547796139275 1.2605217381294231 4.026624853434968 -1.5073369962179974 0.9990833801775311 0.619676742410165
