# total energy = -340874.8315961286 ev
CRYSTAL
PRIMVEC
9.14200071216573 0.00000000000000 0.00000000000000
0.00000000000000 9.14200071216573 0.00000000000000
0.00000000000000 0.00000000000000 13.38024212984601
PRIMCOORD
 96 1
Ni 2.7991983950906385 1.8660469380521012 8.16423555630528 0.27889835853795836 -1.7009472349104127 -1.1195742731764526
Ni 0.2770346240275814 6.396886574082181 7.029029423954228 0.34993433933986184 -0.24381205635778658 1.688643734952711
Ni 3.5090107703401476 7.027209251576652 4.907845696610904 0.397973859246592 0.3872377037760105 0.5178240333377211
Ni 1.5142810277337133 5.520753776606401 11.205725315233936 2.6634916396216455 -1.6567818532471081 -0.807906433516957
Ni 0.9885154144398616 2.934536576294272 12.801935126560647 1.013699073208177 -1.634647483241914 -0.33478797061672666
Ni 6.575905235547296 4.882578120345792 10.92867423560475 0.9383696072372419 -0.012973529441532494 -0.3094746886629186
Ni 6.263312799050683 2.9181998207004534 9.339489137763374 -0.3526813059573797 0.5757702708352019 0.6369625260738062
Ni 4.9545896613712594 6.3052837251453795 0.891209785346695 2.4980768895268395 0.8227782084224667 1.9535861455312096
Ni 0.9857271041678333 6.437769602070741 3.3214982758463725 -1.364409885702747 1.172307084793794 1.4889824049702098
Ni 2.511828739054768 6.458777920120319 7.024038805667341 -0.34396938000567856 -0.014220000254123899 0.6506168836324473
Ni 3.2573406277871326 5.822064984002413 2.897585522889316 1.9092078765261509 0.27348747193503226 -1.0617259947094169
Ni 8.649521303849903 1.7691143025953242 3.371633922937621 1.2813339430171737 2.1129672878374257 0.9666180605599739
Ni 3.9415279745366565 2.5282569146575065 1.2692324364266987 0.42327788522901943 1.557834490746917 -0.6788879626629986
Ni 7.528739420506085 1.6477268147527244 7.703032581710179 0.5356829158960129 0.3813547626326722 0.07791136776549808
Ni 3.6412863812449965 4.278282719390551 8.335074869572415 1.2992846139583236 0.1386099711971355 -2.4127514886854575
Ni 3.5013040635882793 6.294715572114347 9.466562035960644 -0.2914800518577109 0.9055433047358404 0.46220104465677825
Ni 4.418155333036565 4.370607786397812 10.4772513735638 -0.6141185315960972 -1.406896594112048 0.7915896986348044
Ni 5.953746364849289 7.2872168989430754 9.232380541113827 -2.108689229287362 -0.653429670490894 -0.05408161233575202
Ni 3.366185290406051 2.231626411718145 3.405378876629789 0.45221513708865985 0.08984745708145173 1.9483626923487416
Ni 8.460821263440272 5.415648192352269 5.29184538787403 0.07109511617461305 -1.1942468222896787 -0.641440873560134
Ni 3.3367206215314686 0.8778432658426535 5.7911558789869115 1.1931407337096938 1.0325920534579378 0.2908946116678861
Ni 7.767866737835418 8.673957872233942 12.396768046432426 -1.8146005361622106 0.5922173606476316 0.6509027903039822
Ni 1.737994931559309 4.039438804088866 7.005412893050192 -0.5836378465087368 0.19215499430312713 -0.16441844761980715
Ni 6.362713774748273 3.8693793034978103 6.504777726008074 -1.1085717514183617 0.9954943772746919 0.9161835580585059
P 8.039896116374686 3.1105200934632773 5.366815280388115 0.4199146251837413 -0.5531558758697958 -0.7482483555346919
P 6.219751164800797 7.33717793381729 11.354286486527611 1.2817334924484376 1.5897886750560106 -0.829138860533172
P 0.10647505598773854 2.3971423378659287 8.722579603977493 1.8517452635333076 -1.4013414686217736 1.5344734474234734
P 4.303871179886968 1.7697359586559733 9.984015742043583 -0.7886846091728675 0.7425783017331082 -1.456809676892407
P 1.6736718132839261 6.346971249212427 1.3950108272976764 0.1223477437020022 0.5616533718178456 -1.9251266046389366
P 5.8928606389092595 5.0676762124040176 8.663546047418162 -0.08990839222637419 -0.7880968549901975 0.06333861215764576
P 6.641096843907409 2.4113581492528273 11.57435090359716 -0.9188297374321014 1.1811128560108821 1.1638476411725311
P 5.637689110014648 6.499350120078556 5.1165374645709365 0.02120671598460219 -0.9842002924181116 -1.574599883130714
Ni 3.132863143643072 7.519359727591 13.512305163864562 -0.8893612956593393 0.48233612484375643 0.5837838851682978
Ni 7.3867824306567185 7.004070847319261 3.233349274846529 -0.10127961017779331 -0.6292433030526775 0.24209790188015723
Ni 0.8645526249460145 0.40624309363319855 9.97590770145256 1.8902786437218153 1.4186064263498084 -0.6349390678858743
Ni 7.143010976874303 6.193650752254434 12.925889688253692 -1.0762660973071208 0.48901867907025454 -2.338641754054237
Ni 3.78983475373742 8.780654164643266 9.634965005990088 -2.1340652461583054 -0.03794845421931529 -0.1207829703180436
Ni 5.344742833434721 4.210842178811031 12.784928262301452 -1.495487038857947 -1.4247927576661785 1.012919771839991
Ni 8.871607931516742 3.7103176299797056 10.898595224270233 -0.06786735326593472 -1.3282905142723704 -1.2213657899936579
Ni 8.232609495175863 8.147716874893712 10.046702442159317 -2.2428373080584016 -0.8468275360621867 -0.48758117529277967
Ni 2.832493562338925 8.48907004619623 2.944402623656807 -1.007015233430098 0.9945770076667452 -0.40886659489969585
Ni 7.820094988930823 5.936047451122577 9.251714958800099 2.0854228025602533 -0.3025108557505758 -0.7061015469633131
Ni 4.74792558920905 6.104753935581632 7.122102306634447 1.552833695098216 -0.5912537111827818 -0.24613401962274384
Ni 8.263427180182445 4.021035956293479 7.909958115097896 0.6236655518545839 1.1562508026618794 -0.5424896544052011
Ni 5.6712493952887995 2.2131412859147304 4.937028791858015 -0.33946377882584117 -0.10142359195482532 -0.31488994614121896
Ni 7.224402210814856 6.907284483876754 6.5660327887841365 -0.1260501322542539 0.20041106366433226 1.720545468757314
Ni 1.7968511333013377 4.116643001620931 2.3051216994883674 -0.2930394259250308 -0.8416483058540923 -0.28228552984263644
Ni 4.599496062728222 6.3274530773082285 12.030403274889768 -1.7087968128618183 -0.377379322924692 -1.3058486403290865
Ni 6.0374322410137085 1.5229476445792312 0.25668270164204166 0.832007954550851 0.5569683076373505 0.24615227445518897
Ni 6.351971923700294 4.4707949741721045 3.975282984429805 0.4733256938150299 1.2932682325609146 0.12110538665446884
Ni 4.258188601430162 1.7922252808500383 12.174307510929108 0.6162977986356031 1.4672414137486922 -0.7484144487989111
Ni 4.990627428887115 7.776231668651504 2.9698119009357438 0.6677751405792887 -0.7394528687302491 0.9767677473994663
Ni 0.28497170920192577 8.76090744271677 2.8772875383090386 -0.3030875541896522 -0.36239853324514365 1.4346485674143357
Ni 7.515437809208376 3.6660429196602515 13.217217830675754 0.4416679577004329 -0.8669901270529907 -0.5915866690421683
Ni 1.1500362861978863 8.813108267809497 0.695436578847002 1.0078526417297287 0.5667554689311013 -0.5275443459492786
Ni 8.581459107209735 7.2663639949086605 0.9359278827094062 0.9563609016083401 1.0060389855597578 1.035323593456488
P 8.984081968489743 3.231404771256823 1.276083451895086 0.35565555809435523 -0.47133360308566574 2.278743535036708
P 1.8131056108871295 1.0256319380609609 4.345381349136713 -2.3002973499480834 0.4962079977298422 -1.7246787741993976
P 6.888497672043908 8.749031983558195 8.121205072307212 0.799210962625488 0.11131745402976957 -0.9104996202998513
P 3.0373749443272144 3.57829799509983 12.109306970387635 -0.19794691839455586 0.8854946136150815 -0.015510694041089419
P 6.5057038106984235 8.118279632021807 1.5292281991919638 0.748966207537323 0.455044636117655 -1.825822373019959
P 2.7166004170323546 7.395897005545939 11.271890546689036 0.8963395267493853 0.403166459191125 -0.508250530716673
P 4.320573615516463 2.8196033410813515 6.697292723389896 -0.15291816028969146 0.14478601810086034 -0.41624334697974114
P 5.209697196259628 4.332165672647387 1.8523074249116702 -0.366654223197704 0.8147777067154935 0.304388789499579
Ni 3.244541826538478 4.864339828566458 0.5322445493259386 -1.1363383800086688 -0.5473626662267863 -0.7204009943051206
Ni 8.172381993300048 0.9380058595121342 1.080445547008593 0.8779995907896169 0.3210428531164923 -0.17211710181564552
Ni 8.871973611552418 4.500780737097524 3.2481474316902417 -1.7644380563752065 -1.5040472697231324 -1.0749175536990263
Ni 1.174692262603331 3.2369173977946364 4.783771374706176 -0.048417986292071453 -0.29047346497006743 -0.5430822936838775
Ni 1.5142170337274699 1.7555201472690745 1.9490334511482907 -0.08643688873800598 -0.3336122051410706 -0.3002554840574958
Ni 4.130346860957884 4.362069157564781 4.84660434683618 -0.23628283786027696 -0.5135272057345801 1.0992957254330744
Ni 7.417901801692735 5.408791691683347 1.4853008849064018 -0.9830885474111716 -2.708168927924362 2.9776907303434266
Ni 0.5804521484290864 7.599443655404012 11.935590669439822 1.0448261336302844 -0.3715030666495731 0.05386795366304917
Ni 4.107930674770954 8.358942805500977 7.246966497416234 -2.2225219935398175 -0.8993299768362769 1.7854725084480023
Ni 6.737343829297293 0.67953223989537 3.0215528833836096 -1.3415010994253735 -2.647045835360796 0.5240684715855362
Ni 6.633646113180513 2.7875057759499033 2.3534371742020395 0.6043812497036752 1.0777614509057243 -1.1764532457516836
Ni 5.8099792588233266 8.577509762824436 5.993546065732159 0.23680348625043732 0.8652749441340969 -2.1501888911930456
Ni 0.4894417011500798 1.5679994249744962 6.603042350994801 1.569211365125291 1.4143494508456673 -0.5473318129888509
Ni 0.3788225761580446 5.098658453426655 -0.09448349341783807 0.48106214322733926 0.9616224071175955 1.7163591985901085
Ni 7.6395496133167615 0.8282890500081292 5.506505054016292 0.5179438467450369 -0.49372894006173035 -1.0461227409545208
Ni 2.3462579609016334 3.2792265779223326 9.83926861352201 -2.1011646387755425 -0.045344489573070294 2.7937038736733886
Ni 5.192702216601592 8.775196390110803 12.655474787071931 -0.4640548100360653 -1.2013469236695697 1.3146248438598198
Ni 1.1578618389613498 7.2821705144507485 9.430622087854331 1.0316751980706231 -0.7897840128846333 -0.9533640237635452
Ni 9.073426743206246 8.744031309070328 7.700449966458218 -0.7639539391954069 -0.5835504290012531 0.018926918811489984
Ni 7.967445759306408 1.2826775771384107 10.458934460576797 1.0529711313349222 1.1785841760517572 -0.3707867573088388
Ni 1.4794225783329122 8.405036773997919 5.564641780288128 -0.9075482509810111 -0.43414516696082656 -0.03967906375717683
Ni 5.840193571771044 0.3100866140521435 10.449942388499526 0.967143851156457 0.3620578620762733 0.007114756667910328
Ni 2.4830314362452945 0.3508471392287526 11.974527365438496 -0.2197727560203957 -0.6139030731511814 -0.33646715809136246
Ni 5.353162616256157 1.114108222692734 7.898423652572591 -1.8525564465806934 0.589122780882708 0.337545992977838
P 2.124783847294552 5.26630446578225 4.719546075840337 -0.24757538005496071 -0.4570017598440258 1.313528011251215
P 4.724467214920445 0.5264978875652925 3.981571766843341 -0.28512454195332826 -0.44241769138226383 0.0573559122116496
P 1.3348601182293554 5.111996632727932 8.968294647149527 0.032418782650337714 0.27955656094724757 -1.5656041073900067
P 8.472806426609546 7.757426572816873 4.881366805227615 1.0724102138961402 0.8112424398687254 1.2226063472689783
P 8.61194768018421 5.715642951619848 11.418752220016906 -1.5744505020370434 1.4745232921220863 -0.38121823705480795
P 0.3741994663070127 0.7627564450147486 12.172661950768566 -0.46137880586579894 0.766451251695964 0.29805590530301573
P 3.5200543074175585 0.6468047909024702 0.6138826172905731 -0.9790925388779009 -2.3262780902825613 0.01806534214214308
P 2.0632581812920896 8.714091256149368 7.8015513543217 0.4185758517676598 0.01962728731262426 0.0777416749568532
