# total energy = -340889.39260382915 ev
CRYSTAL
PRIMVEC
9.08889041717309 0.00000000000000 0.00000000000000

0.00000000000000 9.08889041717309 0.00000000000000

0.00000000000000 0.00000000000000 13.30250984465432

PRIMCOORD
 96 1
Ni 6.526877726603909 1.8290937788468768 11.429290773994296 -1.1271446293245428 0.7568435534028707 -1.046872988856984
Ni 4.40656680562663 0.23376899162749548 5.9065009598507485 -0.13663664952084856 0.5126628008517558 0.38136427571436904
Ni 2.8300351173986362 1.657486436361807 4.379052916151983 0.9290650420068645 -0.46169145201021133 2.652093939307665
Ni 3.355173035628728 4.372901555027367 4.825391971086855 1.4848480710868621 -1.6165849693132481 0.28548526772685673
Ni 5.094195909119584 4.318713589564945 2.536150385891646 -0.05806116580879033 0.6777654190227811 0.689533872412619
Ni 7.365382413236111 6.388072190115801 2.790201236782709 0.6700827056665427 -1.328597503989828 -0.4151889375732979
Ni 5.10881993401543 4.588317349966123 11.5388100873504 1.0895466164661105 0.20826115583637034 0.47425643315941546
Ni 5.293515278893302 8.037324091638803 12.593938482475526 -0.09790298039607655 -0.5608421887704599 0.691177578663629
Ni 1.9079035488107579 6.4601016477289654 0.4016717023241582 -0.5305569075233572 -0.36599062147177613 -0.4674988027206078
Ni 2.597677630473642 1.870811786473934 0.4724296241493008 0.11381528075095883 -1.8390121322373556 -0.7964632246770218
Ni 0.8540312383597186 9.353922599011414 4.74545790536187 -0.30859974225713305 0.1677994482768981 -0.46446104433554847
Ni 8.614150530429914 2.3021614431128268 1.079104888397496 0.4202051598409666 -0.14923454079051718 0.3490251972620312
Ni 6.693158979226353 0.9092253440060871 4.917099785631033 1.5272519899743697 -0.8748471612035644 -0.18420282933558596
Ni 0.9351286820751751 7.414035244353244 2.8047407349964355 -0.5605375130458474 0.36963541731321503 0.15431555485785037
Ni 7.581316274936249 3.639564420955662 3.8094394209017954 0.3750506747915153 0.9164617514205571 -0.10189873181903096
Ni 7.713595988009057 3.880347309421022 12.792637989913697 -0.6768711893432859 0.3795825012235979 -0.8470815610545218
Ni 7.463415186714421 8.839700438332539 6.956267818440102 0.54826563765703 0.13561720711739872 -1.1380476493902916
Ni 6.694322357216825 0.8258674932107072 0.43800545118906553 1.1479129722201455 -0.6170567882888147 -1.7934964071937436
Ni 2.044464129332879 6.544155707540519 9.312489073658588 -1.144932292325267 -0.044115759372291764 -0.5219349701823011
Ni 9.212226795328228 4.77212198357004 1.4802367106229513 -1.3527478759837863 0.45851793937823615 0.0697188046523767
Ni 6.629182278640981 2.1265549887855113 7.1915628347910365 0.10785572073341425 0.10287780790284863 0.12990858676839562
Ni 3.167151156809352 4.214464014950054 0.3777115690547794 1.6707617124659677 0.4158042025597935 0.7922669272074871
Ni 6.096027958945297 5.5645550840014675 4.694349256017977 -0.6260733899651283 0.6713309762513471 0.3942766129006629
Ni 5.061048725281701 2.759832526786133 9.226767202431008 2.521566230898032 -1.4420276334872264 0.8349557243252652
P 9.299207477897058 5.501878094764825 12.514562474630345 -0.2303533597497194 0.048855588050122314 0.8472491969806376
P 3.8663685957542655 6.151497457975348 12.856982790566365 1.6678447959294889 0.500710513585886 -0.2991987606582073
P 2.194239956715511 8.362097417681863 1.3473716729986864 1.090169080541458 1.582406009438694 0.7911590388552892
P 6.169238972330035 7.6527185991014255 5.639639317728675 1.085528239335337 0.3312069381336876 -0.33569402737076376
P 4.670453653871507 1.1113259142882763 12.647601110064127 -0.3200180113964037 0.1914065461728768 -0.3203021182957258
P 3.9950672859501544 6.163340282362724 8.277020857683372 0.6116482156787337 0.12553642584262897 -0.40200200656937857
P 4.818838880999904 0.9268487027836174 3.7461998293400742 -0.85745133432462 0.6917941292017054 -0.45220870933075663
P 0.09540881077636372 5.749086828849429 3.9539845917725813 -0.06560581092526765 -0.6714875564338694 -0.13916558659028935
Ni 1.3292229763473336 1.2498133396071158 2.5903574380242236 0.08801426052745487 -0.6197448766439391 -1.1581215373220313
Ni 2.0644324218724535 6.2186370924723136 4.871685326217063 -0.9302755173751978 1.888699472160154 0.794018105570639
Ni 6.074796310619195 5.773226922151709 9.225942840058071 -1.4303918490205108 0.04769756318627914 0.9038759443357466
Ni 8.593518748880149 2.428269799501807 9.737024789051727 -0.36085227180394625 -0.7207028418162555 1.1541334992085608
Ni 2.4269700881530776 5.094923020363628 7.187386489583055 0.13919901093138606 0.4200971735081926 -0.11271587703919297
Ni 0.4063197609517131 8.885599335612852 9.447230058292487 0.06115240313960435 1.0055304213544551 -0.670431347255213
Ni 1.5510191724525801 1.4664561347701963 11.428186473792403 -0.7634155501934337 -1.3658648729817187 -0.7688074106329663
Ni 4.1801716309028025 7.13127077043486 1.697586621470865 -0.5743425372497398 -0.3137496618891887 -0.10582789167010806
Ni 5.654625989357489 7.847757101425832 7.795164236255032 -0.840989846334487 -0.8799585142882007 1.3845639920531185
Ni 5.2565234943525345 2.6612089754220367 5.11142299226911 -1.1005038868085628 1.1996564233410243 -0.1259154064486025
Ni 0.3841519568989042 7.729092546397757 6.999594559694607 1.3495445385551403 -0.3486647285988189 0.273810916712722
Ni 5.352438556332563 4.4187822745265795 7.268332148826317 -0.7032797612438016 0.8160624869651881 0.19257588389062963
Ni 8.072997987049739 6.969652118664852 9.14620691214709 0.13763578020932424 0.9298381727274632 1.1316214341489736
Ni 4.493120310339586 0.3205079097076827 10.374534114492688 0.1678326155076787 -0.4753398960315814 0.9160197787871321
Ni 8.267936511578089 7.765148175211817 4.666613597613897 -0.8757781576582658 -0.8882423515635478 0.27003190928626397
Ni 7.378352260051757 6.336083736166613 6.988593366572213 -0.3675034585718767 -0.7068700496982213 -1.4681747241962393
Ni 2.1975937573286664 5.364263202938838 2.6043652361407426 1.1983058228504009 -0.22957405838153364 0.31829023007201956
Ni 2.5272478175973747 5.112837223638776 11.483924095093696 -1.142615471266632 0.5365984857317468 0.271821397086519
Ni 1.2850237015999744 3.3349138985915365 3.984487817349306 -0.8481264573792684 1.439142341519631 -0.4443915272791831
Ni 3.5524292272474702 2.6002134309372478 2.484137391937972 1.1832602413711881 0.09516064176424903 0.03753887748572245
Ni 0.9121337889822655 3.4519151866488587 8.16388325699909 0.5744924325640428 -0.5208867314234449 -0.3574658718302166
Ni 3.74589535150663 2.685158202022755 7.299140761125541 -0.04272222145887481 -0.5437955177008184 -1.4295536693899316
Ni 4.226106883745318 6.879326724373414 6.072276870158581 -1.24904705795901 -1.2285096001272906 -0.4044566387574583
Ni 0.5845465424247537 7.305404824492984 11.34257185147332 0.9674467271088564 0.05417982847651315 0.11383996334130717
P 0.27102708066139447 5.711640599781133 8.01321944500967 2.058583827990539 0.47572787549861945 0.2730742956570136
P 8.680872075961553 1.2626650308456036 7.717770515438929 1.2301149969411975 1.0534994930345662 0.8972520112613257
P 1.8274305118761247 3.3503650125274835 10.225413596118752 -1.1518297907760484 -0.45766150491521174 0.911872589387978
P 4.192496166489358 5.988451850388903 3.691021174807641 -0.8157580683508919 1.363829844829561 -0.4331511784786734
P 6.774595438559345 3.8015466283476917 10.206616861571144 0.14546093268069787 0.38277941089434075 0.9367333571853996
P 6.194287954687371 7.8252439195321015 10.626896249519458 0.3577857170634806 -0.24834825366524324 -1.7245458481659588
P 2.195421512487083 8.268318244981213 5.915333543687781 2.0074371299133946 -0.7461379940599085 -0.08036702839484224
P 7.038827664645143 4.005973954610823 1.7314281965468097 0.37092379710733536 0.18647234209605307 -1.3835797737629785
Ni 5.464540932383136 2.846540542638448 0.5510685229708314 -1.0415454059964837 1.1760215575309039 -0.6402160000140974
Ni 1.7680982343620877 1.1255591168904489 6.912236688167927 -0.8201729095891359 -0.0845530414517318 0.5206481330500775
Ni 7.062867780151366 0.39161666270807677 9.149347123832305 -1.2100099986612063 -0.14460064156293162 1.4029849177624678
Ni 2.7789010191612014 1.7166460249553837 9.23889905353789 -0.3896910504125095 -1.1656530698123861 -0.10099318928562606
Ni 6.526477815419685 1.7524017203812754 2.4863323590059316 -0.5727872769474781 0.6902265276042694 1.5255301221872566
Ni 4.170437429123155 6.654722061088046 10.450331826128114 0.2791804085547515 1.3725610540549718 1.0608901290716828
Ni 8.503729599131194 7.045562532543106 0.7444601183274768 0.5685845517200402 -0.307959794680289 -1.3530188702569859
Ni 7.730428613308689 4.403649271759901 8.3445313189148 -0.4475262162534228 -1.496437061476042 -0.4137311220808488
Ni 2.863491323515237 8.548183362813969 12.385568395491562 0.25938265710253394 0.04743633910509249 0.1973509366817698
Ni 0.23159220234063704 4.886251182213385 10.435353334500796 -0.5790813374863059 -0.2627916827840829 -0.9472926207584846
Ni 8.825112768998896 2.4343411783895794 5.502676099355164 -0.6927348958484199 -1.3896457774514002 2.1369502810155843
Ni 3.638537376323449 2.743899701651006 11.64125279052384 0.1933937518062347 -0.26033576504442263 -0.24694983065581988
Ni 1.2016513085797134 3.4031078443923666 12.662632317256637 -1.6935792245811156 0.8942116817731051 -0.1255708786249902
Ni 3.300248870031711 8.390382045075196 8.006820866062077 -1.092166570587461 0.10725691080715076 0.49560378848694003
Ni 5.884638542520439 8.10009196978095 3.5546832721040085 -0.8721603584000206 -0.21999849887795658 -1.0712053949547615
Ni 3.166251356644847 8.327986811445621 3.6277279587916715 0.0022011214163768543 -0.19180403872161159 0.3458753387791398
Ni 3.5912569676794504 4.285866339115231 9.54082654429307 -0.30615179493727274 1.7896677774762728 -1.1394586708052055
Ni 7.291607888637239 6.161749726516376 11.497824644301717 0.09512104677556521 -1.0705430787804144 0.4405459282808477
Ni 0.5996213762919079 9.147968339135787 0.07765275419679525 -0.13547014001657312 0.33090329085033976 -0.05659615122748963
Ni 4.555515543969162 0.4659210696260468 1.4386932096944645 -0.8895420442115777 -0.46308087615857024 0.8863114530894219
Ni 5.935190951762638 5.868069495046773 0.748887316914653 0.4938898911196268 -1.021313395220325 -1.4626630503493907
Ni 7.77464606583715 8.562198432042928 11.919567343628671 -0.3159924351767784 0.5131860203450775 -0.2093055379404847
Ni 0.1413449725079347 4.719270085018549 6.066662662465503 -0.21432947351763737 0.6479568203017808 -0.8083247520012982
Ni 8.279315802547387 8.96515439460188 2.2621448757968334 -0.4776150652190032 -0.15967244829438954 0.18922265114768058
P 8.436253675683858 1.5820668225732835 3.528397291742742 0.27038029376461825 0.24732315483483858 0.43247574967820357
P 1.703748889264143 3.4032805333128273 1.8060016346250762 -0.4494614856029227 -1.1168368196406313 -0.9092760323053954
P 4.937203502639809 0.7887321041992408 8.289631693322269 0.09244684237751175 1.2339557108435264 -1.3607342366233726
P 8.464465591952786 1.5769952216460725 12.137848865758018 1.6204825045954414 0.3043090853015792 0.9787958335730886
P 6.611086297554822 7.918232358754851 1.185105892221479 -0.9136340521637748 -0.4479015973149706 0.7763852229802242
P 1.9568835799877105 3.1848926711640395 6.166737709650522 -0.19931680215888897 -0.16818099998603292 -1.0542476840545003
P 6.892314748970161 3.9908682185157973 5.92585575227816 1.6281503055533442 -0.508078523915183 0.22857724168590313
P 2.3631388098165145 8.567106432940228 10.213933418464341 0.002071280706731917 0.24986391897882126 0.3567994418908113
