# total energy = -381167.04201762675 ev
CRYSTAL
PRIMVEC
9.30850843670431 0.00000000000000 0.00000000000000
0.00000000000000 9.30850843670431 0.00000000000000
0.00000000000000 0.00000000000000 13.62394301557147
PRIMCOORD
 96 1
Ni 3.8953316010453904 0.46311598987275115 5.870761890220648 -0.6990775502369959 1.3832218762029274 -0.7218904343664535
Ni 3.70851914160653 6.068021288880608 10.259537533064535 0.26521211930011745 1.6557701241531417 0.80411739878817
Ni 5.724676948534683 0.12032736749127379 11.326292620597215 0.5389003943920461 0.7898138376813042 -0.5153154079832545
Ni 2.535609821803143 6.119292554344221 3.7104944071351027 -0.8582913137274121 1.1434472231393082 -0.734748007055412
Ni 1.1296247547333436 9.018632350364987 9.335684808121592 1.1196053835247042 -0.471548290199633 -0.8015727779894454
Ni 7.941609977827517 4.1031719814505365 2.4779091694376207 0.026245306849774153 -0.03543417243789381 -0.16627092744751365
Ni 2.9133491014896724 1.0229120119456065 2.486928183436839 0.012772469174319939 -0.782623233470136 0.16047308981881395
Ni 5.9920452415469105 0.12311526582212927 4.834469827988659 -0.20671412306422465 -1.1433580058596116 -0.7175910356601513
Ni 5.580655703209154 3.9993634933513698 6.681236049355068 -1.4409233446794538 0.35269776101761197 -0.07435244676964614
Ni 0.41752756891994736 0.9381208069514074 2.7483986053891996 -0.17432696498277073 0.31318299075244127 -0.7464611817272822
Ni 2.953059199250706 2.6727520792605515 6.603524896015121 0.770968422840027 0.8586016458789794 -0.6550936884568782
Ni 3.786775773551445 7.487243055204084 1.5094510020518523 1.1290798986740425 0.2918888572603554 -0.555339770894992
Ni 2.6701456968477317 7.721435823504563 5.817301263530267 -0.15211006256609932 -0.06520574727337157 0.2940542403427904
Ni 6.3319547422130835 7.531821502971921 2.102746484936336 -1.6506083774465443 -1.1116534756674792 -0.6175787222305559
Ni 3.254720038008748 8.964494064247273 8.088494520403701 0.4909305513809867 -0.5018202017102971 0.38028518371757736
Ni 5.198234243688166 0.4367291604955356 2.4248162288376194 -0.7250472348278802 -0.35265945158050876 -0.9653973007789955
Ni 5.328581289855008 8.17451817193882 9.264268068308604 -0.06767452052883828 -0.07701456698284156 -0.005935134537512359
Ni 1.6446459195065397 7.962293483974966 2.0390679083368393 -1.2843825000355105 1.6409736825702579 0.5260718751688102
Ni 7.74402757391854 3.8052810886824657 7.634653528517142 0.017689189749646957 -0.09450115380337917 0.48351754674636727
Ni 3.5045697178033794 1.476692498526154 11.958129983411274 0.35169965877040077 1.0305819650064445 0.5745304848908299
Ni 8.177599288291116 3.463212014017099 11.63183696915036 0.8148736088634095 2.1121872151382917 -1.3143669622127427
Ni 6.952636788300272 1.621877307428835 3.2968987522550663 0.9916593197993179 1.906132837145253 0.4452978411435363
Ni 0.7278285653764873 7.614648612647888 7.286711715765175 -1.8668985742349784 1.0877321889651912 -0.8532923178509241
Ni 8.5712654262217 3.137274584785364 4.497318438425767 1.0748784729309748 -0.7196394335487477 -0.6160216621560811
P 0.044152118073167726 5.564207568482537 7.876001747391672 -2.129681772378629 1.1139291590755334 -2.7368647531971573
Ni 2.0370647172824152 3.8534712377937805 12.999939198700686 1.2547700764857164 0.09355884449476791 0.7020541163668167
P 0.45581067230996186 5.097451020889594 3.721216878211271 0.0021358153960801926 0.2866119251321322 -0.07360785529413774
Ni 7.4482310955893425 8.288854583284055 13.15589302122262 1.633574561892709 0.12721895575137446 -0.39309339122583914
P 5.5405639565948155 5.107895167558108 12.40996778424341 -0.28855465068079983 0.755580370419731 -0.6025621942170655
P 3.167275908058643 4.0298767845985966 1.4993419616935584 -0.6246857655889823 0.0012264162079333718 -0.26704557296443043
P 0.014943879734074773 7.406435891898053 0.3619241235458834 0.650294467296022 0.09234168425821516 -0.2510016321276903
Ni 3.6046734194728947 4.241868759847019 4.359334691789362 0.7928199714974796 0.10399186690263382 1.0356691497213646
Ni 8.57984787116677 5.0415720436604605 5.7199714974286815 1.2520413647006436 0.27327535592422614 -0.8299775543843836
Ni 2.301770776830119 8.52381995779976 12.903699458958174 -0.3330429629011619 0.3946985309294299 1.0738142933325183
Ni 0.2162850594226823 3.5137665243171865 0.5883284626863386 -1.5360112242242385 1.1127083992945548 -1.3238795296888684
Ni 3.174732023461031 6.374299147912788 12.880688825656424 0.005061216572991283 -1.5268640105073314 -0.3623381123208534
Ni 8.966616404211997 2.0501897144326864 9.12699269917797 0.26251580341487696 -1.9263782176578503 -0.0892339918671689
Ni 9.100724087860193 6.605382874335117 10.06017813486053 0.7061025754045774 0.3694428416864347 0.14165595711231088
Ni 6.206820460871881 3.7138715340614277 4.344294003565668 0.10672649222497749 2.520737564349149 -0.71266197378965
Ni 6.9970849169474665 6.071605064698235 6.710772878048348 -2.1736355522517594 0.3006799731894241 1.7702976004797772
Ni 0.1711713724093564 5.404501486137002 12.826492826785282 0.07869812533285156 1.175428661141911 -0.03618801988478284
Ni 1.6397868780083542 0.5145520159388886 6.614969707359985 -1.1514356406614235 0.28534848503867627 -0.2394195837170457
Ni 0.311974666305915 7.419616740100028 4.638203647198156 0.28258043537523586 -0.3085367502296815 -0.37895103828718607
Ni 5.851691548616563 0.8315849258273974 13.529815812376095 -1.1741760196817328 1.1273189501188778 -0.42863992087188113
Ni 4.669808826506182 6.519865605668776 5.150613775304224 -0.670239285849065 -0.4246616529504235 1.214517913833889
Ni 1.8995315024630834 6.215579767480678 8.503547887733193 1.9772575210062202 -0.7726123862013533 1.779297489985542
Ni 7.434752375111618 6.148474728859186 11.848934661375324 -0.7816706397488795 -0.5715464625618415 -0.023779361807784855
Ni 7.8527695715848305 8.33988382752362 8.583792817118745 0.7179239935195377 -0.8328924140383333 -0.3470870996990539
Ni 2.197757501541374 1.8516857681706054 0.42002783433453095 0.9646051438950033 0.279567359580525 0.4618156362929014
Ni 8.997474110278059 0.6929747165610544 4.8579170303445585 -0.03068045980299232 0.5681394937628216 1.9242722270584407
Ni 4.576044219204989 2.144522140759529 4.124307881116781 0.001179879240714097 -1.8528102144627123 0.49547291933603055
Ni 4.344839482170637 2.997060519484274 -0.019341219204846494 -0.2827629836996872 -0.13843693595438095 0.06685151040691067
Ni 5.301177040485931 2.9710990889508655 2.0641366528938576 0.18947899013286076 0.2786787863279846 0.9323429414271879
Ni 2.2719835492550353 2.282120515139181 4.385792265832069 -1.5161841621959822 -0.8426276390482261 0.8307645690620532
Ni 1.33241992346796 3.104527251470006 2.3907024064572546 1.0603026319993287 1.266472195413993 1.6112892681319477
Ni 4.795697097045379 1.9034131505564615 9.818135501243159 -0.12003143686399974 0.1828270320339819 0.0494903934206438
P 3.298674815699231 4.781371302283488 6.887093717424747 2.023704242504534 -0.3253023997237946 0.5252529788119406
Ni 2.445857181715969 1.9559410646833981 8.685904364096993 -0.21752124098205763 -0.6713464028703148 0.6719511263338492
P 1.7319411133187692 9.311301169798801 4.255383783508353 0.8429135457197612 -0.7083715739444123 0.22156918579918614
Ni 3.382600329392029 9.066152286855862 10.621199156667412 -0.5129250533742069 -1.7645337014128062 -1.4438839699696744
P 8.293899794954584 1.9629224461463084 0.9388887589123276 -2.1146894127348546 1.6287881962476594 0.41912323963069753
P 6.9868083234340626 3.1252573001605404 9.605738605869885 -0.19213751080163038 0.007275450615490696 0.9352320900495249
P 7.017889433706939 7.852220369576415 10.57930528278478 0.7768701330364427 -0.3404775648023362 0.12106836276894634
Ni 7.579937184014298 8.119449034959382 6.0607336574841915 1.1259413530450608 1.2807014516394974 -0.41484569530126614
Ni 0.20716365182867463 4.203564246887185 9.318845716033053 0.38639643882163777 -0.09276874449330474 2.0836407709591667
Ni 1.7628453619279183 4.974513547582053 11.19559836705895 -0.29644459495183784 1.5956533613669035 -2.4688172213307737
Ni 5.341817989108686 7.582012981435938 12.714940590367457 -1.1175032495800368 -1.186136020257086 0.5170809845241094
Ni 0.41747544127169095 0.6398529195843395 0.40919924626012627 -0.9080239050658491 -3.4849560143286946 0.582264620310294
Ni 1.3396247091376832 5.799535974834315 1.3964131276587186 0.5416938979767832 -1.7255565488186604 -0.059621825427690865
Ni 6.8187990514019745 2.031125888784633 5.692097168374435 0.8289203167644627 -0.17334248958231438 1.709000187121876
Ni 5.901519995244508 2.869813206686964 11.850460325937688 1.3319391667685512 -1.4133513485984561 -1.2310421367411573
Ni 8.89594620679011 0.10169545664305898 10.852670117048216 -2.6079730377290504 -2.8430322875948715 -1.9937200374376183
Ni 3.8724140528298103 8.46713114032093 3.885276550037076 -0.5677008635635061 -0.49403335867602666 -0.3959835682894406
Ni 4.003375460565389 3.927166700516261 11.437014538046387 -1.871326785209661 0.7405093350192216 -1.1264226635568537
Ni 6.767713956110705 6.423708711652958 4.248000274473179 2.331815732271339 0.5185583404005843 0.2846964532769742
Ni 8.03995437136838 1.4209903829607478 12.295295335737093 -1.9940331978026626 -0.17730661643638496 2.2590943933472123
Ni 7.887732329951085 8.772338520862132 3.351176666002039 -0.25451273060474233 -1.816257612149659 2.0358455058527585
Ni 5.072122568942156 1.7391552074971097 7.424272856110359 -0.5696675003715738 0.026938476262056827 -0.23746040310814587
Ni 7.288850811045411 0.2953561858716035 1.4873125760075332 0.9689369385011377 -0.7725571074833856 -1.2739553911649157
Ni 1.0459505707732104 1.0406633378786327 12.001972128147488 2.6421149737180825 2.654817508886415 -1.5297806699334944
Ni 8.494488847146922 6.842973248280877 2.271928629054194 2.0863882517973167 -0.0803767985868551 2.3980954293351795
Ni 3.993312962750181 4.166144042245986 8.937429575442724 0.15587852846959604 -0.7391163113264367 -0.7938368427977683
Ni 6.775160763004476 1.0049186647885324 8.74331552184452 0.0983953466514628 0.5880249198328389 0.035009169085333254
Ni 5.199109243498183 5.152548083394882 0.9369088391294462 -2.682714235296683 2.927844753355577 2.020366436380553
Ni 1.6328334220712957 5.52147220542091 5.995570373760249 -0.9929009055159028 0.10050750789845916 -0.7185104621506271
Ni 4.172678615295271 6.531799113716043 7.919039636983359 0.8263985787838736 -0.033540554959606755 -0.9248566603524718
Ni 6.6816195599100965 3.827156083932918 0.25428239159814836 2.5150633967825073 -4.315130772325549 -1.2749419234479011
Ni 5.349181019424902 8.426220244948277 6.858116330099361 0.6842497411955442 -0.900995537464158 0.6814199850562329
P 1.7769756780088488 7.465284283376078 11.12382697306765 0.28019753696535615 -1.015281072983316 -1.4550872948846618
Ni 6.505595661958587 5.703695570111483 9.39519410371144 -0.13982893120590112 -0.040414399261304586 -0.2669910655774112
P 8.69557125029597 0.6523979966477583 7.012884248623464 -0.37447860433812924 -0.03058918564076667 1.3758980888480046
Ni 0.4848262245206785 2.7173956865887083 6.5405416650093295 -0.2757551849232864 -0.13577970083719196 0.5458881385637889
P 1.7253227636919304 2.894033946108954 10.43810637727199 -0.016143956749714132 -0.140894396355938 1.0119121565110831
P 5.175056057231304 5.570770067057673 3.2401550145753935 -0.818925667445596 -0.41086485627664726 -0.808510128539227
P 3.811043055516521 0.3778500509390742 0.39555483432901456 0.5599050216681711 -0.41790839338698993 0.8605322872427889
Ni 7.616249676130049 5.675490789001326 0.7274506399266284 -0.08625356908260629 1.457411315032148 -1.4770684271414432
