# total energy = -340889.1253643657 ev
CRYSTAL
PRIMVEC
9.11424922186811 0.00000000000000 0.00000000000000

0.00000000000000 9.11424922186811 0.00000000000000

0.00000000000000 0.00000000000000 13.33962501863509

PRIMCOORD
 96 1
Ni 6.703566781518412 2.008288365583948 11.141855268431302 -0.09619345390413755 0.8754619119694277 0.7749698306899363
Ni 4.762541575410967 0.49790687948802465 6.103558436214726 -0.7098409594010872 -0.12497412558125573 -2.5711031612858945e-05
Ni 2.9265672061769874 1.9127345764306067 4.7381810100114015 -0.5204067064632327 -0.4582754843501268 0.3600367178811864
Ni 3.4283704272200537 4.526546319540358 4.747692640530327 0.48242919877819496 -0.640193117195962 0.32436574684213815
Ni 3.7385192150013435 3.0014589922770454 2.643139574351417 -0.909937320038478 -1.1421925247966005 0.009856323968789478
Ni 4.855342861290337 4.808550305632835 1.9308837809652355 2.375763341496883 0.25523726747559267 -0.332743172272556
Ni 5.401514247689991 4.693902164297478 11.814772139197904 0.4917615319227144 -0.4287733611259519 -1.086865984310154
Ni 5.857974078706553 8.047070920942922 12.35453347409894 -0.8280903646639997 -0.7287179988112481 -0.18696419413080703
Ni 1.8884086451781965 6.523350731067342 0.24321374127784326 1.0272395308967728 0.9387653000137639 0.01633781792807509
Ni 3.0329396091919287 1.7709806578211147 0.22496610285129764 -0.4559257531710277 -0.005033705769165525 0.596854602309327
Ni 7.996605322837041 9.04434295979922 7.0885836583517055 0.4848030983270102 0.6343266311128559 -0.9921876814989623
Ni 8.497788774931001 2.0984374049311145 1.2943263847378745 0.15329199868934243 1.7747139843799178 0.17789308506747428
Ni 6.687890272805731 0.9512268516374243 4.809521884603051 0.7191344688878711 -1.694471654488398 -0.8930605988877974
Ni 0.9613983538021637 7.524678610840584 2.286065162873552 -1.005157611396069 -0.2118427025400416 0.8096187882223735
Ni 7.855990685383994 3.79422550642687 3.593294590276858 -0.06492781102163656 -0.6849472814832009 0.4972017291016792
Ni 7.990872460057811 3.783142579336975 12.573930770657535 -0.325995054915445 0.17720557208214643 -0.5537112341526335
Ni 8.218528177863243 7.30174407414746 8.754035892638575 -0.4126923964036893 0.23974045739157418 1.3061276050220862
Ni 7.094704788149052 0.6637734559174404 0.03340281208203739 0.2022486310937033 -0.21754978022714788 1.1194068943606528
Ni 2.1687629521561416 6.863448941889254 9.152049688904588 -0.9130018178964147 -0.21300946915463315 0.07236292714344311
Ni 0.2666628817522534 4.728363140717622 1.219037217370449 -1.3751295861130963 0.8168212195080835 1.2344434491132223
Ni 6.507090910402561 2.188741386515558 6.886061394282371 -0.9124225483541769 -0.3799781940001198 0.21386796050018653
Ni 3.4235216466182243 4.467239899660466 -0.01717671413948748 1.2470562527812266 0.005399059528384249 1.1140253183337654
Ni 6.112188718831027 5.566008218182122 4.494867011991791 0.8071399876645776 -0.1427723301049412 0.9311625479658415
Ni 5.327424515524071 3.4031148425439843 9.379277036995198 -0.32239911003407057 -1.2347231851371703 -0.5586498091048314
P 0.28440012222071176 5.736153023210219 12.49546711027579 -0.9990023904279506 0.6712795541881212 -1.5318048994523747
P 4.319397662550933 6.368745721013152 12.635145714330703 -0.8294201392190167 0.3375061408788381 -0.08165823640244002
P 2.528402113373395 8.609483899508852 1.4154146545943824 0.838044647663234 1.1195943277811107 -0.8778892904639978
P 6.742958566783648 7.900541135725613 5.742481957890502 -0.9992659285019823 -0.093019169941214 -1.0459684747648437
P 5.231907183367736 1.139700411910406 12.496400409399149 -2.177493235434953 -0.5287597064136184 0.44544979334036827
P 4.153746182403854 6.438624670024853 8.105489612945712 0.13626538222435886 -1.28094236400571 -0.26054402440048674
P 4.625472380916777 1.0406649795429697 3.712337622601316 0.32632029946534763 0.22615706228018467 0.24497136677321038
P 0.3140505978858824 5.706750455124691 3.3779531346352063 0.3899481607286381 -1.0516781235551111 -0.5732906989464579
Ni 0.5824205785229528 0.09548360943410414 4.996917229189575 0.37393790134331084 1.0086041751837727 -1.0336251227081426
Ni 2.0191434364425542 6.485708881658406 4.8295313074099235 -0.02078762616931259 0.6833585968398425 -1.5405890734029082
Ni 6.260723638883679 5.578996023365594 8.931079272925176 -0.37827818058987756 0.5275602867888785 0.9492204339088168
Ni -0.2839097756109779 2.178250885627014 10.108273883406643 1.2136193132790196 1.8229211402127639 0.2113066275309135
Ni 2.3780443434704317 5.506966111530525 6.916035425795972 0.03956439255618348 -0.3720257719222625 1.3000374329639484
Ni 0.7098332259351172 8.961868118321865 8.93946985078616 1.0713591469238066 0.8553900809202172 0.5739026214988439
Ni 1.5808118471873427 1.2564448305736213 11.639476871917752 0.7329819162939247 1.029575121008485 -1.2906716754783323
Ni 4.1058143455899065 7.072712104705041 1.4618891229530053 0.2799142013969824 0.42600171191808567 -0.972498430600151
Ni 5.959971642080745 7.827107629505805 7.941145116141306 -0.8453928604981892 0.11267705338145755 -0.31262454714581
Ni 5.380897815882966 3.0485887751568552 4.81936618521966 -0.12341732261709712 0.5103812039064307 0.19175390220996652
Ni 0.6831995667722125 7.473137531323021 6.680937923476642 -0.43730968073173715 -0.7746566703248917 1.028893007339796
Ni 5.156714627042377 4.921083941141831 6.7012007224127075 0.5012787273845302 0.8095144014340252 0.2729876494804782
Ni 1.0647903973118453 7.995301985194068 11.374697905485796 0.7955641099015202 -1.7347145611688448 -0.08065884860364818
Ni 4.926032978485426 0.6668650092635691 10.330125647288684 -1.3210824265597054 -1.29491425280477 -0.427044037139671
Ni 8.55906387264923 7.339012239337083 4.364151360650862 -1.702032240444475 -0.12672427550314305 0.4664325662396225
Ni 7.3903072341248555 6.0557350589668735 6.840466450976524 0.8348644501630397 -0.44096373254455673 -0.7478207810789701
Ni 2.5820121274710632 5.376851089215274 2.425944280411998 -1.478135177843061 -0.20135183031104675 0.14435664387292557
Ni 2.4459546146437954 5.5436965360143065 11.343403219255645 -0.3533009418192496 1.3822106613295937 0.691277337466287
Ni 1.2146104265089668 3.598825116722704 3.700158251326458 0.08266070952502538 -0.22869834064479969 -0.6119171530694043
Ni 1.5037052985191564 1.3372426501886887 2.4285454871483934 0.2735558632791224 -0.9591415496772706 1.152066332266887
Ni 1.1741249313335431 3.334001490469415 8.037163732006478 -0.48156402256442227 1.364105981309083 0.07571153190070186
Ni 3.7095267881321354 3.3026302445455498 7.08676901132572 -0.8677036081802476 -1.1946440577280975 -0.08051666659882907
Ni 4.372971219651594 7.176587203425055 5.531395945224403 0.30321919467151 0.03896069753391355 1.0883559385921193
Ni 0.7549706339285364 0.2687263477828063 0.33274665737560477 0.041914380845598787 -0.3924585858553176 -0.04215452188086288
P 0.29509933941711647 5.717605525983298 8.044860715499418 1.0784877875487877 -0.8367153873288492 -0.9919848214595369
P 8.855723571538213 1.6837481782344468 8.096578611452463 -0.29347317102833975 -0.8793198522629372 -1.9516367351143225
P 1.9163164763864693 3.312974917446069 10.642019813801648 0.21122718044322977 -0.19367785870555676 -0.7843237611010105
P 4.294214991868876 6.133379348340901 3.56830969880356 -1.5136310567568254 -0.21685686792518136 -0.09188094257171273
P 7.126176290814684 4.056406000397208 10.43717615044794 0.0574520714698817 0.9715273249361333 -0.3596963038226321
P 6.554721976991207 7.952255385978956 10.182002691302202 -1.2428015912699306 0.589864801255055 -1.1554262498780552
P 2.436667194656457 8.399327540266412 5.940762450358161 1.2765565762331885 0.16384097784978235 -0.5771170146710835
P 6.991276287642364 3.9711695413966304 1.248287577493476 0.023232745275695472 -0.1922400978177657 1.3956043090276804
Ni 5.248440431510063 2.865811620666097 0.4653799467590621 0.5472428528194704 0.07017260436034367 -0.14356500120956564
Ni 1.7375313630678944 1.0209873154088542 6.96785995846526 -0.4306816338922583 1.3831362584676565 -0.2339433910938229
Ni 6.869272947161001 0.8213679397261413 8.987799068867476 -0.06344119917378105 0.4265100190130719 0.0050113371716623365
Ni 2.8121286925744164 1.964357684191435 8.986091969982658 0.6142614849318647 -1.1445391706519064 1.6425466834843323
Ni 6.247626462709189 2.130957046260676 2.722603979300982 0.6090881682610414 0.18572235130390594 -1.3111674814388388
Ni 4.395155302329888 6.849176027561314 10.348107149637084 0.6624182471427495 0.8042333555407439 0.2998698185833029
Ni 8.374791981281216 7.519702230749234 13.29928647449298 0.3161050494952427 0.2310717259729827 0.5163232804224785
Ni 7.6668608991649 3.5950518175325583 8.276916792843505 1.1399021861005274 0.9768345960816595 0.2706536020306629
Ni 3.2420842867674455 8.634046801241803 12.342835335184564 1.0144148683282785 -0.39953169065201516 0.34649086087595166
Ni 0.14293512531249408 4.971886766470018 10.049260030927726 0.40111908974379307 -0.6641799670288626 0.7526541979118715
Ni 8.57508672283347 2.230393505595181 5.659402841687769 1.222423798944527 0.8277311815523679 0.674138106682839
Ni 4.092261456952839 2.7182974965296203 11.46069904999858 -1.1888493054231914 0.2515755023532893 -0.4255139736483898
Ni 1.3913721764936957 3.872744763729048 12.659263840700177 -1.0767255534420423 -1.8015043650998845 -0.233429684682198
Ni 3.450581852646102 8.540917402389377 7.996038416533594 0.6006374663905268 0.7822848762941108 -0.294799346038931
Ni 5.488026701585786 7.834718027630856 3.3047584217457886 1.3890387399950206 1.542610217597995 1.0548493221942414
Ni 2.949708285026695 8.453584666060943 3.7600133490112944 0.7350534541109728 0.8020648871345154 -0.7068399677912344
Ni 3.2282944276498373 4.587393047543764 9.480271121526796 0.5291602842861468 -0.34584242865867537 -1.7437566167664547
Ni 7.539398123381852 6.400153423934023 11.198775577857136 0.46943484340105607 -1.3725340574717781 0.37829694964295496
Ni 8.081531897363066 9.063209455749947 2.4414986581847082 0.1101756271158425 -0.9165638242160602 -0.32208157879365173
Ni 4.75396506686525 0.46131408016794173 1.5092586105881312 -0.03311760848957523 -0.45969216219199543 -0.27503656158970696
Ni 6.627408114772388 5.852678699891397 0.1752715702320991 -0.7263695531837296 0.7258339923952338 0.05806476535321613
Ni 8.245333184912077 9.06276285753662 10.924539666401763 -0.5492614259113959 -0.5337718149162292 0.044845952670096965
Ni 0.3170993142605288 5.032460066995878 5.513707010276978 -1.4827780759317108 -0.2955513937136071 0.8948079205962073
Ni 7.326215833387894 5.856178571603996 2.4967109573008 0.45566581464142175 1.1346782186974265 -0.49420048038151015
P 8.63193229541544 1.576099780324287 3.5857580175707437 0.03481916456171423 1.2923313225689421 0.28386932938998855
P 1.7016121067675016 3.207851166578591 1.4968258631840798 1.906659141962368 -0.15535582319690663 -0.6259209235476639
P 4.759807300635499 1.5767286635226447 8.063989701828591 0.5321052258470836 -0.46732679591911774 0.1912106281119868
P 8.649313168738164 1.6351692297236389 12.194658605127497 0.4729526267463274 0.2105180701913471 2.1537624674769162
P 6.581454070046029 7.928339595942867 1.4215503671905318 -0.332423327039292 -1.0050293133483208 -1.3447288623340519
P 1.7471104390312824 3.445514330062235 5.882200664642121 0.9059886198033752 -0.8229633278500794 0.3815699639672719
P 7.260720838266193 4.023567360343841 5.900569522583712 -1.0563932696425935 0.6612779628907192 -0.5836607293268722
P 2.8309040460326274 9.032676720757225 10.073471122639567 -1.685251935662343 -0.9919454835811692 1.0263707551385743
