# total energy = -340890.21872212325 ev
CRYSTAL
PRIMVEC
9.09004805341441 0.00000000000000 0.00000000000000
0.00000000000000 9.09004805341441 0.00000000000000
0.00000000000000 0.00000000000000 13.30420416231058
PRIMCOORD
 96 1
Ni 6.219447106764162 1.8998018228766511 11.299659422205258 0.48869523429256473 -0.3847383343929245 -0.2301520423721907
Ni 4.5039096440801085 0.4898463171491667 5.921488063943921 1.7628102909637964 -1.0718677111291088 -0.3674324961246253
Ni 2.53905034866148 1.513711130023787 5.088206103530157 0.03011584554877394 1.034769777835547 -1.227386285156125
Ni 3.4022322035047985 4.509936345812026 5.030412488233996 0.13040352412694314 -0.09140374582497807 0.14193363625372976
Ni 5.3928799647054015 5.011270665448065 2.8527542633819523 -0.6926009413737169 -1.4527797297974077 -0.4904584968405747
Ni 7.605034012185577 6.177305644880047 2.5198957998085447 -0.6222786988093862 0.7761157713689215 -0.22910483205459897
Ni 5.003589575005426 4.662212827581371 11.634553147494769 -0.27854868850802345 0.13771497018669185 -0.41939731922769063
Ni 5.369636712324539 7.743539071445339 12.584433151823012 0.8264273751392799 0.6766760426133442 0.5447080022127587
Ni 1.7996294954471987 6.000631474651478 0.2851093511637727 -0.46082550446549025 0.7281065904794944 1.4259068166659636
Ni 2.9381943502429007 1.5769051427542364 0.19132641837589578 -1.0462353552729853 0.8045295466249242 0.7872591895802507
Ni 0.7462774763159177 8.77810468866206 4.736136732807077 0.4838420199653215 1.3765112969519713 0.3484860369291095
Ni 8.539109150297707 2.323898005836824 1.1857094790225722 0.8966938247650105 -1.3919078340126996 0.5533188838102212
Ni 6.773994566579151 0.860125780752413 4.775184851404054 0.3229326139400374 -0.8101708040711014 0.07316099756470626
Ni 0.8642535714861438 7.557447611632656 2.593042505942126 0.4388590274967281 -0.4177942364066289 -0.6539176658709062
Ni 7.798706571914426 4.170413968151638 3.9487140638526226 -1.311219931943329 -1.4641890000756137 -0.19268644132656493
Ni 7.695016395962723 3.92598258116634 12.745733324104084 -1.1616033252230444 -0.03610934412804749 -1.5134317962618258
Ni 8.004059843144804 8.83206321276562 6.919183538031186 -0.12125039687276538 -0.8239231206601875 -0.5100186783606894
Ni 6.813772616019375 0.7202499422751962 0.3502222729977029 0.12266141828767906 -0.25554091475894053 -0.5880002372424906
Ni 1.4699789097639782 6.6973654631099775 9.236177652517497 0.5130296972728714 -0.7547411623478872 -0.2200589198022468
Ni -0.07489926736120318 4.5526323006156675 1.2563264248364054 1.4525820119643047 1.592666767934754 1.2339842500886167
Ni 6.548379578666355 1.9083010176267907 6.903312314465685 -0.4854111642246543 -0.1451562569560855 0.6984669132361906
Ni 3.802312480015914 4.28243971799198 0.9091884050779779 -0.48592641329817604 0.5373980988149067 -0.31217049032752686
Ni 6.319228562135587 5.864762529271439 4.790630660729656 -1.6203004704916224 -0.7940132204746325 0.9101016135304844
Ni 5.5210678196428 2.8495300234056153 9.0080101791653 -0.2511337868301804 -0.45681998285052294 0.5844534004314967
P 0.07548739345781712 5.645592385292171 12.210624931640083 0.3531729008818176 -1.453903816099522 1.028747225790551
P 3.843881268884778 6.1949676078741875 12.858140855954593 0.9894206602767863 -1.2406655187635343 -0.02768306773756523
P 2.55540334476362 8.60372121049449 1.4441049975321094 -0.717738359871293 -0.08740336641633334 0.3207446051497831
P 6.369687417812618 7.855264849706264 5.639625677876138 -0.6562699681531665 1.2344719883583126 1.2019542182362652
P 4.7606398658214895 0.9394382663501858 12.655344615187545 0.5479817878680241 0.24079666657023047 -0.07045439726682061
P 4.019646434327236 6.239836084116636 8.0888227214401 -0.27154526060699685 0.35077663273549914 0.8764625853198004
P 4.758640055292045 1.2303197979057645 3.5491755541940297 0.24154640025206142 0.34375777821550474 1.890619314890686
P 0.24275700016928042 5.612413710599113 3.574254087238051 1.8541091357797936 0.14205602076420695 0.50364568495481
Ni 1.6181285098043787 1.1808426673977328 2.6060540004505213 -1.0106587437199563 0.06495403627388167 -0.07170138230004426
Ni 1.9499607069742664 6.594075249264163 4.747205684087553 0.14187244399849114 -0.023419664475520956 0.10102558518545827
Ni 5.876879563070301 5.793105681982294 9.244838650119563 0.7194270604276255 -2.5481707208594373 0.25729543555620205
Ni 8.446027060199922 2.1863837617939237 10.300953134795837 0.6304548068622756 0.51834545305883 -1.1091175966195026
Ni 2.292782772008238 5.213206078682664 7.217797064297428 0.33358623699914164 0.7130196142393849 -0.14668837732989576
Ni 0.5092244811794849 8.962250878232464 9.3892422414364 -0.7950056662948889 0.5184238717052492 -0.7630905627538471
Ni 1.2552083489494887 0.9516734707712423 11.656132012112263 0.745974986119483 0.8110223534381193 -1.0737379315686284
Ni 4.249024702054532 6.910590715788079 1.6246160769628541 -0.5360919784089736 0.47176837663023913 0.09067612363033416
Ni 5.6353297212569755 7.852292404055681 8.240890132108639 -0.6433874557635435 0.0424738528934946 -1.1343743143037626
Ni 5.351156645022898 3.0472022041933537 4.811465050427325 -0.49538524471823076 -0.40854494989421897 -0.6247996654590271
Ni 0.9147224262158228 7.28040113292169 6.801468327234574 -0.5709188562801716 0.09346242812621967 0.71577737949018
Ni 4.968520170357256 4.476830391501856 7.224022838077503 1.138638231786439 1.072548025025585 -1.1217985345212809
Ni 7.873963078156572 7.058776676019923 9.38207110267877 1.730188134053401 0.7062794673020739 -0.9618388940037758
Ni 4.494446904256691 0.08631636747475964 10.643642485131036 -0.7982210879083931 1.6100402262161948 -0.9378448450820235
Ni 8.243646234620128 7.159667117230403 4.848983313969278 1.259873973371185 0.016424978325242676 -0.5014885294024911
Ni 7.305735096310609 6.362169948231479 7.027546907588287 -0.3051138405910616 -0.9480356695720963 0.2661120054065675
Ni 2.294019018517349 5.2701461384846695 2.709081511913149 0.06052788218172801 -0.0239973913558619 -0.6142856533015808
Ni 2.3923551562788568 5.553719271559914 11.40647930163554 -0.5209371250454061 -0.4763585671040828 -1.3703169952158012
Ni 0.9748621828649386 3.434283712263079 3.7658877492316525 0.15383501567700603 -1.1678094540337565 0.06895775811663608
Ni 3.334474986748071 2.881090669579396 3.167199017003105 1.3580888285807255 0.22752746026515008 0.12302111561994297
Ni 1.1244661905631173 3.4175489341507723 8.374716543734285 -0.3980453359144758 -0.7305774206174902 -0.037909887671896
Ni 4.007374869714735 2.467438951611641 7.075002411452008 -1.6305715134003271 -0.36389748638817326 0.011458892569218976
Ni 4.138980582647912 6.976229951393166 6.04074676486735 0.9295831192938635 -0.035799011976480284 -0.34372435387440803
Ni 0.7431441368181925 7.529859316374182 11.52504624991674 -0.5798619244060723 -0.37293877065483516 0.5834758670095759
P -0.048464499176303855 5.537466265984246 8.025042400622608 1.3105460458047558 0.826673429711815 0.40802918660006504
P 8.679541299704024 1.3933679863905275 8.031281809474475 -0.9364546496027163 1.6849380039663495 1.3143001135305494
P 1.9991560459986037 3.6707431272741813 10.402024467958753 -0.4378174736060912 -1.4286635534754943 0.04465234860205213
P 4.007138528470347 6.308165973888613 3.843651290673892 -0.5761885893195431 0.29345928707126884 -0.06249246210726656
P 6.858813803171185 3.8418087379724444 10.470315270524928 -0.30154077852782263 1.4030265696336806 -0.482439226080524
P 6.1994762716133 7.880507912616571 10.52180221061505 0.11033966349753255 -1.0487930886978325 -0.5557706877848234
P 2.629614495501737 8.542745169442153 6.022866640724542 -1.9636317026926697 -0.07826463733985876 -0.9987059422334542
P 6.866767595049657 3.971896412912816 1.6608835499191184 0.36814314903840467 -0.49098197344421257 -0.6790774529659853
Ni 5.466409361853935 2.9667643706703752 -0.04929805656516781 0.03090157467486291 -0.07610336802248184 1.4409948213473378
Ni 1.463297724586061 1.044455589289611 7.110445417067268 -0.49133215769477967 0.16560578305968898 -0.28493248054718023
Ni 6.960376907923387 0.4790782464528937 9.307155473231417 -0.12555416645444184 0.6780528683562129 -0.8027886526744173
Ni 2.6322415193335984 1.4650339237275334 9.076540049990223 0.6240692150509058 1.265628616466775 1.8002820626570093
Ni 6.695074771048977 2.0112730797974656 2.665976504955757 -0.56807650173537 0.3346959251235527 -0.09043161171969587
Ni 4.098393518948049 6.929997967971552 10.24832175768 -1.0005437667731414 -0.42326888636795496 0.3013140072289972
Ni 8.065472206494475 7.119607276306484 13.346910002432217 1.0557083277604271 1.284596930039162 0.5664011709154761
Ni 7.729767648935754 3.818110983198526 8.107528221928696 -0.641565057842824 -0.08347446367557236 0.2563173879136489
Ni 2.949593270260735 8.305885792325162 12.570649912251207 0.37736055387161455 -0.26239033358060615 0.407363270881292
Ni 0.029674461242599585 4.698109426584901 10.202781526900614 -0.6590716992680198 0.2336032341455848 0.4234226383369998
Ni 8.704311680125555 2.559884738359148 6.088934926588676 0.3721342724756688 -0.6970690044473995 -0.9369264470328122
Ni 3.6860053176329877 2.5093713423949495 11.056910603079052 0.34812839647937466 -0.07442418054784601 0.7592840445235634
Ni 0.9373748254857135 3.3913695963107697 12.434361915664773 1.3072378073671294 0.34582520226749475 0.03267486452520179
Ni 2.8817087928339515 8.5027398688054 8.187114317967087 1.7338930937088137 -1.8885050967611605 0.10363576911479572
Ni 5.765035614187181 8.011722753491721 3.482760937506388 -0.6217269400709745 0.05904872653304024 0.21008355375708979
Ni 3.1636184471506126 8.591086043967545 3.6584697446521077 0.8068412254772362 -0.5263264143817775 -0.0898428290957614
Ni 3.6351101396586225 4.429298531236102 9.255322202317785 -0.12231123403711193 -0.054681707813596145 0.5900694610666934
Ni 7.10682666901376 6.065561686523399 11.367311194406797 0.00628660433966014 -1.0151774575259163 0.8087811228124264
Ni 0.6541716573584159 -0.11555359741523975 0.326489067037126 -0.2589599677428185 -0.016575644970494033 1.1680251695889885
Ni 4.71738941809832 0.39636335594070654 1.6271840154836184 -0.2795732731177959 -0.7981935771045672 -0.814640666916997
Ni 6.254152909497887 5.73182966935054 0.47583673538562116 -1.4664803672129518 -0.8798405006530976 0.009326676717564583
Ni 7.882589533576766 8.85895157433879 11.462835780364863 0.20852700790324732 0.5112602640772743 0.6466177897753832
Ni 0.3623602139066455 4.796127412671271 5.793781072538375 -0.7518484141811245 1.5152266833787196 0.21555357573272552
Ni 8.06330877510353 9.017336568270801 2.376037611363375 0.9108006964800378 0.43291078033309316 0.5966512280492692
P 8.763924213998724 1.4237560163902243 3.9312993501603044 0.026356892726973963 1.0840657958571975 -0.36149890424900966
P 1.9163275298881526 3.1811440594268365 1.614637931425712 -0.8829852169296664 0.7241684317673528 -1.2978607370276036
P 5.037095491421484 0.7729903999653671 8.170018664954695 -1.1280740831173475 1.815673200401099 0.19100802518287746
P 8.476660521491869 1.7772588876610025 12.412463081362567 -0.5823270981171133 -1.2304865213480036 0.5252568354666824
P 6.560760223853189 7.830839891103456 1.458247293994427 -1.3445709965999488 -0.3106489114766779 -1.009788939520493
P 1.8603510151594258 3.2792529459918165 6.265401843726012 0.7550512373891384 -1.0554710149386404 -0.801244191005433
P 6.813908966737292 4.011229050007847 6.01166406574051 1.0227699251611935 0.33349547705754823 0.48309537160728416
P 2.2853834730492926 8.432482888886865 10.474439425239513 1.5752912527707836 0.8374237262497836 -1.5113821128216487
