# total energy = -381176.7426186912 ev
CRYSTAL
PRIMVEC
9.18535978890412 0.00000000000000 0.00000000000000

0.00000000000000 9.18535978890412 0.00000000000000

0.00000000000000 0.00000000000000 13.44370252145642

PRIMCOORD
 96 1
Ni 7.831217108509343 7.68406764842799 2.908974896656571 -0.44569173414784535 0.4382627886736258 -1.3864354980442188
Ni 6.742338659985998 6.013425267088628 6.841459712022821 -0.4030628437337252 0.5903260571621898 -0.6304895167549529
Ni 6.024861039735399 5.472168769912985 9.67289180331068 -0.09556661895341606 0.4227603221626526 -0.5064906106027729
Ni -0.008798655918347572 1.3222233226748248 8.925489200163762 1.438078419031491 0.33110255134533945 -0.1512168613278686
Ni 1.6271772599220735 1.6195901529291148 5.73049874059176 0.7241159812628626 0.8783366624140615 0.17143601658822086
Ni 6.664621332785728 3.7231660862044578 1.8716318264560992 1.6360083681451822 0.9752664802635913 0.8473900934338761
Ni 6.939364622454476 1.7735643351603085 0.6046281298219153 -0.5672334370087844 -1.6630167784132261 0.5716997003102542
Ni 1.3493017626448516 5.786859188289212 10.168036876981054 -0.2836168470595502 0.011522398817302737 -0.08268179257094793
Ni 0.795773625102873 3.430235784615542 9.926493150890211 0.6458384884071975 -0.6349514091810484 -0.16409911660717544
Ni 4.967644525600345 7.890040151103662 10.325757767374993 -0.4096502671432558 0.05409215385871329 -1.2087298463972023
Ni 6.75415103237455 7.600728881179668 8.60458764165601 0.1895936613338541 0.3392359790857512 1.0670846879181686
Ni 4.254869809442236 5.614045833609401 11.377351004390086 -0.3904135304008309 -0.29896556160147864 0.4608887536032578
Ni 8.342409923859377 5.6128976636649455 8.484844538880822 0.05230266605845831 0.29683565974266946 0.8223997420371257
Ni 5.311627055599509 4.321004398242843 7.309663207580548 -0.3978064804307923 -1.2729274641210335 0.915353863068359
Ni 3.591980781030807 4.945673145543254 0.44897302679203954 -0.06757219062301911 -1.5191095633728933 -0.559011049098992
Ni 8.060171380793227 1.9604496606793604 10.774858470664855 0.2513271337879091 0.3428638056463256 1.1843889556589924
Ni 4.00241020205547 5.599119624331485 5.7392101355943295 0.12628975906888573 -2.047777995624286 0.5729839663393165
Ni 2.579735787280166 2.1756901911466726 1.2421876107227112 -2.004675250897541 0.09388563170656733 0.7697155242695324
Ni 8.277735807228115 2.2224344859253247 5.123004778588485 0.10196223806711473 1.0589070372033829 0.9398315364947492
Ni 2.414279905604422 6.832768524811273 7.786376938766576 0.4911084717197477 2.4593144240466613 -0.4572727541172254
Ni 4.107959168709329 9.16567533011228 7.865923989590329 0.4523184954357436 -0.2508028858533229 2.841503509655171
Ni 0.08191319944528655 7.736635461164918 9.070801588333985 1.5558963931839398 -0.02495024218743445 -1.1559697810863512
Ni 5.949807466806266 5.631433719248227 0.48963018379316897 -0.035940422650351 -0.05467965093106712 0.8243594368666576
Ni 3.4629815914313986 2.7835129890220394 12.512968236476349 -0.812037167855879 -0.4917083100872758 1.0167579146391585
P 5.492569453486062 0.8237099776553966 2.083894463355473 -0.41762788603209366 -0.7903000332891034 0.6073652720326638
Ni 3.5243030518248513 1.4536015203991441 3.57090313645848 -0.9705623899197026 -0.8869537146591112 -1.7389453114207407
P 7.458796705325919 5.5111973626649 3.0478887633603375 -0.7272555553331088 -0.15577671278440913 0.6710281002989477
Ni 0.20411981565329917 0.21973584543384275 4.5259297699291725 -0.5880586012842518 -1.804588403341847 0.9826933688552819
P 4.944763794947247 2.1151035595176713 8.374835161626743 -1.541228763869436 0.6443796444734837 -0.6508074023766985
P 9.176835541972384 2.5167425914475867 1.4029984560711675 0.04731369748429916 -0.09179763882928706 -0.006642702127498238
P 0.6269503906140316 3.140189685927097 6.92823839642473 -0.09753222732021913 -0.1935451897824344 0.25250855569051994
Ni 8.221686743219601 6.906324884132839 5.016113830903547 0.2345388585859767 0.6626866703127878 0.812193233817769
Ni 4.3486247744266535 1.1159385177742613 10.539875846904605 0.20272865605391538 0.11636787196948345 0.39447150252028834
Ni 5.154098139220282 7.251189208649344 2.3871041008231053 -0.26562760957098125 -0.6392472083429249 -0.9816788115478384
Ni 4.079456998008179 7.207760828670278 0.04602783673331213 -0.4353265888634374 0.38186666927208424 0.3302587152878054
Ni 4.725141847971893 2.67200272401657 1.3345629347018715 -0.03658885486762731 0.8840915626199677 0.2661315457905933
Ni 3.2405856658702423 3.3267259677830348 10.33351480351973 0.8733183832638637 0.1192379944284269 -1.9480546741900189
Ni 4.089900751822942 1.0276488417254497 5.881269987945902 -1.0039270814230774 0.1917564733131278 -0.36239107704597584
Ni 0.9819608632956961 7.145695354152817 3.3457341508474765 0.19092189322697442 0.8943860025674403 -0.6264096902586244
Ni 6.681650989401883 0.8761133724562783 8.716480017618995 -0.2818993501478113 0.19040895814629788 0.22452132644897463
Ni 5.70882955886405 3.069168485842889 12.430786824532039 -0.02631369819386436 -0.09701363581258776 -0.2562739362702232
Ni 6.028002432703429 7.519769122056258 12.259096839325883 0.34041637254709756 -1.5022518683856063 -0.05588961207876826
Ni 5.058717365594517 4.908040727443797 3.188523966444831 -0.13708813523597035 0.09695270066766529 -0.1353125313927863
Ni 1.3279182455993217 5.04836546537531 7.90512526710189 -1.2638771809933071 -2.7764900808982635 -0.7220382727982275
Ni 1.9534779727766294 6.996993568306562 12.081102023320733 3.1402896082559915 -1.605795592007228 -0.8478320660673011
Ni 3.303165520522818 8.747888436083551 1.7270184441480583 1.2266316663782875 -0.267490630921649 2.24038216164969
Ni 3.2752787689118947 6.985888468603793 3.9756927467159797 0.5817583700978367 -0.8788763369676154 -1.8828728381760476
Ni 4.11743845977075 3.1419440896022244 4.846764275312167 0.11062222773495786 2.257061936298216 1.2517603431251152
Ni 4.583466862185702 0.6528668826002699 13.338195635530338 0.32825145504978953 0.8386961652043039 0.6830140690162302
Ni 0.528415364516859 8.374668906618785 11.43061506738133 -2.3538647416515786 -0.05380033364990735 -0.536278897608799
Ni 0.10532851802452407 5.425350992257887 12.525510844949576 1.5031622960150177 -0.08595994910158744 -1.8345016459615116
Ni 0.4159029767838688 4.985941761835181 3.5954647879102613 -0.5381776572934086 -0.886885323315021 -0.35394166072704203
Ni 3.768385611296874 7.822803319156377 6.008219005292492 0.07684333151229993 0.7192653380387806 0.24142118752810682
Ni 5.765494041962793 6.855777850498152 4.6052747428427026 1.3756538340476823 -3.393587749727343 0.9250204396238456
Ni 2.6097443569484415 7.894890020949041 9.828771029113712 -0.16372399265594384 1.2069794393649989 0.6852496432149683
Ni 7.735331140108018 3.654698416076717 7.412400535674426 -0.8644138816853822 -1.8501573502208977 1.6931791609292195
P 8.559955979575156 8.163791421940402 0.6791406850732227 0.29529788294190434 -0.048350880499561884 0.8232536053969887
Ni 5.982121561723008 2.1874382660183365 3.8216680450072302 0.043184505807274016 -0.7166826649132689 -0.9146905184527473
P 3.488011696220518 8.720644659641522 11.98153823695333 -0.7100571891769513 -0.7675259728173813 -2.2145508024088825
Ni 1.8893090509209285 4.018346800884506 5.270522571588019 -0.30275073967552374 -0.378946924522128 -0.36057922064821774
P 6.434252515130275 5.095082204075295 11.982735089303429 -0.17500959287209214 0.7169022371232427 -1.108969758187729
P 4.637421664215531 6.832639929777495 7.9903451959872065 1.6487142457476254 0.9784896151865792 -0.16854429686272263
P 2.4042127515314404 8.905187718473886 4.4200207371807325 -0.562621906378702 0.654075531605009 0.028695311052163483
Ni 2.0266118055586353 0.2320102414080445 13.503123359031633 -1.0836446491593787 0.5611476358260207 -2.014276521432731
Ni 5.99722229283248 3.132382130304803 9.99000164539386 -0.36734790683061896 -0.5341261129318543 -0.2356223214581426
Ni 8.789810417095492 0.7712165663308693 12.945854943078595 0.30001868545634136 0.37471026073296115 0.30952225407140244
Ni 6.362615895955839 4.193263602902558 5.093939545346574 -0.1431435974014309 1.286180729586514 -0.5036503129405003
Ni 0.8864487390282845 2.398517828606944 3.5603491583290494 0.36053345501194684 0.8062321311383276 -1.4158828567710582
Ni 7.888763386125428 3.5952875104708375 13.18686040709948 0.43561789485161106 1.0510047516371706 -0.3035534380824772
Ni 8.375569071855237 5.857724237260975 0.9951859439839066 -1.4430486185525728 0.8556533618839329 1.821961861623288
Ni 7.87049370596926 6.752644633407425 10.908286840641995 -0.09680974733189779 -0.09268981162625327 -0.1529410431078269
Ni 1.2162885709196287 4.558859283936142 1.2309777979210081 -0.5478501473861662 -0.27659130767133655 -0.5126301478416074
Ni 3.067827423347765 3.3048464413214997 7.169916228765085 0.30330712639962604 -0.9392656366889501 0.6647216984649456
Ni 6.424111878180849 0.5999886047103615 11.837152651562269 0.5845153640176836 -0.03935201943506126 -0.5604454675526734
Ni 1.123553180845887 9.356850218543816 2.3945791464294857 -0.2253872739936957 0.45089744671850085 -0.960777542618797
Ni 1.7562683031170383 8.85307917371474 6.954252253222258 -0.8469630331987864 0.6091516745091251 0.18052718025621167
Ni 8.391423002448272 0.22773170092702738 7.159497275421122 -0.29881900872128536 -1.5216104754178763 -2.154789366079534
Ni 1.5979127043778045 6.231301995748409 5.563138733880132 -0.7489340687478069 0.936303982957465 -0.1278211081117476
Ni 6.085392559207069 2.217088606663942 6.238240616356741 -0.1792431713374655 -1.219092420578449 1.588901901575683
Ni 6.478498392109794 8.417840096530293 0.8291752665910023 0.0232456007915019 0.6216400367841229 0.4330501341244348
Ni 0.9154689640083735 2.941951255997274 12.834715766599174 0.7276311935049726 -0.6868869217080751 -0.8990705525273032
Ni 2.5259922485201165 1.4870729706198964 9.012778590556964 -0.21355300036292899 -0.09240287651345376 -1.6656128212751766
Ni 8.037961181387688 1.0730980008067563 2.7931576165554617 -0.6587598244545558 0.17838545132286052 -0.5681685472285442
Ni 1.6660221454828752 0.9816761171494712 11.084184639060588 0.8255981943697652 1.693422387288277 0.36888825473454534
Ni 5.187266472575699 8.79158319148973 4.166149340030265 -0.6473474688525561 3.4502962581629806 -1.0121962634104054
Ni 3.5623396257447566 5.2286832588120795 8.733459154757595 0.7369928372255308 -1.7395387220303653 1.7536363377740123
Ni 6.065864484791777 8.49040443701985 6.580719502996645 0.3633845513074968 0.4923878526528036 -0.854321787556703
Ni 7.991565930272151 4.310909688091196 10.747379549018204 0.08748949837223642 0.19371025460538896 -0.46235942461151336
P 2.831414639104702 6.258334508920658 1.8928601109251386 0.06527465283809403 0.35190303303045845 1.0410561250648909
Ni 1.2399225010562904 7.168585270165473 0.6399338963459289 0.06867005167288819 -0.19026163393515622 2.3472202397518673
P 7.960124444513196 8.932110007331467 10.17487905131405 -1.358287831965409 0.7370350033173758 0.7386517129851924
Ni 8.51107149602004 4.750043357727234 5.724167272250058 2.090410742693148 -0.10861085373188392 -0.8440921394088946
P 2.1729713247182034 4.431228712910524 11.740640241639248 -0.5010696966975178 1.2297069628695017 0.6070176588852577
P 0.12530759359399668 7.234811712561637 6.893258710164941 -0.10025811089181443 0.022350856891374407 0.5708869746009716
P 7.0074189514022125 0.4593809577045353 4.96945128582494 1.075539246443425 0.03130318098865577 0.055221125256833925
Ni 2.71563318190586 4.182066649604233 2.932837542246168 0.9045518873568487 -0.2083971671936024 0.6576097700105126
