# total energy = -340859.96113608085 ev
CRYSTAL
PRIMVEC
9.31194017020709 0.00000000000000 0.00000000000000
0.00000000000000 9.31194017020709 0.00000000000000
0.00000000000000 0.00000000000000 13.62896570443710
PRIMCOORD
 96 1
Ni 4.705863542000598 2.9792621896312546 3.92694115074093 0.8880778009612253 1.430200558945311 -1.0285533646121898
Ni 1.7114508254501404 9.448639615474907 10.655153270036449 1.8777393736042243 -3.0621221586156295 0.25295207098584177
Ni 5.505824400051021 9.262680167056653 2.3961354493619083 0.889382635815578 -1.083189049679199 0.9832122174732294
Ni 8.81531592965506 9.188510562316972 7.663199836927515 2.242610022538944 -0.7348012288908506 1.4768799652797209
Ni 2.029258037020826 3.2531542905990114 6.198848797723599 0.6899089963638505 1.1243171871780766 -1.1182010469780097
Ni 3.9779677901749566 3.681084508528949 11.409216505387386 1.1163287696559612 1.0468063972851067 0.4240065358649278
Ni 5.898946585022149 3.4880852332201497 8.660144549554548 -2.1691482059043676 -2.115485169163273 -2.151961666822752
Ni 1.5095493351845128 7.48312181002258 6.810107840928168 -0.1594302503765964 2.594169813297371 -0.5936628348449066
Ni 1.5551033472857698 1.1605378115632732 12.849075279131625 -0.7670978841410272 -1.5800691337754014 0.675917824291081
Ni 7.490608610049034 3.4894354645682037 3.864302521713636 0.23940312865681349 -0.5606634971007506 -0.308803630737823
Ni 5.597407333210437 6.347521374666822 6.597359802564515 -0.004540311072514761 -0.527821253759749 0.7938646107119103
Ni 8.69224932623515 7.843447341146483 5.253612358562853 0.7810983121851773 1.211168794855998 0.28840835491092265
Ni 8.572805067604156 5.59458581529002 9.634492907773382 -0.9438059477614648 -0.4934582028988469 2.047366362008164
Ni 6.52967223948953 2.866326977291916 12.686454346765984 -0.954251568574821 0.9430076202298856 -1.531829582042723
Ni 6.930607142398711 7.272327416740456 9.52897744949011 -2.121463755344211 1.5110568682717458 -0.5548990838131476
Ni 0.7219426283717718 5.546629322583259 6.558789745711815 -1.7742681550917507 -1.0531878753314183 -1.770113252383113
Ni 2.058916566976366 0.5762107621852082 8.02503483357914 -0.4128556614544309 0.25935720318123723 2.8089991092695623
Ni 7.502788628002518 5.9417628866659715 5.295984480652867 1.0273187208741403 -1.974764836491354 1.7910911401863607
Ni 0.4442037648531096 3.4937189571206524 4.290521205010661 0.47427803042597033 0.3520524141241292 0.3495525305204109
Ni 6.1974780801068166 7.567394870021839 4.231739581668636 0.44420589363093826 0.7626321350601899 2.091056603807263
Ni 0.42468686911250775 2.020560684751289 2.275096986546177 0.6583399633083178 -0.046153615737926965 -0.8636685188789255
Ni 6.989952138130785 3.981133849887636 10.357986905404367 -0.6863019957388825 0.6516972611808196 3.1764485746750517
Ni 3.404594376208729 6.987400666479979 0.3634161641198975 -0.39784041899252126 -1.5505868080455683 1.8342856732959634
Ni 2.7750420262231064 2.909571628190984 0.14194190647167973 2.2854757115542186 0.8108146083026875 0.8389319353641939
P 5.510992526934953 2.2507239139227453 10.822693700479174 0.7458520873883736 0.22380835954235007 -0.5962599061481215
P 1.354468280905214 5.686829896212965 4.51631247819652 0.10205685466345003 0.49346745887022764 0.17978695965607747
P 5.790993260760115 5.966197418095591 10.757561333831129 -0.5522454482403845 -1.093262631865117 0.2325297985757479
P 7.476640699551918 5.556034382317983 3.2643965961611223 0.7417249525938775 1.1156299438167239 -1.1453575527881437
P 6.147603327691786 7.112739383340755 13.310797597330216 -0.8832307572815692 -1.0873529512489015 0.6728080750175058
P 1.6053692011947198 1.982772830886428 9.745678406524448 0.22013348179392409 1.8380109446663506 -2.0380479128207156
P 8.15248270492498 1.00120120055252 12.896067986014087 0.8989024023805551 -0.24552235418067395 0.3324724351096726
P 2.708377845390543 5.050684692472704 7.467909824297189 0.356220943679522 0.21757909080318658 0.3121203538158819
Ni 2.8974195460584937 8.150676188500686 4.145141330168625 0.5297102432523458 -0.12154298841251972 -1.1841205324889543
Ni 0.29260723864582416 8.048766313513738 12.769087574072882 0.7070837083709242 0.48728549842923174 0.09867636822699134
Ni 3.891152570465223 7.805864349968913 11.989728452811672 0.20016475198148106 0.03584812004686084 -1.9048506279987194
Ni 9.174933753313777 1.3151067091243445 10.907002145851692 -2.5875260827286084 -0.8741300805318817 1.3311552374146751
Ni 7.336942970700109 4.900641397912698 7.673912293084769 0.6375343394168763 1.1797260029656844 -0.5311050667173434
Ni 9.05426963049937 3.378558191042107 9.980137233770783 1.0282198925321713 -1.0319222810844226 1.6489798407041858
Ni 5.480561105931906 5.2428272692710145 4.191724311676502 -0.9807437013280789 -0.07735138149697 -0.28717525383476994
Ni 7.840476832180763 5.37418149958588 0.04833641987228204 -0.20727693754623008 -0.8683900927243109 1.1275866019579677
Ni 1.248284225306148 6.220851050338655 8.969413643035363 1.476160313504877 1.2615960982686143 -0.34425245846373614
Ni 3.547178806563276 6.140265518710635 5.467504834393237 -1.4023588541426946 -0.3731303178403509 -0.009856838189421733
Ni 8.938047303223044 4.533313287659575 2.0473157517114955 1.003064476312466 -2.9262139026203733 0.07039346212189812
Ni 6.400562186794533 9.166031538356949 -0.116566869068588 0.041727461645773296 0.15816989560693404 0.9185317465757084
Ni 7.0802034638228095 8.917011630014388 11.284252128527932 -0.12708860082109724 1.2912589154403697 -0.1087617774874514
Ni 4.536833201104847 5.473828573072297 8.904689139373833 -0.05378516414125576 0.16649949851855197 -0.32618943031443826
Ni 7.37789688427765 2.348769333672159 0.9838120831776452 2.119144363182415 -1.2487961182904685 2.0904706493968064
Ni 2.658866258648437 4.13889674298238 3.757437763276344 0.5999586951559474 0.26726823049819776 0.9047161808488547
Ni 4.694828892707878 8.297544111407682 7.9875412370287515 -1.0811061990082413 -1.38123929855526 3.0436775787571966
Ni 3.9663930483430145 1.440911023001691 12.281456644290211 -0.076007722984882 -0.8818991829543392 -0.44589382285632234
Ni 0.7228738224049126 8.475858456813848 3.0820138640241628 0.02465636509609947 0.6254545254342067 0.8144617181369714
Ni 6.884811019848837 0.9836668169084753 5.3347994415362825 -0.7810003531547324 -0.46141557264100536 0.19892753714027028
Ni 4.447792427655907 0.9510843376888723 4.617793072734191 1.869835031155483 -2.4856916284886093 1.0389352220671462
Ni 0.5510377938873081 1.5953216175771285 6.684312838991153 -1.4176980556029262 1.0141734417414339 -1.6091493389708094
Ni 2.204043157041388 4.250090622479745 9.706044926085902 0.39348522734761915 0.7129944174284043 -0.25321997993524775
Ni 3.771559320788927 1.3979084825512407 9.819015523798498 0.3493704964165919 -0.7098180765829518 0.5798850643345239
P 4.999506268411276 8.584249442271458 10.262638223574928 0.8546776282342248 0.508284212168086 -0.4215493325736869
P 8.522399534590235 3.7084709250436254 6.0703002550305865 0.5515543357106307 0.29906840572793014 0.5420502528749375
P 5.119630298686461 8.314352163705877 5.936505365154857 -0.16704791482285425 1.026912486574657 -1.3961470689050277
P 4.760235961595701 4.108670184666625 0.15861772921716843 0.010961641217826282 -0.750937729441397 -0.05959739994765865
P 1.611282283305165 7.1283834430975235 11.204645281828743 0.052901475984721794 1.2098135663796843 -0.9554376184631221
P 4.179729601335613 2.844844330947354 6.149989046804692 0.6211067899884722 -1.2198699221744216 -0.6834984648518164
P 4.504585951737176 7.125552613236775 3.110198313825241 -1.8665476186534629 -0.9940370760028752 -1.0595729529221558
P 8.383018411709694 6.966439488793975 8.056286636525385 1.1615655300065737 0.5801444886434977 -2.417708832690733
Ni 3.3089048773631617 2.99482244192504 8.147395591921931 0.2673479346961976 -0.04332128849545443 -0.03419310094194111
Ni 4.922366154705877 1.2840886358804184 7.765185138631149 0.908093839071836 0.5873559187902723 -1.4790579467676463
Ni 0.31805863395963346 3.988900008124032 8.04208499632595 0.8344828984539048 -1.5191062209387836 -1.236073785627794
Ni 9.044259294643103 6.692230781854951 1.8338050654346996 -0.8861037079539901 1.9212964322595683 -0.21236000849609232
Ni 9.10751530531437 7.905753533903947 10.374109598894169 0.44041763023309954 0.8213414759759403 -1.103611322089293
Ni 6.849667757038096 1.135516627892775 9.546518351492388 0.3245495807181701 0.14411675994797762 -0.8721444175604207
Ni 7.678383886831913 8.901032340405688 3.247155538637517 0.2732115925658262 0.8057752461065671 0.16281870723285508
Ni 7.778449997633242 6.902457146776859 12.040428243140065 -0.29156849780645916 -1.7144519542650665 -1.5337234566313263
Ni 3.357150040220196 0.470468092557851 2.007001568434723 -0.792460531275532 0.9904532153063588 2.099143751690772
Ni 0.5835969932560825 3.2181320830125792 -0.07906023580173556 -2.427681884743045 1.0919451986052742 1.4990341327792571
Ni 4.053990471040587 5.121474062872081 2.0788673991364113 0.5209831477919931 -0.006149307430847474 -0.49704180648504726
Ni 1.7149707388954132 8.686997391888235 1.020422907784616 -0.8728872092637161 -1.012164124620889 -1.0701422437975698
Ni 1.9746807547384329 6.154754897866308 2.5186191253170738 0.35287645268732126 1.2583950748328134 0.1237058003917934
Ni 3.1782117948118254 -0.12673364552242122 6.309556593935665 0.7454263127048646 0.08227324427861961 -0.6963547519891943
Ni 6.417789276407641 6.987717272451246 2.0364943458523643 0.5138485936297409 -0.25269727466255837 -2.5729381576121044
Ni 5.1175909837538835 1.4705509290765686 0.7877845648730711 -0.891204262405349 2.8329535632026306 -0.3355616155579576
Ni 6.334568465665831 4.285531867381091 1.8624932912077068 -0.5757052219252214 -0.054737757862512185 -0.6533342825636104
Ni 6.788879410554653 8.708982883010693 7.275251366004519 -0.7839437520537724 -0.4234061832767676 -0.5549826446658894
Ni 8.564489504888208 8.845197946178555 1.2221558519302451 -0.06115625979434628 1.6835478084870426 -1.7770300341076042
Ni 6.385644458383615 3.3857470089779556 5.813748849347981 -1.2850558719534513 -0.029700098167594013 2.088157170772281
Ni 1.651612296880501 3.167195769399767 11.555046146947427 -0.2982047721760542 -0.3781966766196648 0.7455137302123483
Ni 8.943895201751168 1.1757721459454595 4.331884843962783 1.2107579325708246 0.05089755818081557 0.3972986875564383
Ni 2.4319342727719797 1.6405403998264547 4.08531025115125 -2.1643893510631433 -0.641061121623212 1.315282532048477
Ni 2.4353517548736074 5.5058150881106895 12.102590100822392 0.13498882950478042 -1.1124224926230195 1.1751769501424214
P 2.6610545646263186 7.821005564947785 8.518444753531485 0.39189654270426055 0.8467650582553675 0.6939042335661727
P 3.7830502551578866 9.083239076870385 13.67721220623683 -0.37123104393510903 1.1325354613228107 0.2084917837899377
P 1.213234081898721 5.7760662204088655 0.5321447981489107 0.15585975941651867 -0.3264126020688379 -0.5230917094945636
P 8.66035593060007 4.219882688044652 12.043617582703572 -0.7454247700429678 0.09906846145908745 -1.0775598764178798
P 7.492266135428025 1.7413607777946287 7.470295543410097 -0.30698766057500676 -0.5357762469407676 -0.3199244232413329
P 6.642840250337153 1.7295532374544011 3.0876010282230086 -0.6120385091386169 -1.2490637701295586 -0.6130628366380731
P 1.2961569105499258 9.096089554527731 5.2253049911494 -1.6558873664572966 0.9710143898554567 0.1669116463553061
P 2.753177590324956 2.6096247181759424 2.2994514352889466 -0.390083914975554 0.18348497733295496 -1.7849438896380418
