# total energy = -340865.39885766833 ev
CRYSTAL
PRIMVEC
9.27544040523061 0.00000000000000 0.00000000000000

0.00000000000000 9.27544040523061 0.00000000000000

0.00000000000000 0.00000000000000 13.57554460893999

PRIMCOORD
 96 1
Ni 6.604605115763773 5.623949911067998 3.2688145081019493 -1.6411351478487866 0.7229106481008517 1.1693328326568184
Ni 9.593402428094757 3.678463402885337 0.4650102879576985 -1.4473534165755138 2.4759690018842067 3.14845311790339
Ni 0.665247566332478 5.04342792691751 7.440118230121509 -2.0475741071435962 -0.7864148393020843 -0.3694004184842735
Ni 6.561121851480496 0.6100429280998024 3.6138775842993964 1.0587268028717767 -1.0090091239316752 0.90770971625954
Ni 2.655577118351302 1.37422141348497 6.4108198336849505 0.6117898834629206 -0.017902334201717555 0.05703529564743726
Ni 6.173436271862717 5.312072505295617 5.887360358465931 -1.3384378871190175 0.25594252107273335 -3.0207489949854813
Ni 8.009416931468506 7.2866838961253535 6.6012854356684265 0.7342258160033548 -0.42919219383092533 1.9981965851517332
Ni 3.0769232709392207 8.35579897528137 6.872618964199205 0.705955765414068 -0.4011232035088511 0.9347394666838224
Ni 3.8981893089447563 6.0573170343280855 3.4478082454809966 -0.5859454115959909 -0.24001222299572214 -0.5000273714759323
Ni 8.23799160760605 4.113416626442446 5.747423645243032 0.47212344597681266 -0.026345836983380434 0.1087779754373675
Ni 4.111348203248085 1.1294518185251985 12.41226996334055 -0.2001189863452102 0.005552554387113018 1.5310009154938407
Ni 2.9889364439359842 7.256019290382922 13.672066762239814 0.9134954697033816 -0.6813451659542396 -0.7062583842561514
Ni 3.993624314535764 5.613950986388525 12.269617401188015 -0.13899100868563805 -0.6907363773611523 -0.5805692348857421
Ni 3.534193203938644 3.2666895047215525 11.71741890163979 -0.6051502666592159 1.1150992681242344 -0.05030440468150692
Ni 2.481273043604854 2.9732423988917644 0.40522821992045877 1.607817250422947 0.20938138548374263 -1.2013782911281372
Ni 6.6979995244814186 -0.24234035713643742 6.050824226094661 -0.19906483404908296 2.43913306400278 -1.5314503443264333
Ni 8.061452151739235 1.8416015764478684 7.593236271602293 -0.39306639464264564 -2.460345436414337 1.544584053494914
Ni 2.8131761250571823 5.661079498722853 7.439791734621771 2.408273912530078 2.2036691224993725 -2.0528736649796384
Ni 4.884623112968279 4.521081504538507 7.9387204527908795 0.28191014878108867 0.16769840392265958 0.28967282344564305
Ni 8.53936921492095 5.973708215162245 11.592049267460597 -0.1517133413483129 0.2739667255642959 1.3579507603409646
Ni 1.9882741144409286 7.075593425016389 5.219199376324712 1.3952422977025714 -1.965153538653835 -0.5290677245723404
Ni 4.578923150457985 6.709612375778915 9.19190571782045 -0.5396943510482511 -0.4808628827323396 0.48297890063407783
Ni 3.4015822334911143 0.8901621537144371 1.086743053509765 0.4935461346269629 -0.7456281443030256 0.8368930505572942
Ni 2.3956329030059837 9.038740371593965 4.4258987909245695 1.5721552782449633 1.0715774335822 -1.307709347686909
P 4.531748260921989 2.0340020352849044 7.07834359307526 0.028290619414577084 0.8047552894824851 1.4568086484511427
P 1.3051935865233337 5.438394727197058 2.9742793931210456 2.2568649897960613 -0.5028067339932825 1.8518033704647527
P 7.648954769229443 0.5856559403750599 0.6013722464760807 1.2275696048115246 -0.5211764947497217 0.047595747501092224
P 9.046884208206745 1.2373344650437137 3.356105677080176 -2.0048590847735728 -0.9708549814594571 0.8898557187972546
P 7.674675565274137 2.1513734572645533 9.920546281111983 0.7617253069752042 -0.02019987198664263 -0.5538744992033751
P 7.59062152497229 7.21691403393704 4.469327330109879 -2.2119020519321264 1.0531367103785088 -1.1507416999181925
P 2.9669907521070096 8.362532944963466 9.18699158953178 0.2492913343048029 -0.42218233817199546 -0.3803368628911192
P 6.408726366801687 3.56741783121311 4.117327152087035 3.074227940740228 0.3832614927370819 1.8283806206654385
Ni 0.19238098041233564 8.86621718139154 1.539358570549856 -1.9425406863503254 0.31077798085537445 -1.6346374559395849
Ni 0.996581135748332 4.069710751591166 11.842503779800749 2.4391299786789866 -0.17681836394605677 -0.37437421754978106
Ni 8.161376470451641 1.7858098028420848 5.305363579302423 0.1474036582293655 -0.6732695880349566 -1.659323131611723
Ni 2.071298580865762 1.3968627633389548 11.05658829999411 1.1584303268117018 0.36507170920193255 1.130182644819918
Ni 9.275143519372952 6.110066463504493 5.052260928747068 0.5652488024785878 -1.8607166137939823 -0.4303985554342007
Ni 4.901624995099518 3.2151551582288294 2.842134977322289 -1.2419641829702999 0.12897064833515856 -1.4232788921248134
Ni 2.6052114773405948 3.4689312057523938 7.352284447883775 -0.05690031273146975 -1.659087875672465 0.09459602751003064
Ni 4.511166058822034 3.5723616409108465 5.145403045487643 -0.6815842785482391 1.2179706482691797 1.3526162355019287
Ni 1.6582910491376268 6.4688404956028664 9.151016794198442 -0.8070476850610875 2.905903987418428 1.3013656648570684
Ni 6.556493406754097 1.6988339988351964 11.75752126792152 -0.4420459098651419 -0.2846889970778065 -0.4717254392074457
Ni 6.249476331716451 6.107413687569122 11.11713559185886 -0.6101983706060846 -0.14144821197687898 -0.3058741157958539
Ni 3.7545591153810727 7.87355028146393 11.197815226967393 -0.362121368324357 -1.3694752160407964 1.7067802966524217
Ni 0.18221880798299292 2.9732702252127643 8.978091049885546 1.6512349552869496 0.5405777820944689 0.9006021586804811
Ni 6.174317438694396 4.690284087101549 13.284281007866435 0.874936378483261 1.137748630092634 -0.16348925093731842
Ni 8.243946440300133 8.186401608471325 12.697763379084394 -1.05675810918118 0.5833408840936083 0.22459871665412934
Ni 8.24977141682955 6.324802182664509 9.245719967547139 -0.09996577646237623 1.1809387923268628 -0.5878955933438262
Ni 9.147967956960832 1.0729551114540714 11.081975180186799 -1.5531949350923766 -0.7692460408322817 0.02159161012784669
Ni 5.658389621026148 -0.12441148119274757 0.5693487887247974 -0.8994796150402637 2.709477619433456 -0.45744810335282504
Ni 5.921172121113506 1.5171188472623103 9.071138557134718 0.3751285792173023 -0.40058995671320047 -2.046368516871269
Ni 0.8957060844017484 -0.0033168974632465918 6.270625263220781 -2.022760904754658 -0.38722099160546214 0.46842517118961907
Ni 5.661246456648855 7.111340972061557 13.402565133174894 0.06887136905041688 -1.9096416216294596 -1.5163307150761758
Ni 4.264216735383898 0.5074797466125285 10.187862616434337 -0.5557645171372364 1.122612545782144 -1.4983713023842775
Ni 7.038389633838866 4.260747720699182 9.37605845511297 -0.5300447437736291 -0.7401756058288865 0.41883219075283995
Ni 9.024474744361097 8.905897515138099 8.89002630918351 0.5564360892829642 -0.1474640791536557 -1.1179074269969906
P 4.540699060843782 7.635551757947587 1.6559452902772938 -0.3333406966472388 -0.8721932685204851 1.4218915248589834
P 5.615806074455217 9.102592502849529 11.716034078398005 0.5169642564405872 -3.0998196731664036 0.6646214254416554
P 0.35736880288785317 4.897395394307459 10.014435070799404 0.07207624914095975 -0.41522801834134937 -0.4648654788628187
P 4.8247130438544374 4.626153692635982 10.36510515067843 -0.2874709306983178 0.7057361932040942 -0.46783381746252334
P 7.725736864309854 5.946818713635533 0.44068637322722354 0.6525385261351923 1.0229884689299027 0.6899431920358956
P 0.9706470045759678 7.253403616208886 7.148148701936841 -0.44937355387480676 0.04070339125663312 0.12729968839063882
P 4.125817890168287 6.214322412852624 5.639036414770377 -0.9789894376411334 -0.475522958576665 0.16099630931213563
P 0.5443431291298129 2.5765318158295254 6.687163955083865 1.2567840215919515 0.531074213479408 -0.4676307003127817
Ni 1.6223487178454554 6.567605384273587 11.664121293939674 0.6622408410246208 -0.06288044157430461 -0.15419162768547637
Ni 0.5642584270697927 6.89933223235958 0.4077455744269608 -0.8014287962124133 -0.39828547694973987 0.07045645414934962
Ni 1.560667039627922 1.897309871090651 4.486757737584524 -0.45636515470129146 0.8262301715268093 0.4032626184493571
Ni 1.2955471285765314 1.45822907658515 2.031960510867509 1.586300973617726 1.8391851674801099 -0.5034970751920876
Ni 4.628082984225342 1.2822739734593451 4.902563669661264 0.7875697788421339 -1.6316603755891317 0.6262343410230247
Ni 6.379935400006617 1.861339713477479 1.8176292009060318 -0.2610415328621956 0.04825780656512334 -1.1853304936366553
Ni 9.411882060768873 3.513731582563023 3.5834281687727016 -0.26569085870874887 0.9316294602999311 -0.41406536549181594
Ni 7.199745193879799 8.299135310284242 10.326766973148123 -0.8896176346445195 0.540759559087972 0.3866296378783664
Ni 2.222237821412215 1.0961622631683976 8.805980616777962 -0.4697580310684297 -0.19042978408190428 -0.7379570009110129
Ni 5.466925981662792 7.343393938324151 7.062337893235836 -1.5066610531968956 -1.5490778276002095 -0.549435489595415
Ni 3.976167935828185 2.7795712047290437 9.525755714198773 0.9957733419676916 -1.4557843209516863 -1.3299442478257095
Ni 2.3381251729385095 8.116205076027674 2.103964826632154 0.2784083062754173 -0.07569096307541158 1.4932843747796736
Ni 6.943780142437537 7.6407274536536605 1.8459072358506623 0.37972262634588794 0.128931567567107 0.6908533625549909
Ni 0.09798296905060967 8.165791580050369 3.6640938907207348 0.7349994609445858 1.346154796147301 1.1527294197721825
Ni 5.040988486109809 7.949089467539658 4.574754767572126 0.4301224189546786 0.27590559445822166 -0.352256045494503
Ni 8.074140954115414 3.5074613848976015 11.561504314898468 -0.2501400554583434 0.8795281116190015 -1.2370022109793342
Ni 6.383682677901336 2.9646811674639775 6.704309606540273 -0.976139626897164 0.17350524041242374 -0.7092696602786495
Ni 2.6032914611915676 3.7439294607589235 2.6366014225171024 -1.0573214378838178 -0.3724124658377199 1.0271413147560118
Ni 7.596019831246365 2.7191695372775286 -0.009432195275099158 -0.3405760380534135 -0.9568195864123136 1.0857732654666075
Ni 7.573016739219376 3.8931249185226853 2.1072770863752335 -0.07645098116988769 -0.05234457503998727 -0.5523444357120939
Ni 2.226022201068268 4.2805971630127955 5.132030643158888 -1.1762231320187484 1.1979247853618982 -0.42556925236635734
Ni 4.150852303628306 4.837819241045621 1.3131240880084452 0.2563901501331133 0.7911335849339923 -1.7754984279544261
Ni 8.757453368041347 6.176181802201421 2.600110912701223 -0.9247383896070526 -0.24361948073100628 -1.477004406672727
Ni 2.4963178078257315 4.361738715049935 9.56378130938984 -0.7229687550322969 0.8038294352341059 0.8119448652523887
P 7.151661311191124 5.446288126920835 7.592679745182285 0.8058523792014057 -0.5540917574205038 1.0994363647759968
P 3.3964621904270422 1.674819883811859 3.272005259576661 -1.1325933111439397 -0.5165791051870264 -1.3017410459186163
P 6.61169155217854 8.632735797317595 8.144335631471002 1.5600271275228617 1.547119418322258 2.1417672427882537
P 0.20376936605376228 8.009658092917176 10.84126730054905 -0.8047241791342334 0.26348639485826236 -0.24968265620595065
P 5.076828787558313 3.0172636387143825 -0.37293762948757186 -1.069598455478958 -1.9946453774653647 0.7970304100344016
P 1.9202573104756397 9.006146474262174 -0.47174333009575975 0.15909754962752598 0.6747968233127604 0.5285576177051412
P 1.7629922196217642 5.254490571705475 -0.028210324230196263 2.4918977572993213 -0.5785270076447326 -0.43028079890941373
P 0.6942889700165524 2.0987817105738142 12.882268583109587 0.281772851872276 -1.567578200397242 -1.033650062408807
