# total energy = -381164.2905705205 ev
CRYSTAL
PRIMVEC
9.23614917695096 0.00000000000000 0.00000000000000
0.00000000000000 9.23614917695096 0.00000000000000
0.00000000000000 0.00000000000000 13.51803792473491
PRIMCOORD
 96 1
Ni 3.4804118189432462 3.8223894690678204 11.525154797389062 0.1645349185930134 1.1515935063955265 0.25972538515393334
Ni 8.475413519474518 5.334753438764743 13.483512079182495 1.0891167280175438 -0.8278126855225808 0.7467866833875009
Ni 5.6517195975984045 1.3188481774047476 3.680285776155903 -0.18855493565669462 -0.12303191425322037 -1.234155485559158
Ni 3.5183816271769772 1.5515252411420746 11.165236851591123 1.8614943725002717 -2.1543494503286382 1.2788073199405783
Ni 3.3700306031316867 8.516468201449449 2.908324754482702 2.0845193169093776 1.6554924450117228 1.003782071204781
Ni 1.6999224459319933 3.2258820268476103 0.07811657676925972 0.5595399250192685 -0.3734061972095569 0.5112972879627968
Ni 9.073167841799703 7.19145951271123 5.3087629156877005 -0.5531769589157182 -0.4435569471930296 0.6491773229724432
Ni 7.954116037956638 2.775351918398774 10.805846289896847 -0.5010835806545887 -0.2002917644776486 -2.2011957212582156
Ni 4.649856051325169 8.829296565564375 7.365302307791572 0.5698173956858767 -0.4323991308039972 -1.404131115551769
Ni 3.93799834517135 2.752926548807069 0.21234829995176588 1.0161634755882691 0.6090472877207769 -0.6990788357885768
Ni 0.2430040018512007 7.617513826506846 12.776505198444477 2.5441106918574508 -0.0016953854245519188 -3.9231187870893462
Ni 0.8156461588621824 4.829674634760466 4.954901112740373 -0.999933386882652 -0.18095938269762382 -0.4463692198308442
Ni 8.816486027004371 0.6599514728060337 7.698887069387323 -0.6437607799425623 0.3465517960208741 1.7971180631067307
Ni 6.113360793204909 1.7215073259714555 11.73906400650928 -1.7604721297489232 0.06347308085298099 0.31854116974056107
Ni 1.530272862463939 5.5297008341404075 12.457533871679036 -0.8171474924992508 1.0402068896907182 -0.11764930978506835
Ni 3.8121742883559477 6.326706597240655 7.614156486372338 1.2857395282840371 1.4834632749241936 0.8729797689775223
Ni 7.404639066066313 8.077917378157302 7.18368821700511 -0.5386695093281626 -0.36038793057301804 1.5473904125954576
Ni 5.642252544949517 3.522482477300007 4.818504436249672 -0.11527052514024663 -0.12905318074663583 0.12253286312961478
Ni 6.855051260388879 3.5067717879773177 2.73146820400789 -0.19217247780462388 0.09681900330327843 -0.3940117892750505
Ni 9.063165092513124 4.350946563641336 2.690914121304736 0.9304187278212815 0.38702481643425607 0.30218252587687955
Ni 5.743887127728397 4.7626109574106446 13.510250730322523 0.4815496243867191 -1.1398026844081852 0.9802621337059699
Ni 5.763135262089646 8.250504056983742 2.4121588341917675 1.131902455724502 0.12677492623542036 0.7224550486206719
Ni 4.740471908435637 4.550004045288957 2.4274474315085506 -1.0309334348085923 -1.8258267438953328 -1.6735780988688402
Ni 3.743679007922635 4.455952340778112 5.920968116622104 0.6206105670783439 -0.1816641220741323 1.9261936124508698
P 7.776043086668306 4.488131083635403 4.482676214079858 0.8446796364812486 -0.22405518544583353 1.1506208580696118
Ni 2.402636364649326 4.211942522308898 1.9982362020101156 0.16401298465127237 -0.28983351739322344 0.44026439248468696
P 4.812347619375772 5.587694613245151 9.658583592774988 0.08728638122249484 -1.391764623566616 -0.26725074699670104
Ni 1.7536860688287457 1.9084377440795757 4.953022480048877 -1.280624575654975 1.6439312225366849 2.19254318778954
P 7.873041122686462 8.135883448815267 9.441916469585546 3.0281681702676884 -0.373352461153486 -0.43736161701559517
P 7.408416650976942 3.542635754255979 12.714768931795023 -0.42648996440841386 -0.30409722640108916 0.9251199413161875
P 2.201122067387457 7.331978282467489 0.21531495098671466 1.7363893777681063 -0.5921039749982189 -1.1254980948600553
Ni 7.294368684041863 3.0442808666696437 6.3134638069109235 0.8385179877552269 -0.017149258085776914 0.2334368837710496
Ni 6.015762407506579 5.620316691250876 3.790281844557258 1.1366057747374425 2.127652657763742 0.834093633435286
Ni 1.0935230882123121 6.276443474786761 1.7361891083038172 -0.7368123457836084 -1.0996104284600159 -0.30279496264989786
Ni 8.788749871780363 2.8406976720484085 1.0044986195617496 -2.176627030779916 0.383887556356855 -1.1326830426442684
Ni 2.3143387809192197 6.789603909101062 5.972322951879023 -0.28068887477947785 2.8608955410285373 -1.255561204928444
Ni 8.196731197938064 2.05957808510044 4.055357471496308 0.1356154073451858 -0.04672337219846792 0.37175812008317266
Ni 3.5118239614396995 2.9090913548435386 4.018128402406422 0.6873150103844292 0.39761930412065066 -0.8253459691496431
Ni 5.287455120116011 3.0422489139059805 7.737589304230865 -1.3948746299505073 0.9006368685731587 -1.41473845875397
Ni 1.7148018818513657 5.192692232137884 7.0863853880724035 -1.5630088358590049 -2.8571273322353568 2.0765645808386752
Ni 5.042096823903639 6.327547086792898 11.73998300332739 -0.7900120697350393 1.2575280988468278 -1.365583337185558
Ni 5.270044979390985 3.110938153466734 10.036778030067188 -0.028962448670621085 0.7339887602918842 -0.40309498252324133
Ni 6.852659097817112 6.726216219023685 12.996822447689373 -0.3424112914899393 2.1052197826815227 -1.5807476478996647
Ni 8.274545752637453 6.618578139443072 2.9972328476567998 -0.5205306336356068 -0.2820626151985529 0.3893593781047036
Ni 8.32055101043658 7.741176624473623 0.8552415293068442 -1.985652687048451 1.2631462163645537 4.770092618921411
Ni 0.39540230635575147 2.8445491461504435 6.853847790183854 0.17586654155574874 0.6171953707492082 0.05059905310379029
Ni 3.3454993915849123 1.5647329341058878 2.06410933976341 -0.12084004880822413 -0.14908310281431744 0.29025826363546786
Ni 3.3928069463825703 6.416186408033258 2.2391953204891566 0.32724975325815253 -0.13206111433502418 -0.9357481104539949
Ni 5.907265366075871 5.104477773748109 7.350040495306674 0.8436295979501793 1.1400433396640817 -0.08254989497877395
Ni 8.52238857291085 5.153438599203475 6.831678261917393 -0.7910500240812505 -0.5059511931595351 -0.7205552604947978
Ni 4.586043498397208 7.554283150961206 0.5399452661989574 -0.5117821980190155 -2.287871465479905 -1.0313378693358626
Ni 2.8908869053108983 5.25183129370942 4.101615799776001 0.02205543713814266 -0.074967968866458 -1.075266966618645
Ni 4.827799696528541 0.4031662131427313 0.4657697541763125 2.020286989292869 2.748872062070679 0.382633886455412
Ni 3.3995493350983628 8.214584673811526 11.445127261407066 -0.2534369810420603 -0.056577639284728365 3.7099987604987787
Ni 8.774433840945461 0.37358375174846786 11.398504105244806 1.6192712578961594 -0.11877262475623418 -0.022334144720826055
Ni 7.268960038347143 0.9180048557168407 9.742950271522298 0.31462049452991625 -0.9220166198005154 1.2606676729170738
P 3.334619208150387 2.3913774991088452 6.342432988016519 0.4386798216063864 -0.46285256219784804 0.2087648349456663
Ni 6.526872416759366 1.350214139156572 7.839731875200662 0.15162566673051306 -1.3656769253406287 -2.7868493126454004
P 1.5250636744698196 1.779260965204129 11.975548210833797 -1.040286336778402 -0.8962140569151147 0.19948469519532094
Ni 0.8207121865479525 5.019366661397385 9.417016735696633 0.4545885224168429 -0.181267657966662 0.04172077677755395
P 7.444372978744861 1.1050959828162688 2.1197091090665996 -0.14887458634793715 -0.04332205982640282 -0.0727889589372682
P 5.633367369682952 8.757291548539282 11.213144756068955 -0.5414871812826157 0.2527656660066485 1.1745061493276419
P 5.738908843457422 6.976469674166702 6.301649848820006 -0.06599276195104119 0.1376154684943501 0.38447813875300235
Ni 8.507841638352804 6.386409063896661 10.685995250591722 0.020797139251009344 0.947569014348323 0.4474575677990165
Ni 0.26531576681111896 3.750088895277101 11.999259252355966 0.4740042079392934 0.14218534725321966 -0.8588600417466885
Ni 0.023693492839209473 0.3956840088979866 5.465478196200144 -0.3964455955275237 -0.6568636358731075 -0.006448326728505024
Ni 4.303703661886159 7.096391831818553 4.803891925034255 0.003314923305845904 0.4864149228988203 -0.7671963573921046
Ni 3.787957105872649 0.31491388654236085 5.212488070130429 -0.07304966879782257 0.9299006505342824 -0.3840693333503579
Ni 2.837298769243735 6.066422684364281 10.560696730650195 0.45496750302281647 -0.9870480462795517 -0.23570922474499406
Ni 1.757657612866815 0.8662999704156367 7.297375050517192 1.5393868255646908 -0.7156963897405997 -1.2287217161380966
Ni 4.952543123919631 0.6918115685253855 9.389007190464426 1.879356340382357 1.008839174012714 1.5913161674441303
Ni 0.3643799293439646 0.8172661793837577 0.26845236298630143 0.06679031815167207 -0.22686797230428027 -1.1063971123645462
Ni 7.217052881384465 0.39742040489602637 13.118431126135068 0.2077443641009519 -1.5370952013170367 1.5929837849545403
Ni 7.623286419585435 4.6660839649877 9.063505906408484 1.2382054872588157 -0.9603705369883654 -2.5165626070358527
Ni 0.226278259761572 7.081142949942151 7.697914502905442 -1.0662025424235315 -0.29777565505843556 0.8102263398993852
Ni 6.761101153516217 4.945246566268293 10.940688522523345 -1.8315299649276973 -0.31257646751669393 2.970791175010116
Ni 7.026797449663078 8.278138614569565 5.004161189420933 -0.9617877290508661 0.7835884255968827 -2.3256314578374977
Ni 2.108437312917623 2.708112754219363 10.006470530982254 -3.8825475505352034 2.013802924230422 -0.1812954258808039
Ni 3.5988654289159046 5.4273458317453205 13.230981913329284 -0.7507605804335845 -0.2020771385128455 1.9279473619171832
Ni 3.451844410315922 1.9835461071437208 8.475701687321003 -0.4869286293104452 -0.6227330127379855 -0.864165513120002
Ni 2.798977987350826 0.28529817501196475 13.272049525912708 -2.065041153580108 0.4038609141549883 0.22816817917294252
Ni 1.472907141486147 8.644933796857613 1.7244287198766681 -0.5842867929466454 0.21317479108790385 -1.199431708924728
Ni 5.864797553315303 7.519222729639085 9.3174288835197 0.11361627736627532 -0.7067821179701054 -0.05336144634027584
Ni 1.0543710529160861 2.264694480443349 2.6213908574959874 0.40837757107841927 0.3339526191996249 -0.313776401362066
Ni 1.2007363049423414 7.576339074595882 9.941448966159912 -0.8986262659010331 -1.828862445397863 0.567054745339075
Ni 3.670981279728109 8.230517030708434 9.436442204117258 -2.2610214351665965 -1.6745710589097291 -3.2344012399304365
Ni 6.257897287743868 2.4208038695862633 0.7974749594656748 -0.08942451061142018 -0.3660592699261825 -0.8115368311806928
Ni 1.5572054727314066 0.3953191810154198 9.598712104593641 0.42726875155596733 2.538680264870499 0.46173156121952735
P 6.509979500374182 6.313969947872055 1.5573865012503514 -0.3881553304942734 0.06593671190212516 0.6890376495024908
Ni 3.2078715364424104 4.3611063274596535 8.679283034712451 0.8454242279567569 -0.3095765043481056 0.6120693623765523
P 0.05149707195037474 3.013829283661468 9.01423289911943 -0.13560589426348904 -0.23183920026662652 -0.3434731570955504
Ni 1.6108674979899757 7.24724585222272 3.9212042555796707 -0.4174494514727004 0.7145581623710984 -1.5025272335341802
P 6.233347603899241 1.0484876260503875 5.670275944405115 0.3112664904560188 -0.0748152453386776 0.4580335435426499
P 1.6418270691890675 0.5046834968302545 3.5688026877775028 0.9554913545191931 -2.4845215194399084 -0.06348285104499389
P 2.040034393973567 7.945591072498177 7.909065797956432 2.0478217043780282 1.1290302763830298 -0.01864306902248402
Ni 8.908348764219813 8.984981091856707 3.0930486566124618 -1.7293316995903765 0.0019468393137256792 0.4640555813670137
