# total energy = -340868.6506527348 ev
CRYSTAL
PRIMVEC
9.28803539816634 0.00000000000000 0.00000000000000

0.00000000000000 9.28803539816634 0.00000000000000

0.00000000000000 0.00000000000000 13.59397865421879

PRIMCOORD
 96 1
Ni 1.7998633407029283 0.17513519324344456 11.392460728168546 0.021561785331175767 0.28421874230960725 0.04993725115007529
Ni 0.06905375589770031 3.710876599604006 4.418763279680894 -0.5228068312642932 -0.9496022427282678 2.7631974775544155
Ni 7.354925785366975 5.547390527522602 12.54363932567058 -1.6296644282050257 -0.05429501389813875 -0.5523261808796488
Ni 1.5931302514362446 3.2317811637807474 8.100257179675989 0.5750421344199257 -0.05139738063536955 0.2286194077777482
Ni 7.535838136554704 3.03418750122978 3.1746430283440157 0.9410558958201536 -0.8472967623891214 -1.1117084972751305
Ni 8.156548246295166 6.0400743589607915 3.803989153288007 -0.06875669784942354 -0.5326793531829987 0.48606473864825317
Ni 3.1234919604488995 0.6579133350553019 9.442553821531634 0.08870897260163431 1.0430052783714616 1.1240135398947286
Ni 6.162137718613176 0.9208613290518659 3.488269329239933 0.3937297392582574 -1.7031488705474214 -0.7359638817403842
Ni 6.151345021617583 3.6000146104995427 7.459165405316655 1.9034429490179154 1.1573859447075872 -1.0211372746537768
Ni 2.676700311330176 7.352241543170997 0.07895015748875303 -0.3430113869677835 0.6659278029579047 -0.41959709394332256
Ni 3.421377827955463 8.62379214910089 7.745604698143901 -1.097509322956613 -1.0220546442617235 -1.4668459780824867
Ni 8.28044134889775 7.630408911777697 8.021425909038822 1.0090752012829203 0.022955837465224983 0.20730316279847524
Ni 8.597804226386891 2.1701122910775266 11.982113505539077 -0.33246523602082095 0.5246436273627159 0.6494192637799202
Ni 4.548545925454651 8.818655129279477 5.192926593106703 0.039127819239397135 -1.1006375841729494 -0.8124981666526976
Ni 0.5688410767181873 0.7512655200495325 8.825931376117985 0.7164186126186048 -0.7326612997297124 0.19159063715922486
Ni 3.9477122112138168 2.9844036321279104 10.321486172918092 -0.39646230769807206 -0.08158084619728531 0.5059198257009675
Ni 7.094972253944747 6.734791533813885 5.972609785899534 -1.2704041834785476 1.0846728333135771 0.04341179132673169
Ni 1.005764188351699 5.820449476725192 8.966629320953034 -0.9978322813792493 -0.7115409728113294 -2.6944230390931785
Ni 7.484614621984403 0.2764072859211014 6.4600356605656035 -0.5556848129392365 1.1467652317689476 0.23512275611390474
Ni 0.18031884573332396 4.78573448240511 12.476879714487088 1.0348168290233986 -1.0527685284058128 0.5810626295823927
Ni 6.0679106006955505 6.9029792766677405 3.706955191108705 -0.9780340157063994 0.6477681013297425 -0.07889944271038025
Ni 2.4708960255915122 4.359840912666835 13.458637118050055 -0.3091430163551127 0.7624716982229255 0.8423216777720333
Ni 0.12607021807226187 1.5219653251193548 2.0740201356756374 -0.6161260489444292 -0.5042329249168477 -0.040483561936343185
Ni 4.811007226402533 2.1072415802658555 8.332320598758832 -1.007756996692129 -2.098190386638567 -1.0720224915394183
P 7.2419554122539065 7.671722092704025 11.632231358926902 1.403897659384724 -0.4050636762138379 2.2067513609691223
P 3.186632024283697 1.4588531253903982 7.065524538088875 -1.0045323191072442 -0.3652092632210614 0.26310227204596626
P 6.366056533189959 3.501542860458866 11.699902126371379 0.8700579673450372 1.5206486257252392 0.7190979592229809
P 7.466985931022584 0.3135046276337468 8.67688720278015 0.18730177997588388 0.05248392883132896 0.1621525344037659
P 5.504526244704481 3.071209609856656 3.941968490196541 -1.2881445381811043 -0.5441552150330822 0.38562973585894234
P 3.7884688463347937 0.8348745560348337 12.340233210641264 -1.83780577063408 -1.103199945583487 0.5669930388632042
P 1.5571205386549103 1.973196655102014 3.610071695100943 -0.3124934208845844 -0.039341477912099986 1.446904244853237
P 7.627901142252043 8.364804573347802 4.49720073762218 0.4487279498710079 0.20203882907574236 -0.5652855692537941
Ni 4.5841562527189375 6.7767270131039865 1.4647240924910125 0.004494288325927743 0.01236212110977871 1.2967554197785667
Ni 4.470099179478085 4.922277889059324 4.709606958838009 -0.2846481165375421 1.012863721791075 -1.4702570606465646
Ni 7.4355087794579875 3.4964437290900365 0.7538048688951391 0.9195018237984615 -0.46693393135607325 -1.131898084849128
Ni 1.7535903489369735 4.256660128739098 10.731317943246319 0.4394676076150045 0.44342967758654595 -0.5090691699632265
Ni 3.692551305996172 1.403208506026722 3.5019171682806585 0.633198945266316 -0.2711814495096749 1.2776354111196642
Ni 5.6164192057250455 1.5878732234676516 11.714977536434672 0.5355882992996776 -0.6185215457597993 1.0900546664507806
Ni 3.7340966878045045 7.902826986545952 11.405103601791954 0.2650341989613565 0.9160791712701577 0.06541040708500993
Ni 5.5736292271891665 1.6344991605742536 5.5507342202234735 -0.4032060541798088 1.2521028140661985 2.2455097126842425
Ni 4.888850250085887 3.7789857623137095 13.55666304239728 1.1522216268978285 -0.2747892214655913 -0.7080828390593998
Ni 5.6624785726795555 8.457006899574344 7.3166052094079275 0.7993721707937007 0.05698747312863734 0.5778397517697209
Ni 2.3121356385470597 0.514952824825997 5.254004713109295 0.14797958533749356 0.36530310848644826 -0.5211590112482251
Ni 2.3350677976538727 4.206300401449855 3.6025948267003822 1.8922337105656573 -0.4421520964257031 1.1630169177411198
Ni 5.547650592510447 6.135991899299414 8.011516504198376 -0.4021236197489075 -1.0494152956628635 0.04223731140265629
Ni 6.325077721533718 4.669457568732291 2.530763914597095 -2.6994037801372217 2.6036227311801543 -0.750237618050579
Ni 3.018899395158572 6.094316484997158 9.91313677302059 1.4831827675692972 0.282366776702533 -0.8051797786144133
Ni 3.6049744213391692 3.333132204758286 6.053657181754557 -0.40758001487778833 -0.7258586749855822 0.7957001212587521
Ni 6.655248799674255 2.109452132662543 9.621015989012445 -0.19432989046725888 -0.6389309626540867 1.7526292366657366
Ni 1.049594426838961 6.334885886789609 4.079213143514411 1.3143435651739752 -2.2476367863295743 -0.30530075979088717
Ni 7.809036406286497 8.970728130922186 2.1107366679417945 0.14143355668885962 -0.19567766274440493 0.6697710879633948
Ni 4.034945438565451 4.955705528032763 11.68155082626476 0.011003035978722988 0.0407067336907428 0.19717584455648623
Ni 2.525082423416197 7.518293037910406 5.627744107142193 -0.25086639210140665 -1.0890575926448343 0.34373540961800153
Ni 2.757469066126792 7.830854001159685 3.0865943114947787 1.8022720965038443 0.6432997811457436 -0.8211841244624696
Ni 5.448835185164404 8.688390434474679 13.181360472026727 0.2527219572529067 0.47207459501674826 -0.6008490681807007
Ni 5.192095313949125 2.3000983448239207 1.9107699123767363 0.5742522915287789 1.6464326488023 -1.4344901874596006
P 4.039608032276112 4.124305625996253 8.374964755140812 0.16612900255301066 0.21321387185595536 0.33885365604566803
P 8.284890317796965 5.445686541204416 1.7745580885820242 -0.4735673775121908 0.2303453893299194 -1.4190000622438015
P 1.8177520966525926 6.779179054417959 11.708507491058484 -0.5218503808882947 -0.38249427555375415 0.11387441612366839
P 4.719037101057996 7.7329488212711 9.260816692811023 -1.4868507033391878 1.3293243548535234 -0.2529566989715321
P 7.595142241818778 5.694773071348809 8.728639206557894 0.26321925723980477 -0.42564972789530564 -0.5095026579562193
P 1.3828212685866839 7.708038310649605 7.540008464395513 -0.5829192231751574 -0.5319764135787031 0.5545766674767223
P 4.872391851569373 8.54245682415218 2.9089485623150964 -1.0212339481326411 0.15715173875506483 -0.045832484953082356
P 5.0916266363232054 6.202104134423875 13.109027110871589 0.2724587735602017 0.2220034451231273 -0.6904795241553399
Ni 0.5307666336940648 1.5375227842136892 6.289023426183039 1.8087019112895881 0.9179337079803933 1.1879465911032636
Ni 0.7573008853746063 8.422408968155601 3.8135456127878045 -2.2491323970384944 3.098302465190929 0.016974937291441734
Ni 0.25363673862816394 6.744376786223051 0.41766808569412983 -0.6836589016890806 0.05393428812461034 -0.2781123723015533
Ni 6.64710319273352 4.369760534346089 5.165263108828156 1.801665059047465 0.20082783948677668 0.5706481191172882
Ni 2.786494176377416 5.441339740693283 7.155598046629194 -0.21334679788939387 0.39764398671099904 0.09440345188325032
Ni 9.020010446118926 6.5780002102488355 10.741948099624508 -1.1684254903512006 0.02486642422437653 0.7835272333416441
Ni 0.5432961932870543 4.014548913090133 2.356679198143841 -1.3662052870402728 0.08301834997476024 -4.263353639753258
Ni 2.4644501291070537 2.2926400524939208 1.6878013374402636 0.414839267543363 1.666504994072143 -0.8429618824591935
Ni 1.3400127139802438 7.925229727641793 9.78258043390799 0.7997799477550807 0.8306817795402596 -0.9323861359602975
Ni 8.257156244450288 1.3679975642794853 4.384397549144155 1.5013650949052788 -1.9220628781119478 0.8155464665607179
Ni 2.1974562669424347 2.4717969650136915 12.179252983164842 0.7278281400071271 -0.41110628286349193 -1.3815069503943498
Ni 8.64986366413241 9.197969202087553 10.943533759738903 0.10951845314781783 0.04943717158520518 -1.249888837134015
Ni 5.997451565059956 4.329608357829785 9.771582471332707 -0.002009060010228798 1.1988249285786645 -0.3276043083840938
Ni 6.950580457478764 7.147133860078349 0.7376204674193912 0.5061532818680121 -0.7287257121207321 0.18263882728257577
Ni 3.9837312120304307 0.5014535943497548 1.2357350130859142 -0.6446658082553349 -1.7010349095282125 -0.9126230944007573
Ni 8.622974801996232 5.144670605808425 6.538092309060401 0.5047276051650791 -1.1533310579119234 1.0982981374064955
Ni 8.452808707627694 2.4625460818746125 8.38076884838741 -0.025178299037840506 0.5335314167706489 -1.9384014673709715
Ni 5.611719459873264 6.556591288927975 10.665345957454589 0.9194295757996295 -1.0887374903012539 1.1858933081186607
Ni 6.1679055885221805 8.98203166985819 10.426798560942638 -0.8826324615759381 0.6392500365564023 -1.0251872763534344
Ni 8.215137172842665 9.17422898391136 13.26320942532643 -0.2975231727279973 -0.30049228265865024 0.2395082867761101
Ni 2.113288091233265 5.875945487524384 1.8197982508248207 0.3132408405735702 -0.3612124833568424 0.475117238497814
Ni 0.14652525816984557 8.645897673067765 5.901323186320473 0.9657526272358852 -2.4259358485862155 1.263012776110483
Ni 1.3800720101437447 0.8381253683829036 13.539969656588179 -0.06701734656081361 -3.025130668992945 1.7704446675806025
Ni 8.708071781233421 4.266459005959708 9.896021710409764 -1.0482037918532658 0.18917302885666776 1.080905652961661
P 6.722206246009215 1.2722193444700667 0.5133478523295785 0.06553382003675166 -0.5108108352446816 0.31154339826648925
P 0.7493298934971389 2.749369899362458 0.24634284452262317 -1.1990835815566898 2.355259822226892 0.01527518099151563
P 0.8448424754975439 8.325776249100404 1.7813550728000744 0.43508207695279905 0.5956199585712775 -2.414709897963409
P 1.320071302233655 4.917095165372974 5.593826988709488 1.6095015801039056 -0.022465528092367758 1.2155293858175389
P 0.5891716571430163 2.4968746602702305 10.22695347863975 1.0849957638706347 -1.3889780619604144 -0.35093244158707304
P 3.8888260675373507 4.35916288609138 1.7389421884965708 -1.172225580823581 0.7196106371933414 0.7613129020281341
P 4.496049950050963 6.52798414026496 6.106170804425277 0.8334084344428034 1.6676411645591152 -0.48143392474446123
P 8.128823460983769 2.6119998575683057 6.212298681947423 -2.7880759859636504 2.0626366579036737 -0.3061451100690534
