# total energy = -381177.1710566239 ev
CRYSTAL
PRIMVEC
9.09485849574834 0.00000000000000 0.00000000000000

0.00000000000000 9.09485849574834 0.00000000000000

0.00000000000000 0.00000000000000 13.31124473092236

PRIMCOORD
 96 1
Ni 6.673425264773036 0.5322129362051092 8.547762848276642 1.9545009440359953 0.6410467234455088 -0.988701779832891
Ni 1.0506653513316044 7.601455542592394 1.791454318008812 -0.8870115644802401 0.46562215452318517 -1.0935356830208458
Ni 7.138399911266187 4.8433760047621055 6.556906483676762 0.26068954883941553 0.5496465771649567 -0.02115118015631841
Ni 3.129668176104531 2.6028212064799785 5.126839101038107 -1.052880885613961 0.6628576486730132 -0.2439933191306572
Ni 0.9167253685657436 4.748425680862086 11.807473860232173 0.742313992328128 0.11300486903452152 0.7447665676336787
Ni 0.19961486628256875 6.033492823177904 5.626304179842182 -0.08366961040551396 -0.732042435198791 -0.059507154226697515
Ni 7.868998998355504 6.566669814395792 2.2602497146044915 -1.7209725289924038 1.8269125207603438 1.4037446787466277
Ni 1.7831561690120326 1.3248480538808274 6.862226344166992 -0.2701455520459929 0.3324935181555951 0.22654864129164856
Ni 3.262162076351225 6.705511925953043 10.918055804646297 0.461464937821702 -2.4298871199244796 -0.4787430081758594
Ni 7.197398259076477 2.055046967191255 4.162172913761466 -0.795023921127334 0.14299113098396662 -2.3016425511220686
Ni 4.088666447494728 2.163321258956555 1.1019585349265595 -2.260075012092927 -0.18047113020729563 -1.8160938328782854
Ni 7.146003213065077 1.4337226063144608 12.759094382317036 0.5015389230244524 -0.05352728249417878 0.27217081000613774
Ni 6.27198730053712 8.743806163582628 3.785678508752388 -0.24359968323666434 0.41695425700383676 0.694662451888436
Ni 6.523714797175505 6.091745392582083 0.48992002469171164 -1.474630507123912 -2.376999785007145 -1.1566081860012984
Ni 6.016540006726791 0.8904676022695993 2.0052589826964393 1.1107911276671838 1.7224781670036529 -0.14731032718461082
Ni 6.399351700527147 4.93689843586018 9.711178980781938 -0.12553179785693863 0.5850907769051795 -1.2762403305443504
Ni 5.315481020406368 3.91087105650608 7.597978578145364 -0.6904939223330431 -0.34950676488414 1.5526231217493067
Ni 4.984655538427133 8.367742854871716 9.165045453986659 -1.0733093286716417 -2.2007419215502484 -0.4039771280178785
Ni 8.616660040199267 5.571783230926143 8.23967360333933 -0.9146221271086572 0.4992524409831208 1.4299889571551374
Ni 0.8962964971534617 4.045829663436386 7.270002515368992 0.45853567999004907 -0.46215964989588143 0.5849647928502765
Ni 8.828424728100423 3.069942239605352 5.674982591586442 -0.442435946214709 -1.881600142111211 0.45915043075591244
Ni 2.233288006251847 8.568011641488425 3.5808713876887346 -0.38191012091551 -0.6167528838951507 0.140500503351629
Ni 4.9019014199246165 5.94446325223372 6.122081293479451 0.5391207379329683 0.5055740123257745 -0.28637204120718424
Ni 3.733257562689655 1.3123244335733248 3.0874371096296893 0.1355472731114117 -1.30790655129938 1.752548761136788
P 2.5900429301313648 1.275071892702206 12.939155302585712 0.33095265603103646 0.7095553098398683 -1.9829013495555594
Ni 0.2428409102894665 2.3318126095860343 11.726234945174268 -1.219726454618022 0.4882090386847657 -0.3276557304473196
P 3.1105416884453607 3.3420058400981856 8.51758610740497 0.08668011509706362 -1.1781820555173323 0.935494342571976
Ni 1.695445352566459 6.2919868946229585 7.602038523029366 -1.999884257266801 -0.3649745215024359 0.6919072577408019
P 0.17481227736420252 7.528669389127656 3.8079345372596425 -0.4766182485233727 1.0581267073939327 1.3725070608885845
P 8.52581149753286 1.209616195278026 7.422230439830079 0.5177749252673406 -0.3821165804993613 -0.8421411863301109
P 6.251696670975727 6.641065757834696 7.926580367194182 0.053395384902004815 -0.1830633164145041 0.139990653594746
Ni 3.7815057876216094 8.777275243271523 11.159788051671068 1.1319651906416377 1.510436718189244 1.835476608280271
Ni 3.196606335482323 4.296638579355048 12.507205906681234 0.019648627468862936 -0.020625903780467702 0.8307758819159627
Ni 1.689006192669791 4.859628517100164 9.584375733568217 1.053144937908625 -0.5274769830464529 -0.676553658102867
Ni 4.348288281407559 7.457920483991809 3.9422846981488644 0.47350027171968123 -0.7623089473928162 0.41966908483183846
Ni 2.597709895940533 6.516493479438282 5.414282107442333 -0.6512442328038011 -0.7328266216629831 -2.3146770157085235
Ni 5.322693243284982 3.612759780951019 5.317695618478174 -0.28541816193434716 -1.1419932643016009 0.38352503081111367
Ni 4.1154871855389 6.722582975566102 0.14252371032302924 1.3069547289090717 1.6416077166098306 -1.4820918484979637
Ni 0.3781869581966054 0.5284285655370251 -0.003577007891750734 -0.6212271176164204 -0.9071006219206313 0.5016474235778586
Ni 8.999617251737401 5.6937634746183905 0.4361002893745895 0.6635220217298895 0.04834882361703286 0.14371078275881058
Ni 3.1635374295723158 1.0273916081457664 9.390071355228677 -0.5874520780485044 -0.5125365596865367 -1.3398072566627184
Ni 1.383018769557506 1.2003394394946907 2.0920221148747347 0.7468512180768492 -0.30212339050417 0.04048099083318189
Ni 5.927064787710661 7.306181862923999 11.346731051450773 -0.828701001664805 -1.0440172645757437 0.49343094920533725
Ni 4.166418393761132 4.375900272150898 10.383929310189409 -0.6582761999499179 -0.8870555303442981 -1.553751064706163
Ni 7.130551048284797 8.154222859258617 0.10165869161157641 1.1212938269707204 1.6260463718364642 -0.09634180655654376
Ni 3.044494825211458 7.861350222263557 7.011897703872495 2.7516028307382805 2.6991685241979644 1.5503595225261106
Ni 4.2866160451656015 4.897126619153783 1.2899010596676257 1.0896060089491364 -2.6494382468523727 0.7252688639203833
Ni 5.656419985161161 3.2691924020576155 13.432776934732146 0.99490276643728 1.4189653523511239 -0.9079652839137718
Ni 7.70717417908797 3.009234058376173 8.2813380601227 -0.6688303213166804 1.5647278754326406 0.9752831924341396
Ni 3.0568547380639606 6.440033003094654 2.2627917275862974 -1.199391856825728 0.8491888372055116 0.656674916901069
Ni 5.086172350244377 0.37518383588321585 0.12875136592822087 -0.2519974203820563 -1.4659910862813592 -2.745435525585304
Ni 1.0457268431057702 8.340321856159212 5.866358425453204 -0.4607316592001033 0.07358960046169262 -0.93612631972902
Ni 4.476689495279252 0.9420636446563043 7.48085316997973 -0.273817087360309 1.6819205572962646 -0.3878226297452031
Ni 0.5696846631687558 5.524990183371967 3.1081761157206103 2.1135547849097795 -0.6738709690643814 0.134674126477839
Ni 8.08935832764416 7.794175596561877 7.127346020110241 -1.9459347996335388 -1.3764557611236874 -0.7044496131821868
Ni 5.431276760243058 8.298430937396425 6.440193072606211 1.4126406956846769 -0.6824556254095988 -0.2227194973535455
P 2.5696522571252496 7.661454324849905 9.08346002481567 0.3644325329560369 0.7416789298472903 0.9949305343514219
Ni 0.19199155579473384 3.257350896145946 2.9380713371735196 0.6759209096148745 -1.7306388484375745 -0.7471944603488808
P 5.511784448668632 7.615179684236563 1.8861636281556369 0.04026656082953065 0.4118773567015616 -0.5783326322457395
Ni 7.913154536912457 0.35987536986899055 5.409117137237082 1.0795152003720376 -0.9353688727377052 0.5537629133261753
P 8.117716096793611 2.3916294946713244 1.0941296806341134 0.5202241581387815 -0.2031415752216179 0.3722988230779911
P 5.123879634046052 1.406447125339733 5.024621985107808 2.124077538817974 0.5512180354171347 -1.2392105314845625
P 8.892670809329324 3.923876704319972 10.130735722342912 -1.223255550817203 -0.25439677385216836 -0.36202932283118294
Ni 4.4179730880859065 2.2526964345279623 11.480735607712774 0.4763755363849473 -1.067141509298033 1.6718827134442884
Ni 5.274135793160249 3.1986981529628786 2.7618702748994 0.007261052437787494 0.5517829067816691 1.1628423398364685
Ni 1.55449323381143 0.3319859859380126 11.205925359919384 -0.25547869406243745 -0.4427506492416504 -0.48239834554025957
Ni 3.585056841621569 4.782094847440426 4.115330753970789 0.3975560549828831 1.0525810949853551 0.22008540216480804
Ni 3.9943618585560974 5.86953071213676 8.536980893393169 0.6702161459206135 1.0039494500205808 0.02428458357897753
Ni 3.0975269457728576 4.53648819064732 6.783583101756697 0.20118805103967288 -0.8635253084328418 -1.427089267009839
Ni 7.8389313957871645 5.6219868504594865 11.330065632531769 0.5198045541028596 2.921956670005916 -0.553216296794086
Ni 0.8470796697794237 7.070179376824229 10.348095567261623 -0.4578713069331727 -0.003163228219330036 0.46171587749024356
Ni 7.739952049522422 3.9327078120313628 12.595285974386417 0.35737819721241676 -1.667917301038637 2.657995906614396
Ni 6.843444551649182 2.806073106721131 10.787992050620492 1.6445737412166903 0.26319097510503064 0.5660072779111672
Ni 5.375152387753881 2.310921719356308 9.343788529242584 -1.7930667758554926 -0.15322926377220708 -1.7672397874900596
Ni 2.073536814747648 7.502257919720984 12.762847830465843 -1.5478454978550054 -0.5964954191976952 -0.6122642519961778
Ni 0.7060165937493393 2.1932069643526724 8.938713531048084 1.1358010194479602 -0.09434200251769559 0.7320149243949651
Ni 8.368443158984773 0.16055335803369963 2.6115995640114247 -0.02685285852678601 0.07400689050476932 0.03931653821143552
Ni 2.2625916406968534 2.530126001601353 10.75805450453029 0.2916929391994654 2.296437352772045 0.5359942764888446
Ni 7.726473469060752 4.375363675492842 4.255645323137179 0.024624740527215656 1.6126141575909583 0.6408955425796253
Ni 6.624031087656081 2.067224982871535 6.471314769287578 -0.6569443685123718 -0.490515061110123 0.9206511069115564
Ni 7.167703545711194 7.073253439034785 5.022119989503891 -0.16587883421541752 -1.4028584194869325 -0.37707876096513765
Ni 0.9124053107254649 1.400644605545843 4.328350532360277 0.29594451538696775 -0.23660731107923122 1.0836819301552174
Ni 3.003858996937005 8.86846029570654 0.9384920936797203 0.5534024446629631 -0.5559900028844812 2.504086071835397
Ni 6.081368158906804 0.5187416316303287 10.894548323594153 -0.2133560538607745 -0.2513117071689414 0.23185899776096844
Ni 7.278951856242327 4.201260797100307 2.076966485929898 -0.4010172740586061 -0.030104275584548153 -1.8110621839916488
Ni 1.420125792690847 2.851929383838363 0.48737619273818333 -0.8506255696520383 1.1018627148293023 -0.19718510052786686
Ni 7.662327431276572 7.513544639257375 9.676422978599568 -1.0833800826440825 -0.11587473438314883 -0.6305941606536172
Ni 2.726911457370004 3.400203840350698 2.509209645767515 -1.369484472012177 0.380386485182132 0.2284252894890711
P 9.049593499805468 7.462622525893754 12.442446875426665 -0.7938615253881166 0.34796204610483944 -0.4405677826577187
Ni 0.44640385469511934 8.680505947649282 8.396760001270472 2.4751567903955562 0.4407091933315894 1.8220446511450814
P 1.3365349471961077 4.1557501246102975 4.81075001846646 1.2199848504857311 0.24097484401930758 -0.08244345130789671
Ni 8.399702188031169 0.6101740642195697 10.378457843248963 -0.34109051579598676 -0.10905051237246381 0.08649653833134781
P 5.2375835564021855 5.169399401394672 11.976393578702234 0.9683820944389323 0.6607172052912428 1.30503154374443
P 5.82392909106064 5.161732435585504 4.106013071323704 -0.6311392345238097 2.335722780635229 -1.2662389963572644
P 1.9284647250417846 4.95307818932935 0.972189454319755 0.41921837044766513 0.37541191478567604 0.22919636332714075
Ni 3.5103880524243314 0.3372446331869581 5.430335442376809 -2.138779620914839 -1.6082250273843268 -0.7695854264495714
