# total energy = -340896.79569292284 ev
CRYSTAL
PRIMVEC
8.98957366370024 0.00000000000000 0.00000000000000

0.00000000000000 8.98957366370024 0.00000000000000

0.00000000000000 0.00000000000000 13.15714973686454

PRIMCOORD
 96 1
Ni 6.32121638680285 2.0602484370257215 11.33525259627146 -0.2539226624292272 -0.28277326811233233 -0.02082670693736413
Ni 4.625009718789501 0.263126614661842 5.866707145777614 -0.4185568256042662 -0.6866660639465206 -0.25419982735001384
Ni 2.6500004178210523 1.6567514298615484 4.911155934347974 0.3115997054257214 -1.063218262984227 -1.3120156883717466
Ni 3.549029685783058 4.187693936066642 5.04541161894626 -0.9779571397218769 0.872211266242614 -0.5594283391420688
Ni 5.069571097764434 4.438062547997786 2.632811454305432 0.1593621161428223 0.10676403033113227 -0.6620176692702212
Ni 7.205835368422332 6.043150898875876 2.700149652624796 0.30654465950031723 -0.8196502043164465 -1.6625807193170723
Ni 5.101834677105243 4.670371106739828 11.504440864586782 -0.038394540617798394 -0.07405239903072407 -0.1176552233223393
Ni 5.472960230046442 7.891002682492488 12.258253460965202 -0.4832766343801548 0.0676261837894061 -0.007562642838606332
Ni 1.6912893713013337 6.588683167557126 0.2846710265448688 0.7756025791779287 -0.5241998549570779 0.515676390867099
Ni 2.6446246528598363 1.7081358320660804 0.3536758917936804 0.753450982781554 0.2788597919905391 0.3646644464611849
Ni 0.39636378058102123 9.187164339570941 4.847922375294983 1.629279276951465 -1.1653481369774576 -0.3998937019771242
Ni 8.630484999732655 2.300099247945791 1.2931123937425912 -0.15210569169072513 0.08425607903660327 0.8208863907163927
Ni 7.015067628887278 0.5862208763191339 4.79413595904758 -1.7040299876007943 0.2088039157137178 -0.6509806947297693
Ni 0.8410896687512553 7.348652722835102 2.6129175281195276 0.49436528809414854 -0.02007208815952672 -0.09927697792546773
Ni 7.656006241269838 3.694112412721291 3.77523342515192 0.11232738335152267 -0.06610460493855712 -0.2684321688993119
Ni 7.43835068735519 3.852418802298234 12.620877574234457 0.8030115673185009 0.06078113584311468 -0.34891695381894106
Ni 7.906833321450183 8.707453728157287 6.929002351024092 -0.44319879252266253 0.27894978060118414 0.111356277687505
Ni 6.658675986935097 0.7314887884717499 0.35416582355017917 0.45618132082525953 -0.4985615855636833 0.06810338053614079
Ni 1.7586931935073484 6.45316534683751 9.15690273825164 0.530224463884603 0.1263740912525759 -0.23750385475157162
Ni 9.054208547302741 4.777041386053854 1.4719824327322122 0.453564966248335 0.08700073166127598 -0.07796227560809153
Ni 6.465597927007011 1.8397252091601912 6.884254950944754 -0.03148650064405545 -0.15313516139650402 0.16456782871347786
Ni 3.4367678917434854 4.347654407170113 0.3315255826558276 -0.5034623652994104 0.22994763967086848 0.13550742101241178
Ni 6.056895956778383 5.2937800507705965 4.739704990379242 -0.1697761123872947 0.9762033902555638 0.743587716834229
Ni 5.495613955301064 2.7846102916157793 9.062933827355176 -1.0065910014084858 0.05941999382952993 0.10154237692087674
P 0.13717280120349412 5.407615020175074 12.29938255770526 0.33304167734958123 1.0097141204184998 0.4744500372274604
P 3.827589600253287 6.204540712168032 12.410349853158852 -0.3731750550353573 0.2908478175903507 0.5736683940008507
P 2.352049993281688 8.526286853134906 1.5228876906684619 -0.24114016595257823 -0.2166231546478205 -0.64224074375361
P 6.3078219222673795 7.633658161514683 5.912231245008539 -0.26442484751213174 -0.2275976513814532 -1.5413483201664357
P 4.605951822940375 1.0162622961546754 12.512962238988777 0.26763898357405524 0.3480157821609103 -0.2183159689692111
P 3.9515378398607197 6.121980469017854 8.305542481760938 -0.5714181645140932 -0.7653413064612368 -0.8987193398354715
P 4.679855106796823 0.8947412413959521 3.7310514692465957 0.6316750524226218 -0.30622198605357587 0.13251928491836532
P 0.15776701516611868 5.594031806129479 3.630175869019525 0.6571662547151907 -0.45884292681782274 0.34384956659836263
Ni 1.6229686125969176 1.372348292607389 2.55972352476668 -1.1093711073912056 -1.017994615259737 0.7453594640226712
Ni 1.972564136972712 6.389582093374835 4.926813074536853 -0.15254303633845986 0.13350350320850557 -0.9855418940476703
Ni 5.886633434428168 5.593825045938662 9.31601189674336 -0.43556981522249505 1.1410645818397445 -0.6306790070579397
Ni 8.483712232973838 2.409700128225296 10.245498738727264 0.5369093321039463 0.18447305227783714 -0.5798907207614787
Ni 2.24984753200399 5.133486965447118 7.008339832069595 0.10485138668945167 0.1834520672124905 0.35584839083145164
Ni 0.5768744167368995 -0.027588102156313483 9.004108755153322 0.576144366345169 -0.005548954842687218 0.6846156091753952
Ni 1.3867945372439676 1.1486787140120502 11.40703793660807 0.23320934114127578 -0.01881353316207728 -1.0036689426656846
Ni 4.004720156767999 6.603129412193703 1.4588648470609642 0.5692864628830712 1.3278768237737195 0.03436047975774082
Ni 5.5735895159592355 7.87855212317596 7.916302039232204 -0.814080937758785 -0.3302890543051086 0.7467409177512301
Ni 5.288053692442345 2.7742363237809244 4.80725444367618 0.2911177834222857 -0.909829076595388 -0.25538073503199243
Ni 0.6598346959084396 7.327167642137266 6.946291098805715 1.3822330299270968 -0.16696975328675118 -0.5857240396138041
Ni 5.200989672961784 4.429891025673797 7.037759110350658 -1.224957363999658 -0.019602347611959788 1.0424725457964434
Ni 8.296018927580484 7.061193130586273 9.231555752539135 -1.474954466122234 0.2610106796242601 0.17145761385477568
Ni 4.660455607154174 0.4972070183434421 10.212579819477304 -0.21095515772876572 -0.5968155215412753 0.7233783317658896
Ni 8.003606080325582 7.2756394067565155 4.585766634572625 0.54925319838128 -0.753674925866902 0.9289457428201808
Ni 7.06092344338086 6.067872226038658 7.2252618367855215 0.3733000106489958 0.13274554199655847 -1.1337942734305764
Ni 2.4731844963793206 5.282947614686541 2.547881559577032 -1.123262263551001 -0.265243229648369 0.5617626437022003
Ni 2.1788209116719384 5.273104031688997 11.187010933200497 1.0573312080758306 -0.6327875687605102 0.9494253508307713
Ni 1.180124242163109 3.531257298946396 3.8145601124024733 -0.1189808841122983 0.19757693664964684 0.2955783902968006
Ni 3.7267355750026496 2.53374725314138 2.7300687511932225 -0.18939105840474482 0.485098518080242 -0.3706795423070132
Ni 1.0258361919468073 3.377805279066872 8.224283928855549 -0.3539979678862742 -0.55156102057885 0.09700463695152327
Ni 3.5257916382500425 2.575386957657019 6.946856542979729 1.576441564325143 0.07537677426910244 1.144399045529616
Ni 4.186291562598499 6.459745714649568 6.085247273726014 0.42004575144496686 1.3176746864297373 0.06260353376383412
Ni 0.7588179909108678 7.452212609713376 11.303531088213528 0.053972340451397365 -0.03922654960079051 -0.04970816585840471
P 0.09749911641530998 5.5210454587714315 7.938695066854927 0.7930434003621954 -0.5789610098583577 0.6821905446736702
P 8.589132961569456 1.5403274632851154 7.903262662850525 -1.0099594036600863 1.5463740555158012 0.48299998368000047
P 1.864050995088369 3.002904105249902 10.336414790458464 -0.991691458588834 1.9908339741390746 0.35596820423876757
P 4.078803232094722 6.032660066585343 3.8154285052039008 -0.6172691614099369 -0.13251054316761693 0.289660739260785
P 6.854396981476222 4.040246951294296 10.363873442756178 0.5469096378497678 -0.6599507594388634 0.3358066416892281
P 6.233801773955252 7.877545290942421 10.083586631213961 0.8251788474441595 -1.0717090740640576 0.6786665906808119
P 2.3765915289741955 8.4094223974563 5.755476455820067 -0.20792048466749996 -0.1956925751427404 0.17712458233256592
P 6.969373626716942 3.891811113435438 1.6422224811486437 -0.9514647498583032 0.5471050416900255 -0.409726628907146
Ni 5.224883959361302 2.856176286358655 0.29507645788702164 0.40159911470400517 0.3127862695346548 0.9609783457756933
Ni 1.4685277396308825 1.011524790912935 6.97235546825145 0.17959258425708424 0.3918343220077574 -0.033171601655962224
Ni 6.868474653598736 0.6992557736808875 9.006173660189427 -0.09481174306526252 0.2652815390854722 0.04579983194293403
Ni 2.76607379103045 1.558666193253143 9.1106154242294 0.03877146434124291 -0.8696301357789992 -0.3254402108532395
Ni 6.187002054242727 1.9409298277778644 2.5248179097701833 1.02417477592852 -0.13635151418026195 -0.01174402790980558
Ni 3.9865342495497056 6.974120121532196 10.342309253811422 0.4036277150982597 0.269258264345033 0.07824972494152331
Ni 8.275792387174569 7.132597313005901 0.2389842160333447 -0.8863011686767769 -0.015688100159218146 0.9367395278329868
Ni 7.497349258325859 3.9264299610368467 8.210285364979955 0.7801552315456177 -0.8257306061825715 -0.20046505683071927
Ni 2.9430065769278597 8.511642837881025 12.51097554324224 0.752751128501052 -1.0739945276641245 -0.7516900342263892
Ni 0.11522475746970046 4.844705905891767 10.15645072037222 -1.1094472120447798 -0.702980484835828 -0.2507632908646391
Ni 8.668708666313073 2.3147522527731854 5.5955510440533 0.007570870368722446 0.9353015098348795 1.143137148098057
Ni 3.74904769646375 2.7709820981689512 11.408735168087464 -0.4288209265344356 -0.5486410187185776 -0.42286933693669104
Ni 1.0777959268562185 3.4020052109658576 12.491858316207924 -0.40051410916994246 0.05271301412299953 0.1978582153354915
Ni 3.0588462212259 8.196207692857438 7.993468538274138 0.16305267762053208 0.27878780110202306 -0.49139129306748924
Ni 5.672492803757392 7.511364003433778 3.674409964451229 -0.9686893412667059 1.7039651958011302 -0.09178992551980321
Ni 3.0903366972445276 8.334269562881442 3.624229266140187 0.41024547752509344 -0.2534830037886473 0.10321230842413193
Ni 3.42098220065336 4.163763691373069 9.128048904144592 0.07383488370327929 0.06000054892334828 0.2692865464798072
Ni 7.19494000532368 6.305646445477054 11.412366955787013 0.2685388696805053 -0.7472893340555323 -0.7760522651208377
Ni 0.5866164175537384 0.09576862351391523 0.21242631900170567 -0.08614686830141294 -0.1952053510936767 1.0053247331015527
Ni 4.537478241486225 0.09544679678212338 1.5272026859550565 -0.13014538536955006 0.31777112434375593 0.15692265346339426
Ni 5.988350458736123 5.658478058649473 0.4175575990970122 0.12447044647195982 -0.5804509641403229 0.02129156238892462
Ni 7.9593593994909595 9.052770215540543 10.99545660598299 0.0035175262349552328 -0.7766317917733916 1.0839225854111139
Ni 8.949228307809296 4.9934653683971195 5.789501092612219 -0.32299072087148245 -1.008465335613063 -0.2508201122445035
Ni 7.891281359271414 8.586660828853178 2.479123008642497 -0.8495706460249628 1.1329110994946747 -0.41639478495594096
P 8.491829817856745 1.58135587680182 3.4500805511599815 -0.09637883044206627 0.035295589977500506 -0.37644061316050653
P 1.9175029992010608 3.381194348281552 1.6731025651256883 -0.35315721715253373 -0.41624540386227027 -0.9903223461554495
P 4.664662727558604 0.90865710119522 7.997994788538306 0.2579749781217299 1.3466677312279776 0.21946988006799623
P 8.357822245487439 1.6802951228940308 12.413480921613688 -0.00699777147407182 0.07576963883214692 -0.7471528084776681
P 6.266200196898768 7.61311698603579 1.2194338492239867 0.5098446146766704 0.5163492485644074 1.124575840156102
P 1.716648958183591 3.1974384760872137 6.083932099120953 -0.6506467084291181 0.7443845017039116 -0.9023222266953815
P 6.846863718871708 3.7476363334220926 5.995778543330527 1.6894330636232258 0.15566075603183516 -0.6651361602945448
P 2.4185009206952466 8.517198394312516 10.176213398784824 -0.6495138803762556 0.2216956840747214 0.2451189480946682
