# total energy = -340869.91840675485 ev
CRYSTAL
PRIMVEC
9.30895327394806 0.00000000000000 0.00000000000000
0.00000000000000 9.30895327394806 0.00000000000000
0.00000000000000 0.00000000000000 13.62459407983821
PRIMCOORD
 96 1
Ni 4.1355955157872595 8.80017229296337 9.409989710613065 -0.24947748217368007 0.5955772782588 -0.10166501854167008
Ni 1.8054062961291328 3.8154326909223806 7.043519777041397 -0.058112330761699915 0.8024754923093728 -0.8308666418575562
Ni 3.804355036702359 7.183616728902792 1.9279204973260098 0.7912775667110243 -0.013462296152492944 -0.22282311281094527
Ni 4.401961900536588 7.290939649493238 6.495362072212846 1.9370894334277673 -1.164381145078498 -0.0060477488559766805
Ni 4.278692743241187 1.9276887043931707 8.36567783669943 1.016075029639521 -0.063239110465304 0.6381359775566171
Ni 6.0077656237365575 8.32290226618983 2.926739517312548 -2.0150393677406844 -0.8568211569397889 -0.10376432427286
Ni 2.0352071129992635 2.4681385960333384 8.809730726033218 -0.9336655168933534 -0.3043754197631403 1.241096949873998
Ni 4.84231261921214 4.724023751839185 1.1226662632710678 -0.3420513370473593 -0.13295765800736456 0.7538124798860308
Ni 4.326736250324828 3.6252321606505458 12.439676940546805 0.13564008993553417 -1.2306919524905902 0.6225509786341665
Ni 5.1080459951488955 9.111957060014788 0.6610557574462007 0.4164953150895472 1.6144908057883807 0.6630967612670128
Ni 6.324400355366657 0.7960374395648213 9.35310642164091 0.2612911869791565 -1.2394301036945363 0.20380106318248772
Ni 5.127082804291706 1.0442783616823814 11.397136560413061 -1.0846329812145772 0.308993635261442 0.4618909696155271
Ni 9.081088571448745 1.628080048030651 9.745494621125017 -0.4306181276441745 2.675680725488669 0.06592848437200903
Ni 2.5244205266335493 7.567164215603074 10.913694697716938 -0.09463742227092735 -0.38759045912973894 -0.49916579480658557
Ni 1.9326969211749956 7.159571702978157 13.301418833066043 -0.48032166551688893 1.2827282522615393 0.28482397999377396
Ni 6.646983508044313 4.024213891633848 13.28064124968866 0.6841744078729185 -0.01977563996503046 0.7431259467064621
Ni 2.1321319329478903 5.42781784398248 1.4883238038536697 -0.843293297656683 -0.5289900772568696 0.1171039788045596
Ni 7.747739288342553 0.683990225262896 0.5675873517932831 -0.7194537999005028 1.2918525831603107 -0.9778478678375223
Ni 4.448124999088763 7.989036662323379 12.488929680641522 -1.537887615311345 -0.4352242589576182 -2.5330492918369667
Ni 7.859111603542839 4.3229940511681475 6.440999647747229 0.001528777939700593 -0.23443807134205433 -0.16034556310201417
Ni 3.922262236997145 3.915261904246341 9.778738754528833 -0.6999021030208205 -0.23173969857428478 -0.3202383549373259
Ni 9.091914883934363 7.670568066927444 8.074765604347283 -0.28049244249795563 0.12322603254189747 -1.9309275275914295
Ni 8.983232856187511 7.7708906547670855 12.06704420138684 1.0372454930695492 -1.2237080649735892 1.9277774119982216
Ni 8.74192617325356 7.645424584533933 3.661827517179747 -0.2440624818056958 0.0444479459007299 0.5095247694434063
P 5.5850088264692745 2.017399085669094 -0.22780032284333862 -0.19293095323720322 -0.6020068359342277 0.5181526203217334
P 7.443485464370125 5.837188366654475 12.446842972663253 1.3863869041944703 0.9974142200052241 -0.7354668874993076
P -0.26050546786115564 3.1377688302039606 8.001301208066975 1.046287291556843 0.17378471932605555 -0.3631238414469424
P 6.681715212157675 6.086603147761232 6.765183009467258 -0.47043243142763497 -0.2043386808535126 0.1457337267261103
P 6.464099814929568 4.22026975342198 2.709236758417266 -1.0161249090408502 -2.4608007787842006 -0.4666102294680674
P 8.9951203893295 0.8529505171869799 11.945472066246321 1.0384287147443727 -1.1330607376986617 0.6507652362848535
P 5.889821187629267 7.927876840285108 10.352034356379022 -0.20626186601815444 1.0679344375129738 0.6612944179509515
P 9.293239613191849 5.671805505416739 2.814650412721555 1.4093044322225923 0.27743231551539316 -0.7853948826780022
Ni 7.558674450352099 6.583282341802626 10.118849735047565 1.0290526728461118 1.1593201856158228 1.4611610118825675
Ni 9.127754353469728 5.1758244828598015 8.833464832923443 -0.9025160878737425 0.006612877330827321 -0.6362552155941366
Ni 1.6608661809406646 3.1451322121266814 2.740777353399012 -0.5062653819658443 0.2290773212507732 0.4619020253591206
Ni 2.0658428777371554 0.15607111542572924 12.37024518276071 -0.3975591403066766 0.009170353645358401 0.3889955670073817
Ni 0.748145668417136 0.30563247993039866 6.121952035466853 1.265802423040478 -1.180928507914218 0.9244686808854337
Ni 1.6417642091259719 0.17506696517478493 9.718682043436003 0.1911826030875288 -0.9821971459451536 -0.3550616332640982
Ni 4.969724260648642 4.349161518405527 6.859083350545225 2.2676965331939267 0.3411085135181158 0.6662785014291042
Ni 3.6731546513435473 2.628485313629871 6.123832443998319 1.1261385566575317 -0.2605458241726996 0.08156387691642082
Ni 4.459314360746297 3.00883982940791 3.4160944270343494 -0.23417376193707412 0.418220268200454 -0.9051298713475056
Ni 0.24794303561752595 7.770778947329573 1.3055425092233117 -0.1818726385405126 0.062278803434563705 0.11604442719179368
Ni 7.62449805790653 0.5781986274616888 5.848588110652659 -0.5004642019030349 0.3759808999152686 0.009272169330545322
Ni 7.885418705077109 2.8478228671863004 4.039269261524639 -1.074227726720853 -0.33577450289971206 -0.02368294543923663
Ni 2.4030224689164883 7.545865330850628 7.78471165747336 -0.18453013076801766 1.0991350314854942 0.8644964140968594
Ni 9.217241319870626 3.513776064872126 12.757197884514506 -0.5325448844876635 -1.7514467863218612 0.5196086360419696
Ni 3.1134259177792916 5.346252796691866 11.4953692882759 -0.08309933972434076 0.5435412355981671 -0.3834648669971396
Ni 0.6923999335169865 4.6536573751592325 5.03112611546819 0.07718168868832515 -1.0523867195863619 -2.764095563888653
Ni 2.0700505245501386 5.164085892967829 9.146857256179732 0.5076488925769321 1.0411309441668846 0.03657779912403378
Ni 7.99239719440189 4.190834843637351 10.823432295520638 0.3811231062378404 -0.02393337088714588 -0.09919315996240981
Ni 1.9793906300553559 2.5509975878084754 12.386090882771905 1.5902900401724613 -0.20752710588382325 -1.1096603564968504
Ni 6.738909420164242 8.089908478397458 7.491564345475645 -0.20011821501426177 -0.15807219368680517 1.203300962072147
Ni 3.468245975132524 8.857710932235602 5.1495238975927204 -0.3441537281023428 0.30194135640035097 -0.07596170023829497
Ni 8.511706453492755 8.76088851077136 10.151644246015394 -0.8078503834680408 0.14248333810961267 -0.6156586223897075
Ni 6.55561613311195 7.447330062011192 5.010280576732985 -0.2605946751327641 0.07061611965566549 0.8492330601798859
Ni 2.4574426088914856 6.357102707698536 3.790866363622685 -0.9539139827297441 -0.7236099881607216 0.8049388662482008
P 4.44578845185412 7.048711380199806 4.155800598547392 0.42015245222616027 1.3476293238102983 -0.06788663653964438
P 3.2172486719943354 1.4584802310268064 10.431112051394349 -0.2815933888716182 -0.08753217868471377 0.42447010576490773
P 7.326183346028535 8.135764381496472 1.263331992168466 0.15113381469575907 -0.6589845388708522 -0.0574304742033269
P 6.171268076442827 2.7353986402827695 5.65742224194165 0.387446734463023 -0.4791258454365748 0.6562265165097408
P 1.6475729958766387 3.416711610626608 0.6935179387874273 -0.5315688937276394 0.18589230122286696 -1.3396594182309445
P 8.319485880392563 0.3859035827364886 8.12844661344407 -0.8629606941786235 0.28049167116700724 -1.3157993237838952
P 1.1820136321356933 3.887083703133731 10.781672331797093 -0.017250045329699325 -1.7098931312497907 -1.1560104045162993
P 5.783512942929563 3.2687364917346207 10.133155734211707 2.6648844062041137 -1.9535735471257192 0.09061338871319878
Ni 0.6095083604059082 1.349425845154912 0.7231101698798869 1.4839163033012122 0.30903862956676453 0.20454873998178966
Ni 4.798923588691534 6.393649657671481 9.082413235478585 -0.8156626804236081 0.12363149551043225 -0.16071323085407807
Ni 6.640048337965392 4.938930243707606 8.991605328629097 -0.14158705154758838 -1.3233719939248305 -3.2743775232130576
Ni 8.98318631142188 5.361286755990467 0.3784666600840724 0.1532212933524071 1.138262593614575 1.400198356156266
Ni 7.608691455498465 0.5161460768186278 3.033298172851343 2.3577545636242876 0.8738333752270694 0.6424297198359646
Ni 5.904622423099717 6.834791637362748 0.10151506473509127 0.4861711823191304 -0.9467524319842984 0.25909597910005056
Ni 5.2641664480261925 5.078639012223644 4.399149665797203 -0.6995048675824017 -0.09343697420492295 0.8398814437616566
Ni 3.9454415302810557 0.5285055738841091 2.8413950350527504 -1.1328807604773714 -0.7259589480088723 -1.3711482328678448
Ni 0.06083773226010908 2.429115464528859 5.730191259423442 0.4334070032432213 0.5829647317011122 0.6339000850983986
Ni 6.92452994549805 2.4687157511271547 7.941530281835113 -0.11655222006614765 0.4187650849603304 -1.0136201403411254
Ni 0.8918005021633149 6.036818866443017 6.66338029808057 0.24641375564669177 -1.0486766177246263 2.3426842995547266
Ni 6.88254656689948 8.913685667382651 12.2354710902968 -0.5397827969969994 -0.5525136143001065 -0.4618380048904046
Ni 5.737926999471205 5.194507551783821 11.152411629891215 -0.8928973338370557 0.8136603052815986 0.7397089506051132
Ni 5.9412810805101754 1.8168004547554408 1.9928560307522143 -0.5982260287355567 0.5249570448380766 -0.597516661373358
Ni 0.7705001884540772 5.5265765276969425 11.904325562533785 -0.6745188870610254 2.1389176891546 -0.2425468164921178
Ni 5.319573337032554 1.1028502947516055 4.414981402378708 2.2599228027857787 -0.486044426933279 1.574122172163347
Ni 7.327533144231814 2.1672732309987994 11.899188882198821 -0.9444860045476251 -0.5749693722004614 -0.32770560984864855
Ni 8.078076798974225 2.9152196878190377 1.6178523012310395 0.42485268591530706 0.6672287811575154 -0.2714809830279647
Ni 7.173330335698488 6.024763772144759 1.9278255460041238 0.5739758979389405 0.8572186494885238 -0.2742757721642825
Ni 2.457554316328998 1.6461394170952242 4.499167850869622 -1.5534602729386213 -1.192647853233675 -0.6720765961681199
Ni 1.802557756472556 8.742345076144233 3.4958116471294387 -1.4165210045756893 -0.1290727211306616 -0.8316593129621805
Ni 3.367886151480378 1.9822857144775632 0.9718370193506278 0.3498662051060878 -0.13732724782996994 -0.43861143026229626
Ni 7.630390625235332 5.315644958813353 4.1462905720338 1.1790518597167952 0.20287340916189575 1.4457991847145164
Ni 5.18679042964231 0.30901442260109935 6.756586191255333 -0.22092589578823243 0.9114784392733529 6.710579250956184e-05
P 3.4237026344242856 5.616482396988514 7.428360277330889 -1.6371748776494577 -0.41371055325555844 0.5936731192575517
P 2.609895334237112 8.835025013467371 1.2232755668669928 -0.8494091807464338 1.196982476053287 -0.7122081740816831
P 0.47821860909708624 1.4160872584906896 3.3960932103476784 -0.8322840910303732 -0.560954545978608 0.30747796994786397
P 0.9254337498078008 7.068679084655223 9.62858254791941 0.08333768098739194 0.15241370984944722 1.3781454901212846
P 2.954577941636056 0.7540875731975055 7.031325979341561 -0.6597209028162445 -0.5432023642015097 0.24711463836845826
P 0.7746203311076753 7.5708598699941225 5.45318939572758 -0.07468617595998106 1.6248554368521566 -2.1493054601468278
P 2.7942405329926494 3.7839684293562685 4.4911835617733935 -0.6357330245420794 2.038278283663967 1.0925090415285443
P 3.6165375984307975 6.000048501595046 13.454654441369573 1.9398196878747365 -0.6848259254139883 0.2722471717700279
