# total energy = -340853.2802935786 ev
CRYSTAL
PRIMVEC
9.48549690542650 0.00000000000000 0.00000000000000

0.00000000000000 9.48549690542650 0.00000000000000

0.00000000000000 0.00000000000000 13.88298352981008

PRIMCOORD
 96 1
Ni 0.5862511233668831 3.9169979190981454 2.5105150282366298 -0.03711695945695543 0.1914613106702122 1.6640135951088568
Ni 2.941291272339992 3.044256338987472 11.149715710059942 0.343214504117525 -1.2480785233981537 -0.1383394911445682
Ni 8.34610831937831 0.604391187250498 11.238093979886555 0.06643704857731139 0.6122796786151455 1.4276757356409282
Ni 7.83854887661092 8.151684093576984 6.463583445624999 0.4555678556109767 0.875526703769092 0.11355971309672701
Ni 4.6308953715184735 5.34343639791111 7.966902823717971 -0.1808364839665144 0.1407961802151769 -1.2769967490944005
Ni 1.4590211599676481 5.97089251893038 1.3868374786520645 0.15636498118771136 1.4103611556218805 -0.8566046700536086
Ni 7.492973260940629 3.833753200084024 13.181656127786638 -0.6259782591481606 -1.146995602612199 -1.342753740885552
Ni 8.993550381938459 4.852097154495833 0.4971623898376524 0.5365174959821664 1.7511984177564806 -0.11437680968138365
Ni 4.944960167160856 7.601259691235207 5.449765021687396 -2.068810133704237 -0.9342578990617134 -1.1930381466935582
Ni 8.460674148486396 3.0749988337829106 9.379287590624449 0.9141475014650837 -0.5204002787053297 -0.322457988296464
Ni 2.5549185353752923 8.678669833580122 4.568876348463547 0.19290087133021616 -1.412969025558373 0.28815664391143275
Ni 9.399055365741294 0.9962996600876498 7.87220721309106 0.29730102941486214 1.1239988846067093 -2.4019531125183726
Ni 8.736844384823694 1.3524800610653451 1.0794922088699368 -0.3799550540716682 -0.9920719818567044 2.5806278129468785
Ni 6.468264538245039 8.889968758005663 4.282497820580783 0.45992021904240143 0.9829952163664167 2.0987948529917855
Ni 6.202974166619362 2.825179307270272 4.665223384065432 1.3379761169912505 -0.5065978256045984 0.021089987901079806
Ni 4.824209794206235 3.217281284240046 6.906617797110078 -1.4407017155869513 -2.172795572848967 1.3341192051390056
Ni 7.996273715691003 4.413184251325662 4.11780398707731 1.7794838949647354 0.5965854078083402 0.9920177315800013
Ni 6.659615463116491 8.402196061348512 2.1375348640586256 0.7124138623345859 -0.9824539991509662 -2.4792119343015364
Ni 2.411156347433403 5.273983591094633 11.743948878897468 -0.9843936393758401 2.0286937252993256 0.06316583402520735
Ni 9.220206325516674 8.100405498432233 1.1388809036907452 -1.5212147826413542 -1.5674676429613068 -1.3038835461829157
Ni 7.880664481946232 0.8500351981170542 5.505907779538442 0.18031326447319268 0.6527061620613082 0.030187836437289943
Ni 1.5489910961400433 3.9879494343927706 0.46315688417839707 1.8517185240604304 -1.682708857525515 -2.319066917246103
Ni 3.875309161114205 3.4895150394480314 5.00755021711695 -0.9119543504685068 1.4914110690163607 -3.4366534705685647
Ni 4.467811226804505 8.915456287630885 3.1968618555001074 -0.521374983913773 0.261608203998943 -0.5738542847594117
P 1.7011194921688122 1.123585540266603 10.737488354747843 1.1839837498007737 1.698978541219816 -0.059070066689278916
P 5.3385229106219905 9.060546445110376 9.76359628350785 0.5326834669480569 1.9047765802276742 0.8526027479830671
P 6.931042951105219 2.22830442760259 11.71257275292266 0.6559200410129155 -1.0933058263982267 0.6230842254298173
P 0.9332334381973594 1.7648620299736089 2.742332979117431 0.704913697302799 -0.3171016090805571 0.49838135123207716
P 7.993048646813974 5.812579579055074 6.096017602961723 1.5897665635688234 0.39089689779515263 -0.1872012498422776
P 4.587537166115836 3.0784705255740645 9.256992978807531 0.24252521922556297 -0.2201165125130596 -0.3658414974884216
P 5.869634841688385 9.073124213730786 6.620544702220961 0.7588269023814866 1.0219697978574014 0.9905498887852232
P 2.9865750335721497 7.273089962004173 10.380015080570326 -0.4835977651649994 -0.0797183390672498 0.47489200986088537
Ni 1.0320030696556937 8.682530430735858 10.878914264853224 1.8355046333047293 -0.39504383008399063 -1.1653905601796188
Ni 4.172859707006864 4.815094231880281 1.2275152819281825 -0.24045291007756653 -1.1093651938539346 1.3984016692671595
Ni 0.9092835075867447 0.31295119833013874 12.997568247736188 -1.1969601074557836 0.41180048071703923 -0.5166706364595682
Ni 3.56174709679677 1.6901258014968243 2.986729647168313 -2.674841003196194 0.8342676971193052 -3.654499956100526
Ni 0.7104921591060536 4.973473570232467 5.83639196996358 -0.967709750962256 0.6608318764922361 -0.32451435660486044
Ni 0.12606604530370072 6.949776807082076 9.720961821503204 -0.5360927497399219 -0.41110345465001463 0.4692520379662886
Ni 6.905697703930455 1.2750025240430864 2.7599646203780797 0.6352563420159769 0.7012915271691793 0.7382634764078383
Ni 3.850760695662001 4.99102173912218 10.003911342329953 0.18236551901653109 0.3458511704094237 0.45097406559270714
Ni 0.11227128745704659 5.29092468819573 12.092564596259194 0.38339853253557843 -0.1085864282518517 -0.35202361776872276
Ni 6.650860349665029 7.6759674632219 13.188764559011478 -0.5251475635823278 -0.7906620446142124 0.999013189061228
Ni 6.57856189383941 3.8443484998947324 8.026418624194521 1.3494296102438308 1.0604353009224512 2.159931572402106
Ni 2.1732316337789817 6.17011640606046 8.410450340574366 0.16362963316992465 -0.4757232475129291 0.03123221854140427
Ni 1.454686287977054 7.146572407057688 13.07629881887214 0.4554927793986671 -0.007692740658567397 0.47457653550299556
Ni 6.26849997780322 5.907851907881171 0.6705107905275987 -0.20747516959996526 -0.9342782107766876 -0.06989261122607963
Ni 4.488062762252904 8.507115140315603 11.891663673313058 -0.019938390795139854 -1.799762699818429 -0.7881729596437715
Ni 0.6829415339492038 6.398204659639945 3.3758968114599908 0.6398123368177755 -0.31794441669682666 1.5665903825626761
Ni 0.7140378377714455 0.5571353912550047 4.712537041590778 -1.7270781276695093 -1.7423034292596962 -0.3344282732844628
Ni 5.249425640145732 2.6285829027253 13.064261723563465 1.1084699357331746 1.0346286242719924 -1.0321876189306673
Ni 8.389162988886639 7.508709699961189 4.305654763667517 0.15672904939534943 -1.5812976068658637 0.26753074013096506
Ni 7.462885265417294 3.722516780316636 1.7129384210534517 0.5303193375912545 -0.6133479719786598 0.8927728924440494
Ni 7.426897290948336 5.84256323411474 11.88372241547821 0.5777801021763792 0.2964137417139024 -0.375013908016309
Ni 3.4720901820153807 6.869984808865714 0.43333068836390265 0.5931506710951784 -2.7541261113807667 -0.9743948762919156
Ni 5.312950011526494 0.7503426278300881 1.1740853761325192 -1.6893147928778067 -0.5346878989725953 -0.3433834255952215
Ni 1.977365612479689 8.868929926331402 8.555430466292169 -1.5503428103555623 1.8294509709114812 2.570229757542006
P 2.8122980027555533 4.83448258712924 3.221532683859705 -0.7581064792756943 -0.2295043814858628 0.26869005054638884
P 5.577434115932914 2.9206603170237075 1.6453419259406061 -1.3605378043418503 -0.20946880299122633 -0.5514754028435793
P 2.494704602341833 4.03080490847046 6.547715058580303 -0.1315306957528509 0.16128838663125772 1.0918739790477066
P 8.626499601745838 9.225613058634046 3.188671129102125 0.1560734180892215 1.2865082881292615 -0.3411097990696964
P 8.496064536663434 0.010001507717466896 9.307526962461559 -0.8990039609554259 -2.3210402389223894 0.48026458702670827
P 5.985576067817556 6.823240281142197 3.525222243214754 -0.20805443914220298 1.351171532635602 -0.08484948964622807
P 6.648678685424686 5.805418029048731 9.592142136508322 0.3174127125630727 1.3410267308921162 -0.7243252690601911
P 2.5311289096588596 8.02891330982587 6.889388340909389 0.547558070067044 -2.29323992888067 -3.5728093237982534
Ni 5.196515539569073 5.90988180417436 12.158314265165107 -1.618738268210825 -0.16841188504991642 0.2327930795394636
Ni 1.5719649691405222 2.5342496380722195 4.744357088811012 0.9044868384468681 2.554362965713078 0.025042287680608486
Ni 3.886084685362159 1.0236273760721168 8.330261848596063 0.8735053024636893 1.0385053336185792 2.3553068734147438
Ni 5.884394274549138 4.7926894886816305 3.3806869872920475 -1.408342325419639 -0.6863143370340566 -1.6951666236728935
Ni 0.3558844534807445 2.776034948882378 11.35522563585122 -0.07671503346455175 0.060410896987889505 0.39660834635763303
Ni 6.21319953205888 6.725084361320167 7.086957957415488 0.2453359492014807 0.6408353787656512 2.7587427842171715
Ni 6.640625498728812 3.943652164817116 10.61504007788443 -1.5801110427569303 -0.0011819361232431257 -0.13202100512570814
Ni 9.061125060408902 8.002401346557358 12.2688364270312 -3.5302886768272232 -1.7210648315958939 1.1499904235744645
Ni 6.058035777087026 4.923627285088983 5.791980874427559 -0.4457318433571614 -0.5433684574657287 -0.96975300664453
Ni 3.7402641446369893 0.4209198644853616 6.222672697610316 0.25221596415076564 -0.5265272175386739 -0.8323082594000892
Ni 0.2578139031289897 7.41812320650348 7.400921258243211 0.6618101812451054 -0.04883424789388364 -0.4808366574800945
Ni 3.01236609909168 6.145330803190828 5.683388062589665 -0.622248102681767 -0.2998016843495288 0.2536598956861437
Ni 6.6556030980136 1.1134170878072664 8.46026247792974 -0.1493039605758719 -0.2638972571434358 -0.4616780822737726
Ni 6.733497996890533 7.934048857357749 10.9744284738451 0.5224800440524938 -0.0698095645939701 -1.5522418271504879
Ni 4.19258954013692 7.823267741431823 8.637797776861804 -0.36464799140095266 -1.4551266327630294 -1.9065514127399101
Ni 8.634884780826113 5.296340906809799 8.163513456507989 -0.22083719272916805 -0.005307271145526343 0.2835453703916665
Ni 1.9724236687004777 0.9323958688390017 0.9761135745664611 0.05651104771285106 0.009503568615061053 0.6788054302515213
Ni 3.515590669868476 2.443350123223504 0.4305334153879154 -0.5264140889995772 0.8313510376931424 1.1252384134407654
Ni 3.2445805437344215 6.9140923685074265 2.77008564535393 0.20010484527782313 -0.2753453510793774 1.0003923287969416
Ni 6.104770819313846 0.4357087023858762 12.830500194409419 0.6093684185056214 0.5886586967620959 -1.0665172454504728
Ni 1.3595941835882017 8.642729286594648 2.3400046881584684 1.9729707207054086 0.3343025463398759 2.3281863630488675
Ni 3.1671219777055573 0.7443771989572552 12.462045560705624 0.04397280603652427 1.152850261620763 0.5199899306407884
Ni 1.8060006291491153 2.6850785210534798 8.632410963287496 0.07772907655136291 0.2070393676141273 0.33938176063499614
Ni 8.009733635504249 6.073098745842088 2.1940115113934113 0.15621534298372453 0.7227923773554327 1.1802615637541802
P 7.697433142247533 9.19559146158759 0.21577038756857594 -0.43468098485963846 0.4739509861038548 -0.7268701469692321
P 3.7096259903052196 4.384632906267264 13.031275908799154 0.9551257436496582 -1.0775128252300281 0.5041974436932221
P 7.3225757982731645 2.598855356076456 6.555280690745944 0.028694025500582837 -0.4144512880763249 -0.09547920144593233
P 3.7084782452048657 8.762597508356436 0.3011427034918662 0.26869699252492435 4.5370074620628245 -0.259440764033979
P 4.651829862729066 1.4695880032882647 4.528976555156688 1.5758926338002086 -1.8964192094019143 2.7272431709469935
P 1.7443733571077815 1.467624505471956 6.713144018077805 0.22603236377686234 -0.08849145727418953 0.10399315245421445
P 0.9172465820639958 4.851945386548678 9.92159904764116 -0.6132099037388988 -0.7444690909979179 0.03812817433028917
P 0.16670950155161626 2.435581501428545 13.583527217804798 1.2233622515983964 2.189770767250726 -2.1587136408346046
