# total energy = -340863.98841300164 ev
CRYSTAL
PRIMVEC
9.33026008257723 0.00000000000000 0.00000000000000

0.00000000000000 9.33026008257723 0.00000000000000

0.00000000000000 0.00000000000000 13.65577874799418

PRIMCOORD
 96 1
Ni 3.784866586706005 0.930738211986886 1.6843041184063308 -0.0926389037836598 -1.0584108142932547 -0.048107911250820375
Ni 1.6270946966981141 3.609886892219103 7.225969077023217 0.9338087273394369 0.6024662920691495 0.15499766852653954
Ni 3.622790641684571 4.280527314546584 8.716906357723847 -2.56940263365502 0.6858659366427284 2.357907030041752
Ni 6.704388887132696 6.312835199448077 12.01039387286527 0.16919144352841828 -0.7618788018339331 -1.1478448379863715
Ni 8.133252881630282 0.603622098368327 1.9970478996484569 -0.5616911670343164 0.0036797628444323726 -0.43681937135887994
Ni 4.706948183541726 3.7144417848510867 6.975494517442397 1.426941685688381 -1.1705628484091777 -2.278548902527399
Ni 4.646469438758528 2.335233433632765 10.897433818643764 -0.8966328896200879 2.1453765574060664 0.5786473352726809
Ni 7.26952273031664 4.2879262106609115 5.093100583760287 -0.44752724469468735 -0.5687943537380011 0.2415291738608808
Ni 2.426837925499695 2.779157870232548 1.0340195241401742 -1.2980584548607064 -1.2780457591842054 0.16434028608370407
Ni 6.7311014212756 8.337417629138141 3.3398486436439283 1.5060087643248772 -1.3145662227077424 1.2138566261008061
Ni 0.8889349154539267 7.205899687941351 11.01704495170411 -0.7125724993996373 -1.5023667966969159 -1.93851048214501
Ni 8.972183202084043 0.9296017863289727 12.25686668396761 1.2993890007466717 -0.4187028642638273 -0.8414495595797251
Ni 9.093112700870687 3.3270120720498637 8.476442234008177 -2.323213849534941 -1.5849426598176188 -0.5540758165809038
Ni 4.795622973794661 5.17179106287584 10.678258548981136 3.039059106148579 2.217116249143214 -0.5444076973635205
Ni 0.2509214790308528 0.39008230569567903 3.9545224348841614 0.14505598393279534 -0.3330442484527426 1.1200941502356645
Ni 3.0953417183061407 1.7054315589628064 7.5929543242939035 1.5528465506140223 0.10549261981787637 0.1845494140417273
Ni 8.432436996134761 1.9531312992442549 5.934965270958003 -0.45757614429025717 0.03632583101422776 1.7135716085426425
Ni 8.47421790004392 5.659129198870289 9.826985227682927 -1.3499515441855718 -0.21388904354610905 1.2373907046670043
Ni 8.556053609777557 5.753551429232209 6.626453226044444 -0.9602365825136623 -0.7863739587618199 0.76066498403149
Ni 5.211920510779656 0.5996949919691835 3.5654142083238365 -0.9800129938096411 -0.3420526225989399 0.2668573682130243
Ni 1.892279344064369 4.024812880996272 12.910023132236276 -0.9346538489485516 1.3375115186500062 -0.39832404349715916
Ni 0.8012230080244463 1.2075968805615236 7.82596263730975 -0.8943119547963952 0.10680465376108059 0.21485732099664934
Ni 2.427892244870337 1.8210708003764071 12.194732751075103 0.5938687802081257 0.25370900375652433 -0.14057686511551917
Ni 7.787678714817554 2.4023833142567512 0.14824290166821485 -0.06897549872844895 -0.014023310862285527 0.06440304886641812
P 4.823800358744561 7.232043076229305 12.867935262775841 1.7821156761606274 -1.3236764125391267 0.4519140609084733
P 7.419917189921758 7.0136963336473235 8.601583412121439 0.3564304885871668 0.9382443945132874 -0.4386957624459864
P 5.258179939449064 1.4626955169573004 7.884108817113653 -1.1264278057631762 1.5584446135270902 2.767396860347744
P 9.111129432770774 4.216297805276676 0.4822662067034665 -0.03774559417988983 -0.3391254216498159 -0.40801067465730373
P 3.549585422374331 5.857845074586511 7.1989710369268485 0.0017583774520034234 -0.8739439326630045 -0.05353499580366263
P 7.146251336290781 1.1757527034641684 4.360795540614133 -0.6859926920285798 -0.9340051596209592 -0.7591580604686602
P 6.731987795967732 6.397386014817616 5.034885360032997 -0.8836138516526008 -0.13487364408315483 -0.6561092742055862
P 6.5809122273886596 3.8855587517322747 11.129787147413426 1.117067961814831 0.8302593472908605 1.0289490573887117
Ni 7.545819717244264 5.619447603442497 3.047219036731271 -1.0556656474479498 0.9767829169081178 -1.3098168809482151
Ni 0.951406603755436 5.884492296909995 8.117377444381189 1.0868585281109862 1.1289477439715525 1.0213329356043506
Ni 7.518118175550139 7.921064110593642 6.179676528987977 1.4015985789379022 1.5349881822763627 0.8746867243663
Ni 6.254950266921857 2.4751126903112146 2.2924094066648655 -0.09710542419544566 -0.3218779474232779 -0.4287000846858552
Ni 5.082621768847295 8.055988999256066 5.651157424797045 1.1691253446317025 -2.6491621103728504 -0.0040245477783608105
Ni 1.3811863663207653 8.978677062986405 1.9121779893897513 -0.4005004823231877 1.2599145968011334 -1.1504568216879218
Ni 0.9577511804991223 6.742045816158459 1.6034751437177583 -1.7805773851392301 -1.5438489751011026 1.4330102604799644
Ni 2.0120332301014487 -0.16732421622485155 10.970260229401365 0.3658834064699505 0.9776496357837872 -1.0395975382414937
Ni 5.527656506377223 7.734104362373072 10.596187716697584 -1.0443882747619173 0.26731913834079124 0.21773849919918628
Ni 0.6586902254255493 6.021861713670721 13.097775952549805 -0.7685562138541087 -2.3369718225509817 0.032463005624711834
Ni 1.8698867202631233 5.717732561410133 5.9944363476701445 -0.3691379088515062 -0.32519312783943993 -1.0453403542625417
Ni 7.3829880211695365 0.8565402530214576 8.41507338242888 0.9561205034627598 1.877796966315037 -0.6924749573188139
Ni 3.5668930545207105 8.850096751067666 12.937497948614414 -0.050283064525268234 2.182927519076647 -0.6707861594914706
Ni 0.5837197209389781 3.788617351192714 4.958235408761333 0.937329853118818 0.7820483348032725 0.9219191749907025
Ni 3.4583168198644194 9.39006688325496 5.3719242050734834 -0.2412522660504103 0.11606036803139366 1.2215593940617027
Ni 5.821139832072303 3.5672196136178123 9.149167036401156 1.5086258902327503 -0.8756022942020338 -1.6295901233236643
Ni 6.474332668354647 4.359433322666224 13.267900179775804 1.4248143549327332 -0.3136249633858663 0.2101743136986832
Ni 7.443839976349422 1.8423251324677563 10.763156450019592 -2.5168945364539748 0.4666099723577512 0.2343146583903126
Ni 5.914321137865237 6.113643480476077 7.4253026159459585 0.9224344240642243 -1.6804069488652156 -1.7138150920120163
Ni 4.478963282465291 5.561889230013378 5.303194711445518 0.33613754266608564 -0.5631538676227721 -0.8911690382920393
Ni 4.913212239530953 5.8979838527502455 1.246962180178122 0.8914300052629098 -1.5226725981338034 0.8026510986552886
Ni 2.9708293997112962 1.4488960625397829 3.8229349801941153 -1.3375624264925996 2.3172663737022545 -1.4229140525862267
Ni 2.9787321298611524 7.217814429855596 0.8139784063572312 1.0271868232819663 0.4928100277918867 0.22409220933135596
Ni 5.267799437423682 8.154329938783205 1.3817732396695563 -0.044248685405730244 1.9629914980055096 -0.7465234024237853
P 7.328928495209363 3.7680068070356505 7.300543045463308 -0.5845305335263353 0.36298654453812973 -0.7125300761974761
P 1.1302023745484675 1.1213386276271409 0.0392094842759816 0.30081804142918517 -0.6506009427928473 1.6209846410428406
P 3.2552996943263737 4.148896007634926 11.19663192853812 -3.307539097566691 -2.0323647463930095 0.8673277128980676
P 5.499805680524424 0.559414393854709 10.725071262063631 2.065643305940481 -2.2805458783527692 1.0223125259088006
P 2.131404575481924 7.6109449314662205 9.248212410552043 0.8047208367001237 0.5803195807687811 0.1334248274517702
P 8.456975579716959 7.649861445580803 2.3262073401888794 0.88328449333764 0.21269039525231756 -0.6298845361811023
P -0.17228511542281924 1.202633182285581 9.750417382698535 1.5058544981352002 -0.6582018950685569 0.44606994342287054
P 3.199971253017462 3.2338867478164324 5.194521442086088 -1.4528450358177043 0.9297139884447729 1.0324868953386412
Ni 9.177402268962544 3.3971942871469354 11.446546672523908 0.08510428596951149 0.46850204717414157 0.015609424402482796
Ni 5.956587215290089 8.58544392851669 7.868923819098432 -0.6348943306908679 -1.172902809396264 0.8418131135667308
Ni 0.3244215345544757 4.447772223562139 2.68292370339471 0.6262991328226891 -0.34876423029116066 -1.32915723314804
Ni 7.054814789102361 8.93343463264797 12.388057602611175 -1.7538176005468828 0.20860568365998264 0.3546589985090408
Ni 3.0390615904856757 6.393700562150327 12.05448868123389 -0.4295392927576989 -0.4173142114464168 -0.25547740851085676
Ni 5.8728201417535955 0.8028446071980533 6.1464794642026295 1.2032906776595018 0.17443829374965442 -3.1462959623510716
Ni 7.7127287369028 8.555195225865175 10.10182109590752 -0.3607823377979593 0.049654686912649966 1.3162837196194814
Ni 1.5953344919400139 1.7749979769053437 5.767476842158608 -0.08517113465170494 -0.6445711916589996 -1.4631911549387189
Ni 2.200607113287691 5.8695078994829935 3.6337480989313136 1.160724522162517 -1.402173734715082 -1.2952361549205629
Ni 1.8066928698440239 7.742389633179534 4.765729754045989 -0.7223138950571173 1.2227660127752942 0.7858792785135885
Ni 4.115484346871484 -0.006520918656121155 9.258112749350168 -1.3762978953895846 1.1098264497610693 -0.16085001354225847
Ni 7.226071709882306 7.021356477039332 0.4781375666901117 0.6225622914880762 -0.1135589417657786 1.2967045119359732
Ni 4.306353473997354 7.102249830521334 8.615689832090233 -2.008207689530832 0.26021132365141636 1.660623081370069
Ni 2.3128781308711877 8.716338144894891 7.315100116986101 -0.22200370223344346 -1.1016773382913738 0.27563537151597045
Ni 9.238431499080857 6.041016737280703 4.430208009268037 0.9000635125681918 1.3657576579798931 0.18846983214205604
Ni 4.65866408847029 7.121432844911068 3.470070148282099 -1.066583579912034 -0.026340694777057864 -0.34144815624572167
Ni 1.2906735148641462 8.128830338429536 13.035450749328996 0.049365952027637564 2.6680679461384176 1.3113875678694447
Ni 4.525791856989647 1.7656957077679094 13.397834312408525 1.252724249700281 -0.04673442794206145 -0.7037685279547621
Ni 5.118151398611939 2.690119199842844 4.652728177110976 1.4677301804596528 0.9581254497079305 -0.618747031507044
Ni 2.0717655540912725 2.312990093990194 9.860715050309546 -0.54559451858277 0.49135066963754087 -0.4150588397533368
Ni 3.663321290764826 3.556116604316361 2.7329992083702463 1.223065546293584 1.2739224810444512 0.9675310592925466
Ni 4.290305426939795 4.126904585010119 13.442748317597873 -1.734213967383342 -0.17206285153894238 -0.5297660361909458
Ni 9.435132038654967 8.390777385604526 8.676089269664136 0.8779309423352106 -0.7131875072758169 -1.4211500187072688
Ni 8.489276939550258 2.575730213258146 3.6777878587664223 -0.8596483419759389 0.7625920258508737 -1.8023178621401155
P 3.016239774728239 8.687974154746646 3.209203545205517 1.5259235009709333 -1.3095116910029707 -0.041698408180050765
P 2.697853985314191 5.186971395761102 1.4296094822649679 0.11661444076265078 -0.9285896450323426 0.13042100762843992
P 5.752879650518172 4.49809964555544 2.927089141219529 -1.011674329468664 -0.6849403395046655 -0.19958291133608208
P 8.614218450101292 7.484790487125951 12.433709631359974 -0.8838609346664004 0.5341582517213704 -0.42936908572842186
P 0.8618118498746676 4.501458539125626 9.677140320386933 2.6900652763451154 -0.6525884055365212 2.129578671141861
P 0.3662229650354515 8.762541592004794 6.151737065665964 0.06610331938697647 0.7353810126537206 0.1973895032291891
P 1.115469894139231 2.263726321627453 2.9224324084948616 0.5668940513914946 0.02687805533776661 -0.23810035068498997
P 6.30175085066646 0.6213701187827978 0.5580008594772553 0.08105634115238299 0.881066916861031 0.8125544738119296
