# total energy = -381163.77919718786 ev
CRYSTAL
PRIMVEC
9.29298964824649 0.00000000000000 0.00000000000000

0.00000000000000 9.29298964824649 0.00000000000000

0.00000000000000 0.00000000000000 13.60122969999364

PRIMCOORD
 96 1
Ni 6.765194087415446 0.5648529890659706 5.772171256524087 -1.025584254681537 -1.171157544570383 -0.7925142673316029
Ni 6.052682001284588 6.63424657325552 12.287255684823965 0.9343900537642036 0.7509516133984679 0.2195472702731509
Ni 8.106060947333658 7.629014627563189 8.168531210227512 0.015211931853747996 1.052261506862407 -0.846084487248575
Ni 2.5280369675341734 4.917022934119161 5.554674414539515 0.5221476004137395 -0.9378373888828558 3.590822729656539
Ni 9.077540770111645 6.219277422925707 4.259007725945017 -0.3004462599120632 -1.6415817484679018 0.7613632956500953
Ni 4.373280829157733 4.621905468561231 1.9980754366092055 0.7896827114200787 -0.261248249556363 -1.4707381140480413
Ni 4.607296889165914 6.249200848913569 10.261406290683729 -1.422456396223518 -1.9857025664497803 0.011882867480515018
Ni 0.9925377368427362 6.723738061535988 9.666379894214035 1.278011049291528 0.5992318442922518 -2.497507647286931
Ni 8.493494969960976 5.612835518231327 8.927030583887417 -1.3715416116515218 -1.2747192659141338 -0.5839651479411685
Ni 0.2755111164432748 9.349119093425086 9.576421897863817 0.5658848934006899 -0.6352913090189704 2.462706737557662
Ni 0.44157497908858473 0.3159003071353389 12.225560457249177 -2.8490309283804676 -0.7068217129587892 -0.1472059403962626
Ni 5.483189022592612 8.262062361016342 10.665567694298048 0.202413953026974 2.96519696875179 -0.042772872191152146
Ni 4.487519548309531 0.3981915871998471 1.3658761530916708 0.1689379327567155 -1.102907868264365 -0.8743177710626556
Ni 8.517061991173776 5.006495836420756 2.414640193225389 -0.5483437991931331 -0.20632820047971562 -1.6630764280065682
Ni 4.411159054103859 6.674039154025714 2.8534700232342174 -0.4894701647853763 0.9558466809760828 1.75060475003654
Ni 5.067271987340202 2.291762711092747 2.4776132068477947 -1.6631329922761164 2.106192173897121 -1.328707547205131
Ni 4.932235557827897 4.697829192263352 12.786448127722284 -1.7168042565473272 1.4672552977057631 1.4155249592110073
Ni 4.046827403217482 3.3776113548746522 11.115359534647027 0.09530822308570683 -1.169890247822185 -0.32888651753062714
Ni 4.283789340877263 1.8702605891885666 8.425947946937567 1.1219340316578807 0.19402264363948518 -0.42211574660011814
Ni 8.742416985026464 7.396996560284011 1.8290935752806072 -0.7650620846579211 -1.8199327470084012 2.2869654087258673
Ni 6.416911429287155 7.602511021688225 5.740996994157975 -1.9519316406469218 -0.27520394040550666 -0.5091272768946715
Ni 4.181612922014983 7.239229478608255 5.88080444444735 -2.407998804491821 2.3688434744485978 2.4289494386015584
Ni 2.8517117896326947 3.402646668418534 3.188604030607779 0.5404708242029596 -1.2137890060876646 2.086721466767019
Ni 7.423323599359668 0.31067485917478765 11.820053428764348 -1.3784455378602067 0.7652626307045014 0.5259687739320426
P 2.6208832250014815 2.847399842533822 7.497052318956717 1.4542254611049987 1.4597816150365377 0.48371577880010236
Ni 1.1421084018348606 0.5839491530605226 5.860117320661145 0.2885266256563418 -1.505624384402265 -1.3302705208168766
P 8.065004520000002 3.804689270441167 9.794639875828716 -0.4175618086808486 -2.507817256743055 -0.9870881554888677
Ni 4.376951559985437 6.913788988516661 0.6498875596123473 -0.16367617013714394 -0.10379234929731801 -0.5348493642511241
P 2.817625104376956 4.870911120531654 13.831634366922673 0.6687560164353192 0.0862859649824385 -0.6930187456374258
P 2.3742844572952984 8.14435735680446 10.64241792831098 0.21483778061262354 1.3342814417484825 -0.7497961596377861
P 6.369387081305191 2.531986488044994 6.275512089907183 0.5071634683000814 1.8507872704954127 0.6618207227680667
Ni 1.0509720544240022 3.60845850548474 12.251633797713199 1.0521684329279686 0.1416436158171367 0.7782446447864662
Ni 1.3203386462513846 3.33791170399883 1.5736218612597626 -0.5600675153879645 1.5112715553857134 -0.592206047793722
Ni 8.447829219866456 3.609564371227769 0.24852706301440677 -0.5209733775999802 0.1366219942328292 -0.4808081182350042
Ni 4.74684971154471 1.2823674914108862 12.50514747885962 -0.39823765443093995 -1.1483729425756997 -0.6030514751486582
Ni 1.3232566449346728 2.079417902452173 10.24820002339449 0.010786549092542713 -0.6401794903492072 1.060021096203168
Ni 6.321360911893615 8.135891443427148 1.7314093875122807 0.01656690321974566 -0.1489046682549242 0.7970252678280789
Ni 0.513099401591125 3.0783399230382824 8.331065595484564 -0.494584088973174 -0.6829654751664819 -1.1085915489127036
Ni 6.000390349721327 8.753196852773645 7.841720933492871 -0.9020337489206852 -0.3758060649003012 0.19506188353727696
Ni 8.538092026270213 7.97224189943763 5.7266346789827445 1.5221069554383206 1.1678994426444016 0.31051007190596847
Ni 1.5943517327973786 5.9295963561885525 1.58335998489103 -0.6948316304764485 0.8401107861636434 -0.963137301100225
Ni 4.779365881585559 2.240744199082386 4.871334880849991 -0.09523288976308115 -0.6425397630512676 -0.8055875555757932
Ni 6.133233633726448 1.9869712435306661 10.458855366555378 -1.2478705211524057 -0.04937906465376012 0.2895573809137013
Ni 2.7735391624867645 5.2493867013414865 11.577570526079912 -0.6264120042514696 -0.11701090487012107 0.14880722344511146
Ni 8.459315354810865 3.853133624377417 6.550420091335981 -0.20854680539758924 -0.9770587962773237 0.10296085453495817
Ni 1.751459012223092 7.420675097370059 6.032852620423439 1.07219372700996 0.33881148995382293 0.8432845559059349
Ni 1.011421091379176 8.035768775230494 4.073854204397762 0.007649031904825536 1.646792860355196 -2.5304054264562166
Ni 3.5956063010930586 2.824371814708381 0.4173741759961654 0.11379291215345565 0.21260863417178869 -0.3875115262626875
Ni 1.027832510725314 8.304503443776145 0.620470601548814 1.6765040142663838 0.0009659634576951107 -1.148877393015944
Ni 8.881477278965088 0.4555581402947761 1.87760855593658 -0.4813357086037001 0.09017193030040599 -1.5020155840050842
Ni 1.2106906638815755 2.742825832396738 6.043869459401268 -0.7189544916665811 1.8582480976488318 -2.0192240952459937
Ni 5.25894918747239 5.7259683716400955 7.7867584767653515 0.030644721469050448 0.9140647119432903 0.34463658127603225
Ni 8.099416459886044 7.523966674964806 10.88597510057436 -1.8084859386240404 0.30336163378664527 -0.9309285775781645
Ni 2.7361162940230623 8.410880293864052 2.4469565639933357 0.1782738654456607 -0.5084785875670791 0.4149284848230596
Ni 6.608151858915793 6.2162572013586095 3.3812792978055244 0.6537734269835579 0.5281205301677228 1.1476931428998558
Ni 6.104388194513304 2.857399099168276 12.935775316391155 2.223379456444106 0.36314003939685846 -0.24224625453256346
P 3.0966192332613023 1.0852631854473598 4.27595442148274 -0.6257671715786192 -1.1926283128496493 -0.19245015694604276
Ni 6.431111117147234 3.818693805523064 3.8309763496622433 -0.07328106808233831 0.14326675324285648 0.5209360966041415
P 8.02768387442011 8.626347546955532 3.4935711356702237 -0.41524833005632356 -0.6111874739922312 1.194027250079705
Ni 0.1482268987195017 5.970875815268704 6.798302220883445 1.5380879042476092 -0.333029078944091 0.5700282261451022
P 4.7616162717604595 8.54352842509099 12.823456528857086 0.4489524071769881 -1.0960520216847964 0.5939045185420674
P 0.6654012761788495 2.05187348176024 13.679980213698721 -0.1535362534896646 -2.278657917301437 -1.032392278742306
P 6.420340542389492 6.806083240939232 9.344724438720222 0.5773453286318057 0.2921187138829743 -0.488421668916204
Ni 2.2869675285431397 1.1669392696111236 1.4265510104262515 -0.6151356600067018 -0.44973145143485777 -1.1359601707336437
Ni 4.74839234779129 8.719584109979204 4.036450851211877 -0.5304337516819316 0.8753464694374861 0.14444817514546734
Ni 7.9466954714747 8.090365088174186 -0.15248494647963784 -0.6599124500017602 2.0312815406311597 -0.4773358434156877
Ni 0.7524505668352166 6.9560349184982835 11.752631861098342 0.999529209465698 0.49179958424950143 3.065926362853068
Ni 6.829232077627358 0.8888809447631058 0.7137480537260087 -0.2954619193235944 0.8752238278166927 -0.6313508363139837
Ni 3.587326247504492 8.020797769247126 8.129754353202806 -0.6195427879354621 -0.8446302713005518 1.6660427097237436
Ni 1.0588989744139548 1.1433164904616997 3.351656035376485 1.024256537009049 1.1273014666173813 2.371497881352309
Ni 8.286363528394684 2.551548230810351 11.484987260213678 0.22601745137852688 -0.4024524638432359 0.2892804731032308
Ni 2.379990352809754 1.0376273215921483 12.296001317183338 1.7939543206667685 0.8407437917619521 2.0472203233486037
Ni 6.2870790738596956 3.350215622013715 8.456904753350848 0.4267252203476715 0.3903996464437599 -0.65332168415812
Ni 6.421083981544469 0.8761142358742471 3.188196068371485 2.6256964231507425 -1.502144910494097 1.2584799212371356
Ni 8.305878806212855 2.0908111075022098 4.9622314691333695 0.5105359843167401 0.45061179715728206 -1.2818923866238054
Ni 3.447503928432016 1.1260779950556488 10.403648504205659 0.8562532002514608 -1.430922010492368 -1.1665285304388038
Ni 8.188740674356643 2.6211341357162863 2.547782711490388 0.5111862163062293 -0.02764270141793304 0.21073918506321768
Ni 3.077001732559322 4.314511963956727 9.133702022476566 0.9113971924134562 0.6661388905274463 -1.455781235627893
Ni 2.0373857112276075 0.9232389853104113 8.164056635813488 0.6572840112399777 -0.6678659005208821 0.36608523806811144
Ni 0.9799178571869857 4.325105971915162 10.037217567005412 0.5548769723259606 1.8689816820162524 1.2840410575356918
Ni 6.295247611575015 4.328432862133689 10.902500823690575 -0.5085102121359629 0.7262358558193428 -0.24782014907591515
Ni 2.2666530536333673 5.82126797831883 3.735346841858487 -0.20138474043151125 1.6520805911166965 -1.7660318832248874
Ni 4.532739234911064 3.8354583584678164 6.576439532461265 -0.15390520679330913 0.05453695470561576 0.1790868482652593
Ni 4.065840859606043 0.26018047176868603 6.550610597619444 -0.011331108742103066 1.2488354561688362 -1.5400987640300507
Ni 6.535629369347695 5.893474506246062 0.9442513637269191 -0.021816324544143072 -1.4762032509276706 0.6219390560817805
Ni 2.8989108829843566 7.363885638919181 12.544875938002697 0.09632123773125348 0.7104297420250216 0.37205482538798507
Ni 8.080533105349604 1.6948739995398334 7.391329695325192 0.5839834027736135 -1.1600516644652086 1.345974818926011
Ni 8.533807958139654 5.172886812294257 11.35886280757167 -0.40189479156755303 -0.12421127927330221 0.504343482352783
P 4.826732248747091 5.764143972248212 4.885085717320253 1.955062215856104 -3.7255014841200675 -2.3172761438942673
Ni 7.310757618306569 0.3166679080628536 9.549504753958898 -0.02754422816685579 -0.15209669282966065 -1.06322469074213
P 0.7247825493837687 4.080430853022485 3.5941110590926093 0.26045737822395143 -0.1763645642380898 1.1023512244299465
Ni 7.328553693078854 5.63237867501781 6.207138920122805 -2.1150018017689507 0.5968869982091591 -0.8704269206486815
P 6.54525690640466 3.484025376920307 1.3206062843471766 -0.6639367406698049 0.8417220965148213 1.119729053586762
P 2.228551796940748 6.25643079469573 7.829357540345588 0.4614618524979085 -0.8038921701512413 -0.009508967931699754
P 0.22065367049639636 -0.1585244603148899 7.5724844435176095 -0.7268398079519289 -0.055965716732342324 -1.5808389220618904
Ni 8.52826004344563 6.067699472215143 13.364744355308144 1.1044093925105558 -1.5724036468103437 1.0798332458330888
