# total energy = -381163.65351787396 ev
CRYSTAL
PRIMVEC
9.32671741743372 0.00000000000000 0.00000000000000

0.00000000000000 9.32671741743372 0.00000000000000

0.00000000000000 0.00000000000000 13.65059369946356

PRIMCOORD
 96 1
Ni 8.059244662592773 1.9529866863243606 2.522943331834804 0.18852408241875918 -0.5989647066737943 1.278130862698844
Ni 0.5252499573428612 5.738449540799483 8.927078947641968 0.9141873535640836 1.2952927191901111 -2.3694055175996547
Ni 5.565858631519826 8.826861501633227 1.3616681268115327 -0.05814884042659019 -0.42969330183706 -0.19419310777907847
Ni 7.959243596432465 7.125006013539833 4.402248016408274 -0.005049389498449368 0.5568770334751247 0.9242285398501697
Ni 2.3133990347325626 8.745802998928578 4.864634964421991 0.7714168232313553 1.1436236008161724 0.20733838691178488
Ni 0.33042508596475684 4.240214951457425 5.454559179652879 2.429137900463281 -0.8627601481320432 0.8185495150530999
Ni 1.7454112593085247 0.5394899897821036 11.758744093574803 1.462341919564546 1.2936209879146432 -0.8507780360695025
Ni 3.8706157862083437 4.074777634580767 12.740932330506567 -0.14627571527250935 0.1392306355002699 -1.1320793476219986
Ni 2.4023572672486044 5.75774651952413 6.830702372187298 -0.8164322115997809 0.738819091800992 1.563018863161334
Ni 6.2452540487350285 7.167489212230394 6.350270090951518 1.0640901240662193 -0.9718199164758877 -0.22203789790548858
Ni 1.8597661438628543 7.203732836843241 1.8829085282560243 -1.9636769541083086 -1.2300592040025977 -0.9684319738402613
Ni 0.18705291759789702 3.779642982689632 3.1468988742626443 0.8166309578741484 0.6970587200347543 -0.10089008804885852
Ni 9.453467697204394 3.3946267532395633 12.357063287321909 0.01367981147993773 0.291694224751046 -0.3037244164427027
Ni 3.4024891761805387 6.793180054590812 4.928424116809308 0.3130876028251576 -0.3687864390493584 -0.5299218450425196
Ni 2.37449836176261 6.565468244265882 12.858614055230584 0.3082405591455014 -1.1828010423465822 -0.642982507015641
Ni 7.76680543208947 9.129177726080176 0.2538275522905586 1.087737845392146 -0.5703141328166372 0.9298412580512566
Ni 5.884198156812085 8.88185182863203 8.133420047704965 1.8217929401455917 -1.0337127973259423 -2.614956153915103
Ni 2.083094396913456 2.215328599116481 2.772448883187227 -1.392516414130976 0.7129113707962949 -0.22940590823478554
Ni 4.196873694747207 5.843916063476292 2.3947233488889506 1.3158859699604304 1.5720963999825701 0.045668705681708444
Ni 6.503902581355587 0.6745511200911897 12.289548111251413 -0.038018131114986135 1.8699977819855926 -1.671241994536496
Ni 2.3813534992022505 1.9298750800992865 13.651139758978585 0.12876933095762982 0.41029124316136434 0.32706257694801094
Ni 3.687709527257609 8.696716484173711 7.671388447631997 -0.9621260862268914 -0.33959310531485387 0.4293140641207703
Ni 0.3345307070544571 8.817329596240965 3.523709457563874 0.608070011409172 -0.6045779390955137 -0.8586201578217407
Ni 0.74614393709857 6.259701134305101 4.334091162166559 1.7544084400533464 0.4527165022051107 -0.5278220250906975
P 2.667711709827125 5.210809145734472 11.204039429363739 0.13429566009249774 -1.0718168032865154 -1.1422902267167296
Ni 2.835984348855688 4.183163419867927 5.271667843450312 -1.1416729048477048 -0.9353192504466924 -2.45417350327567
P 4.578224524178529 5.866906422372502 6.67675090804114 -1.0317171070521522 -0.46815957623305826 0.40489938272183174
Ni 8.85612874147757 6.174660123183138 6.4810698439869014 1.2685460472238863 1.765435387291469 2.317280000549009
P 9.041655808075296 0.930217901093445 12.055221792801051 -1.9153142465342046 0.7029789421739312 0.08904475867449825
P 6.709463437368753 3.352647197299669 3.9578122017688107 0.9754683118617523 0.4847907570318361 -1.3469461817003447
P 2.098101085539825 9.34462490275459 9.3227957202002 1.006365515661241 -0.8517152031717913 1.3192728841547923
Ni 5.810787562543498 7.503680075018533 3.7242506741620547 -1.7366642286960476 0.22606578811795905 0.031816887400280686
Ni 5.535313631363604 0.7567344249389942 9.804156942509431 1.3183372597144005 2.1555118460678555 2.5721038346362675
Ni 1.5864093775792845 0.6997948139607557 7.342613258011556 -0.0804521319094808 1.8326463379203275 -0.3252764315818656
Ni 1.3430659885484535 7.825685000329537 7.850156441981413 0.5558102827735073 -1.4028447926401775 0.342170636234043
Ni 0.25964649140428886 8.927869853294869 5.810593566817316 -0.4425822419845862 -0.5805154988296712 0.42890860115223556
Ni 4.951293228376652 5.035811943312737 4.609423327238858 1.7531352297678773 -0.7214548894909316 0.047049130969002845
Ni 0.5321946312715093 3.910310296335024 10.080335973540262 -0.08683129596294722 -2.0072023881947687 0.7104582812701119
Ni 4.383286799517405 4.155808157132599 9.685328031520006 -1.029979298425439 0.41001099291678417 -0.5525190136167452
Ni 7.192195687165914 3.017780728411434 13.272185895971738 -0.30843107788975266 -0.10640818965361029 -0.6177417301709812
Ni 5.701338531449375 7.887539791485587 10.176381578764307 0.15133718895581677 -0.6646113981393263 1.6136523690474855
Ni 7.893975226633004 8.88865100576604 10.034715267047394 -0.442579927991741 1.9638517891232756 0.7862317767570007
Ni 3.8138347294293893 1.8309092795931297 9.1119354232439 -1.8825946448139965 0.3066127937340913 -0.8623644553555212
Ni 0.5147993702665113 1.789060297699705 4.568144207791096 -0.22261408212393274 -0.4456593382480132 -0.03403214988404462
Ni 3.510753714138834 8.19899619918539 2.747728418175299 1.8409432878217973 -0.3424789115030812 0.9879836707199435
Ni 1.5383021681729365 4.154250595292572 0.8688723487186267 -2.1242922259319417 0.4777407921635901 -0.11523735790946604
Ni 8.542312674223712 3.7426532206683873 8.063378263835288 3.2640473449316425 -1.1904945543360983 -2.462861003747339
Ni 5.269977842220294 5.7359033468933305 11.332695902693505 0.439868699708165 0.18841763874788198 0.07508881071503842
Ni 6.9937697701205375 4.27978821425524 9.229726270563892 -2.8461392086549693 0.22128842133397372 2.9684365587350103
Ni 0.6644092473675637 8.087299429148471 10.820634856715806 0.28389195509780785 -0.42286548028194915 -1.5557133306388562
Ni 4.032630197723984 3.5116863858993295 6.997485534414351 0.6106593694029032 0.781299629562706 2.1706577005703585
Ni 4.936612974866457 -0.3790741776639525 5.584826377113019 0.823222495048737 -0.06091509031781767 -0.8034257720377841
Ni 7.808878255205412 6.651898936310983 9.612038684580286 -0.5698423353865412 -0.22138072393746389 -0.9160786570495256
Ni 0.1930658524378103 6.110837394612445 13.514183439652173 -0.2761827593790082 -0.8809954401931472 0.12073360513734692
Ni 2.9671926121221683 6.386544493732462 9.364321064992732 -0.028656744504744196 -0.3053472967581064 -0.11978383962956791
Ni 7.631903788651428 4.8700295378846965 5.302873175212963 -2.0880342720411718 -0.1674045268313246 -3.946940829209609
P 4.22919077124837 6.683329974639674 0.3417355964042834 0.4414717825292268 0.6676314159125728 -0.11927913207900748
Ni 4.3135602587027755 2.8767794116597534 3.1419846267565945 0.15511413949974576 0.31882321975735417 2.8072875258950942
P 7.53702309045624 -0.40720355796049107 5.981307940514856 -1.8279211645305167 0.49102388242574146 -0.2458565975916411
Ni 5.686686258091993 6.16543599947184 8.668031231507918 -1.510587384834495 0.5779677927071529 -0.37696563242604114
P 1.4392617539259398 2.625181877548539 6.2838731883218575 0.9394291588500079 -0.08314690513282454 0.5049816301574142
P 3.8868162946881473 0.7263750264631114 3.8660941935134625 -1.03658394822615 0.3532428348878045 2.926377424781431
P 2.4652659774940133 5.156107946981422 3.2990344264911178 -1.6410808975720834 -0.5261461800501713 0.09763070057129637
Ni 3.628410256725317 3.9783020676751324 1.3113616773939367 1.0116594170703288 -1.182823925164718 0.2225714018114554
Ni 0.7430885044111873 8.373620332902926 13.169014678497506 -1.2048479948442927 0.10264872261117806 1.360646819115889
Ni 5.7003405726656435 3.062101290470171 11.248622072187176 -1.1621584263955664 -0.23855826415801495 0.7163383941999728
Ni 8.123253925515566 1.0922425719984505 7.754110836757367 -1.0587962226571312 1.772292519422619 0.24303326921023302
Ni 8.753534847823085 6.398902394559025 2.137873940094387 1.9143536823931482 2.098965831352011 2.0186818495892784
Ni 2.982740250369625 8.640644257932733 -0.03233293192109085 1.722306160202163 0.8656238428330834 0.5792122066372154
Ni 7.557644463080791 8.697593195628576 2.7490658694798493 -0.2411422228351073 0.4742685173442736 -1.2601714500069459
Ni 6.474029104866923 4.6544051535757855 7.054122027070429 -1.756159361306182 -0.9176632279278261 0.406125541819449
Ni 7.714594466936942 7.231675682787681 11.958425386809806 0.4056390891013336 0.21799715217721166 0.2514474614158573
Ni 2.4275394047819785 2.8100933807843385 11.136264037872065 0.20394170252541002 0.8080527292868341 -0.2285708139279999
Ni 4.108642946204352 1.190900590823644 11.97846477225581 0.47015089563147416 0.20422143854935798 0.5156817901837377
Ni -0.018942563455659707 5.873901460576216 11.131841308383798 1.1846432377616436 -1.4740442956031388 1.5573873759071692
Ni 5.893440933958593 0.9321960978974555 3.3637385298754796 1.0273639722897792 0.20271682897937346 0.2207294635067102
Ni 3.699862240296863 0.9238869251832028 1.8389666309320487 0.47241346641340576 0.7615625561450948 -3.0003706884394457
Ni 0.37200266037587715 1.3989703338725423 9.516661805008516 0.7081707707875158 0.11920122765322051 0.43974451542547494
Ni 7.6912869996421644 2.310451791969397 10.516362819587098 1.5783794047778044 -0.7969663895656856 0.27526667532264204
Ni 5.958839877804524 5.058774322056132 0.571509543991668 -0.9863006265905657 0.79417211465 -1.515569668540435
Ni 8.418910873592578 8.26772478121629 7.819961193735378 -0.3790384557946698 -2.467011535580603 0.8210943929621407
Ni 3.595291082510129 1.340631715253561 6.093324616965624 -1.3909866077500108 0.8499555401682071 -0.29090258208768605
Ni 6.158403654397706 3.0290753834310324 1.8261078853700998 0.8300192062555964 1.1201918521557934 0.3286018964106728
Ni 8.316895236429602 4.44285654486024 1.303638222545275 -0.5092046670998263 -1.8079120683984413 -1.5950679211770789
Ni 5.61755662720408 2.5352443396839766 5.4736015389869115 -1.1929198759481392 -0.9585897909388588 0.9109079114818635
Ni -0.04920309872492998 2.1413677285092025 0.6347922556130352 0.9583496499035947 -1.1123417599837555 -0.13028551049184015
Ni 1.8545058751336607 3.6126107971025267 8.160816347997754 0.12444447833003085 -0.1569833314980006 0.056896713187043944
Ni 7.94450738261664 2.6079367766969805 5.934363772793845 -0.03535883911526814 -0.4398375893599135 -0.36322874245592285
P 1.1003568163147597 0.4809713655133465 1.8305306148583687 0.20516734740239506 0.1205222604574892 -1.2425347107617892
Ni 5.788086331893044 7.959057062080367 12.73694609140221 -2.6286855876860535 -1.3322955216667054 0.8003599886282667
P 5.782574241788516 2.4502499621500387 7.81940159067908 0.5349468090609368 -0.12421616436930863 0.49404004354424597
Ni 6.687153928857705 5.633113592169142 2.662262108730551 -0.3371418155608839 -0.9196275507430484 1.4430087664535727
P 7.522128322441129 6.713576519832537 0.4968491695640186 -0.870853723773455 0.6790784814072498 -0.7536705549915279
P 7.328337784045415 4.577618287534207 11.397713383789393 0.538112608383428 -0.06413591124796052 0.5537523718032141
P 5.094225175672559 2.05540337234435 14.017931582228575 -1.1721103954019554 -0.9194799694215907 -2.265612911192021
Ni 3.4621894955698433 8.226332808485507 10.990680504761073 -0.27130563379236505 0.271409506360081 -0.2007846449536671
