# total energy = -340892.7241345089 ev
CRYSTAL
PRIMVEC
9.08516772664331 0.00000000000000 0.00000000000000

0.00000000000000 9.08516772664331 0.00000000000000

0.00000000000000 0.00000000000000 13.29706131077294

PRIMCOORD
 96 1
Ni 6.632890214149694 2.0963752117844776 11.394810046390988 -0.5566487195144026 -1.7038780354039624 1.1562466888968215
Ni 4.741848879562064 0.2614874822664584 5.906820866279893 -0.751733228759499 -0.11640618140658662 -0.3008368104822626
Ni 2.6920078971923145 1.6343308335445732 4.963620550839361 0.8577606380349228 -0.7964678526627121 0.015148425605664236
Ni 3.3664816686721943 4.278468981657192 4.7424239706831015 0.1442406871203516 0.2875678612874983 0.9776894878827871
Ni 4.827603778321457 4.782541346088531 2.6456362922810084 1.7030275144782088 0.1500655213322448 0.16891710682110908
Ni 7.511298746986931 6.174825139401327 2.5101791660988995 -1.2234136736616221 -1.4311685792855353 1.1987632221027935
Ni 5.077173337482441 4.883668348746737 11.307395287476565 0.37767011469223344 0.36362006435707056 -0.2439485819356508
Ni 5.556670323044816 7.826018044362091 12.516882779326428 -0.18017519623343164 0.5575648035707689 -0.07195669284395995
Ni 1.9437080522598622 6.527847504174473 0.30326108375980404 -0.8026001908126952 0.3756965359056304 0.19459137165876164
Ni 2.9562954281713107 1.9562819244796947 0.31097348269579816 -0.5178502585899663 -0.6962225972867042 1.422262535045157
Ni 0.6108448903535649 9.33946163530761 4.566011816625427 0.21447345529466935 -0.4979470919081359 0.17102566852367965
Ni 8.554057965125304 2.330636263221171 1.2473299412409533 -0.1741369604591517 1.093854242702529 1.0346468791044374
Ni 6.816810350868113 0.7514069723162545 4.70460695976182 0.3741348478454653 -1.0327717735689117 0.9055214503589696
Ni 0.8577379590839402 7.324008013018832 2.53540413446477 0.13639213761021027 0.8258889861373067 0.12512659199872
Ni 7.9293799982963655 3.919196021445284 3.8171477827732843 -0.978240732400567 0.42916108348267373 -0.535013143522498
Ni 7.606365942729943 3.9949208949657358 12.65494644014717 -0.6902380975684951 -0.0315867736673456 0.6925688025842008
Ni 8.076550631308699 8.802328345292477 6.730067894370067 -0.4495612444055806 0.6497820464359777 0.21416569424626344
Ni 7.089756046749927 0.4748998906611926 0.5940763961655988 -0.6817539713568839 -0.30332075324638086 -1.1594831935562482
Ni 1.6741420387955173 6.374989556126292 9.406766375321311 0.618469095255309 0.3206286483972091 -0.6791741264448496
Ni 0.19501948620611345 4.86100085511344 1.5595326471385893 -0.07660164781513905 -0.8395495143435348 -0.6619762745093244
Ni 6.539976203172651 1.977404939588879 6.92141333872235 -1.318654533844503 -1.0125243361737852 0.33133472196080355
Ni 3.5678907533842383 4.433407433129031 0.6196484179410056 -0.7790154615142197 -0.23151061328261416 -0.8559202423920743
Ni 5.889042101433802 5.560631456200775 4.762315945556891 0.23113934598612454 0.4926447058586161 0.3574854122142424
Ni 5.275257250783749 2.8122228373749913 9.291348403731172 -0.22121205957008355 0.42076231789601726 0.042151179446753215
P 0.17611506907097782 5.548602694048276 12.619110904320646 0.05522241080841457 0.8840139153044968 0.08446896637835775
P 3.903851173049838 6.29358645273778 12.630133938398915 1.1315993226617866 0.2708520911947142 0.6239691991379319
P 2.34250149235347 8.512347959806482 1.419314893035099 0.5312233374627625 0.4256335299453896 -0.6631674666039483
P 6.371428170353045 7.691875541959036 5.574978753173 -0.21938940453904796 0.28644197521317116 0.5044861785782344
P 4.785166959579522 1.089175340371845 12.557172772919847 1.2544754280634332 0.5422032335130339 0.3693795925486671
P 4.013527318597395 6.1857182555802135 8.409780049536957 0.021144495288099068 0.048088885087426855 -0.4078813481682911
P 4.507524231950848 1.108363214741994 3.751672795552266 0.4364169937141387 -0.3799635387121004 -0.1762375517419223
P 0.23848656297530935 5.675131825844235 3.705491979164526 0.07328826717118991 -1.4632903995207445 0.47298013755015317
Ni 1.397126187744277 1.3078008180438476 2.4484281891545496 0.3015862870537774 -0.6290805522225682 -0.23291957781499886
Ni 1.7854080887061314 6.501327899398685 4.945017761274818 1.037405158575865 0.4318702548837207 -0.22815275255397482
Ni 6.156127864091778 5.743724842650404 9.201180838976713 -0.14589313512211002 0.3175582370020015 0.6948187749606421
Ni 8.93171021977415 2.05922596069568 10.042153937939801 -0.27073330622866276 0.5175928911635215 0.778014531053531
Ni 2.3495334122220757 5.1817072780614835 7.078145202315718 0.16937450607350182 1.2439300484474192 0.08560642241691063
Ni 0.6832409583961647 9.025414640348828 9.11001663131581 0.36704323110600656 -0.44663995699372755 0.04581371590000497
Ni 1.8337048406719045 1.4775208375082214 11.61211090659937 -0.871709386905531 -0.42482543222179736 -1.1362663891201528
Ni 3.927899612187047 6.741394373052484 1.5530167648003927 0.95290148230483 1.6509608756899568 0.47397978245926115
Ni 5.799671305894428 7.932287251988813 7.74826445287438 -0.06587269143340913 0.17746242528795889 0.8397140649458571
Ni 5.145984398315543 2.827149768052148 5.14206687396497 0.3146284649497162 -0.06478537190650131 -0.5426215519973753
Ni 0.678941856998459 7.24244137661012 6.9924856978181085 0.9548393227574911 0.3256093894412522 0.1396345558069079
Ni 5.238316958554097 4.542274998743378 7.365720743887993 -0.38524509882601393 -0.3818784963466262 -0.8350498267009682
Ni 8.12124057166228 7.316730793619926 9.02357216832124 0.2792673118416029 0.12144117272733278 0.7350274859690438
Ni 4.473327660393442 0.4341429194434244 10.484440801789193 0.31202882254334 -0.257791144245698 0.1565164191639111
Ni 8.339929645508805 7.345912352557861 4.752662046264409 0.03995340046448603 -0.5334910504510167 0.05534428109825953
Ni 7.406410484864122 6.2502047765458 7.020528885232095 -0.7316508561873271 -1.1295133866670353 -0.9486141677833857
Ni 2.323604343352565 5.167216435438193 2.784125138954271 -0.7309286333093218 0.32728446315082993 -0.556803499924712
Ni 2.4580739117960206 5.245494241107325 11.59806887126485 -1.4385787557066771 -0.9311306662866415 -1.120652850952612
Ni 1.2624840011128324 3.2068189299501286 3.982535994235912 -1.17426652251301 0.6060046442397111 -1.22410118664695
Ni 3.7502209857396003 2.8304840246306733 2.513024640650382 -0.465915774504204 -1.4864748080570076 1.2102858780304124
Ni 1.389249347271304 3.3798459504896607 8.308868365355348 -2.332843145094589 -0.28731126519200195 -0.26188922557447153
Ni 3.595791303663939 2.596786253596891 7.225689235724174 0.12967075972597666 0.7972931767774849 -0.9312610212169188
Ni 4.126564976226844 6.857266603032069 6.2464008167925895 -0.14259569531776087 -0.5416581596428414 -1.2162528942471247
Ni 0.6250350139230423 7.359076760683973 11.383281876983657 0.5595478954390686 -0.12017696130292851 0.11298352887828284
P 0.11163945030673784 5.497544051074677 8.149303746445403 0.15090627206598525 -0.5270802618286664 0.7416028251937163
P 8.405942474662927 1.4436422468234267 7.994352575738658 0.43481288245181243 -0.2418803865527125 0.3546204319616215
P 1.8148440323421557 3.386405441633244 10.48495865635316 0.21065510998984366 -1.0149697123904842 0.5489467228844546
P 3.881756044987242 6.306114899118668 3.8880338959293694 -0.02994795251234197 0.23819496728132528 0.5595152424289203
P 6.881751130223145 3.9460881181004175 10.496101614646241 0.4369409845384088 0.9940273058108623 -1.141435077805286
P 6.32034227187608 7.823465112213412 10.177543833880273 -0.751815246950344 -0.17568322190034905 0.5657067159516128
P 2.3445729106093385 8.501763739332416 5.913880950168644 -0.2441812667717472 0.44930259142755524 0.03870281588683657
P 6.768540854405706 4.024983715179194 1.7923636931653106 0.606804000212555 -0.00037846638534128367 -0.20514060792951766
Ni 5.410480888153684 2.7013474496792997 0.6747345157954211 0.28578685812767557 0.1451518860807113 -1.0978625925309737
Ni 1.2820352821945376 1.2436413631186614 6.979693781571342 0.5932859111214621 -0.738327239766238 0.06980467949796365
Ni 6.605852754809939 0.7872534103441241 9.312357854242995 1.0154723630585156 -0.579985337357814 -0.8486669032637706
Ni 2.7435934798976676 1.4436604171590044 9.066521390526468 -0.18977698098925383 -0.19280985427830663 1.2364810483685416
Ni 6.331780498122301 1.7561992742648296 2.7249934158834606 -0.06642136484802755 1.2665806959673993 -1.2020303228898397
Ni 3.896528527811988 7.056386225461311 10.514438208794571 0.7854481045134408 0.0014565299408684593 -0.5236892338692465
Ni 8.53327110122431 7.147982887108965 0.59670200965659 -1.075899200886005 0.2512952521087092 -0.6535343143895584
Ni 7.774586909509149 3.502486630471973 8.148798611116339 0.3308788653703076 2.1994802812290057 1.1216296130435846
Ni 3.1366905197876376 8.778743249712502 12.617408343877008 0.12302882892942682 -1.4756034125601425 0.044056623999582184
Ni 9.012668149941005 4.73653405640556 10.574049628724635 0.003546579700677763 -0.12044744135549579 -1.5320509540249099
Ni 8.597675855679796 2.223567560829027 5.674853819709895 0.10716820774808639 0.4629263528585769 -0.21770507485808957
Ni 3.8652573802826065 2.9876574273785805 11.743964855236403 -0.09978888456487976 -0.3794529176242691 -1.151718462009165
Ni 0.8831709777921767 3.5335488191422098 12.580216392499603 0.8310497044026398 -1.0506872203967517 0.9435359819295299
Ni 3.2668991445381006 8.304824557172509 7.98854170242088 -0.7034651377817305 0.04564865107705041 0.7516841206891183
Ni 5.594682665073559 7.902306198285454 3.470653111056459 -0.771310122450162 0.08976621022155508 0.20497580021687925
Ni 2.9268049735285526 8.47021095160158 3.4439127367034 0.83013053502248 0.1505064655244053 1.510541104977592
Ni 3.296071618308247 4.269756305747641 9.201234441466665 1.514705777878243 0.6551199137091234 0.8126799436462003
Ni 7.423281641448104 6.420769716614541 11.61800172939369 -0.6026200440381945 -0.46877201300607657 -0.28805919910162003
Ni 0.7650002003620013 -0.09150126738587008 0.034045757772110365 -0.36097285654221056 0.44781289425590615 0.08353771281333999
Ni 4.67001245785526 0.21642232448319557 1.437318970042355 -0.4251859008850096 -0.15872371122787504 0.15494598935299767
Ni 5.802860199788331 5.469080220392065 0.32367999836534866 0.8658385299470508 0.7574089389880375 0.41786365619198357
Ni 7.929688894001188 8.888019647877346 11.251521505574852 0.3464877755521581 0.6958572435274855 0.33611877361300824
Ni -0.10245616270572136 4.605871173265652 6.059019231146602 0.6431457720663827 1.453369797972923 -0.3549369347607758
Ni 7.887760844655432 -0.46882554747753646 2.6586807761923055 0.20937315795362652 1.0931117081095496 0.2947589797192988
P 8.41003080016793 1.7881336390428004 3.4710646691572964 0.7601355938905812 -1.4598232669077504 0.03879923225538479
P 1.8256735523465202 3.3253349437562822 1.5620992070389523 -0.693710886608444 0.03075656445656639 -0.23888942224518858
P 4.788964559715281 0.9314114017176588 8.025933527489642 -0.29804279267689315 0.41698279624892703 0.8662902727724887
P 8.616600260184066 1.5164689518192203 12.582995545326225 -0.1322485477554819 0.6462143836893774 -1.753256071616458
P 6.312538112745418 7.507428465508862 1.3661530337183716 -0.24712260878825826 1.0173970908850543 -0.8289419140310175
P 1.6946200069916897 3.45855075904487 6.043434534321528 1.4385368467251485 -2.099140152146346 0.09094531813132078
P 6.917728394667174 4.045725153241245 6.026614254677165 -0.7239588868597079 -0.5833961628115758 -0.22894722343081217
P 2.311166748649566 8.580922806277071 10.525887337242137 -0.30913607437657725 0.5886797798080184 -0.9213676733626067
