# total energy = -340871.3513484331 ev
CRYSTAL
PRIMVEC
9.26880307034155 0.00000000000000 0.00000000000000

0.00000000000000 9.26880307034155 0.00000000000000

0.00000000000000 0.00000000000000 13.56583019841248

PRIMCOORD
 96 1
Ni 2.4510514980900693 0.5615921311125289 6.439414589716208 -0.4019292443499143 0.8389831003171035 0.22834738506328414
Ni 2.6846716742706174 5.52093461937769 12.334486290449306 0.4014497336103344 -0.787835888019327 -1.6450545375078507
Ni 7.8962599980710095 0.8719264810751008 12.841835533442659 -0.8571618281086593 -0.8629740639150622 -0.6800562719394869
Ni 8.747636616316916 0.23947527894957174 3.3618429964531154 -1.0240302799308558 -0.3702663660289946 -1.9570728185282293
Ni 5.023005260734754 7.139378825020927 9.24334980419513 -0.7388095787192954 -1.1730961563539926 0.4209543793021654
Ni 3.364816428411803 2.8699735811224922 11.278549973641535 -0.7302524331779036 3.6781659322588975 -0.552316667797952
Ni 3.666506692823652 5.46568328550694 5.965586899159852 -1.4016829111215925 2.032248275419803 -0.43882843136910876
Ni 1.3281360311480601 6.343058895785633 0.5484072590388599 0.8327540886882561 -0.5356857441094903 0.5131749646014839
Ni 3.6311091346870312 2.47641094272526 0.3143041782291114 0.16043143794760112 -0.3421485247468559 -0.028685797970466727
Ni 2.551553127541594 7.759248554139216 10.183393644396137 0.17670035031095374 -0.6052076022597126 0.32824862683631206
Ni 3.2392797624253187 2.56143367139434 8.119420330219828 -0.8079907657006471 -0.29103833633460197 0.23362303163992668
Ni 6.370744809939623 1.188686892063103 8.703619071517018 0.6694952085941889 1.8225678706384032 -0.8479374812969138
Ni 8.13089974256657 6.72044747318564 6.591473935097281 -0.6709543096382187 -0.6392585211968345 -0.18090307553839166
Ni 6.11143151222079 6.3415573497217075 2.0471383875349 -0.7007402826513996 0.6623259445392593 0.3622075002802601
Ni 2.4771802533629503 7.662797391539145 5.148775500553404 0.16502445663492227 -0.5644031666488408 -0.11097292620615727
Ni 8.249345774362293 5.840810275008195 1.4226889429216367 0.7429004609592174 0.2699146669821093 -1.04038275314695
Ni 0.06532188818220233 7.304103989515301 10.51125251993318 1.285815118716979 -2.5924795700791416 -0.1733453177957918
Ni 0.015359333225502302 8.790838506464803 6.977516793731161 1.4775836762149648 0.5643286046571635 -0.7177219048110607
Ni 2.591687043941585 4.277552521615662 3.5508014460347352 1.2066369684239155 -0.16653703662470673 1.2270489564213642
Ni 5.032895073390363 1.0819380894814183 6.606219673573205 -1.1642469334934789 -0.9107577590572442 -0.3628721304474525
Ni 4.957113341176432 4.484320975899957 3.983795425574887 1.7090796342095598 0.3504012516739514 0.4415579144851299
Ni 4.217416528635721 6.707869707699547 0.3663781664781712 -0.09700463695152327 0.08215934440857463 0.4978002819176266
Ni 5.447275443019554 0.7017253078488299 0.1653026109127848 0.239983940860948 -3.234326935049075 2.0236103972391475
Ni 5.874863856729572 2.481712697963319 12.676399451768635 -1.020766007357287 2.749704071053671 -1.4455605863411491
P 4.780783635496656 8.067399174147091 5.698395119006841 -1.6065440401374784 0.74497302721753 0.11671651355815382
P 0.8910971460381727 8.857990983212593 1.3641935280485786 -1.4034685422671054 -0.26726463095377195 0.3358169261018733
P 1.0359092144600892 0.35513325484388275 4.621240658683399 2.0830550736590254 -0.40746585789742734 1.8180044196374368
P 2.663937362264433 7.576115547157457 12.45028422526686 -0.12961290990484775 2.2281766207224334 -0.09327448048512968
P 1.1921626931370055 3.175862613231615 9.221345666196614 -0.12595114478254438 0.1319058197040825 0.9270621526442228
P 6.984321021913433 3.554613704652591 3.1006472048726574 -0.5729356295998842 -0.48298404284040053 -0.4695369161965591
P 1.9635124674573854 1.8288831058615727 12.357955826180579 -0.26755105184593925 -0.6057534474608535 0.0026528642418147856
P 1.350167975555168 5.452947950372162 5.296493338673103 0.21787399633578605 0.5737229013878701 -0.6057771016099373
Ni 8.992129098256628 2.703450268872553 3.4692712022847125 0.313002499310519 0.69569423558706 -0.24174000432010623
Ni 6.490599699770634 9.129965465643295 4.903287549186125 1.133163838935429 -2.7834860526001224 0.768898941905508
Ni 3.416684649237288 0.47372944124599914 4.3735560010374135 1.3038701764464768 0.9255634566115092 -0.8124647423116007
Ni 5.871147066781213 9.110500979629442 10.360820776334979 0.6916190370764217 0.6731196927206536 2.950509027722312
Ni 2.7494976814996095 0.12017929793124305 0.48347095305578913 1.2344359929140547 -0.2798887474756857 0.005625316606577409
Ni 7.888437128454014 5.402729576456424 3.7982970201023005 0.16665042227411944 -0.2019848359093554 0.23307847199036633
Ni 4.200306318549258 0.07684208326154383 8.876963295794381 -0.8247988383969215 1.1180753200334228 -0.3288456369903627
Ni 2.5292801942600285 7.726900432144766 2.4312134793208084 -0.3349995724069005 -0.0193758334234505 -0.11253692825916747
Ni 6.1940721585538885 1.8926339319583712 4.438685098120049 -0.5703419007307791 3.3388772455583395 -0.9842360307520532
Ni 1.6959777415984159 4.6450883615715135 7.403660201074724 0.31434152983691666 -0.7201809078745146 0.6129497080989766
Ni 3.56782174873342 7.579776724288633 7.386132894859393 -0.39140469066950656 -0.505926767679503 0.3861606686617478
Ni 5.6794960299676776 4.073407138541804 1.280431356568967 0.21204170592472515 -0.8018373445047416 -0.1545019598370436
Ni 9.070589514498181 7.671815936725563 13.35212762134525 -3.410552145495823 -0.6384784484977003 0.15272738443512407
Ni 6.375397748977219 0.2750211379320117 2.5376109942739578 1.021479231374228 -0.006235182276434424 -0.6542310833462668
Ni 6.785088104357357 2.9513258638575315 10.420347808966772 1.1640800688983113 0.5396002486725481 1.4544725441187984
Ni 8.242032688902801 3.344202610842847 8.61804577595783 0.08968599180292297 0.21939480385568666 -0.5197562173634275
Ni 8.785647976861108 4.785000940799658 10.457790065015132 0.9373517074956889 -0.24450676843196603 0.2594412782546112
Ni 6.67843198980431 5.461530861823985 13.028866998908907 0.2593001246910566 -0.774435298342705 0.03000374545094188
Ni 5.426429905379005 3.419780429393777 8.645652905287477 -0.45059328521452074 0.4651917518539859 0.07568530664845675
Ni 2.1582222092159555 0.9646506580436619 10.028118951301632 0.26831929747053146 2.2532268788228422 1.4160178396870258
Ni 4.69919036388716 3.6602965949049464 6.482825027928531 1.7595591310163505 -0.7153076389426132 0.7202714107057917
Ni 0.14302318946921477 7.398312101822346 4.706949278764395 -0.3425814985192165 -0.15594871958589915 -0.7907872573381671
Ni 1.573119759639552 2.9987728657170125 5.576478847418934 1.4875099341897413 -0.7251935305977575 -1.3393200326136547
Ni 8.00748563243588 3.3580316647155457 12.62744070816208 0.9840038601365891 0.899795603618786 0.4552490388189772
P 4.969848676311209 1.9390428278971137 10.488231594260512 0.8872036258863881 -1.4393804256723661 -1.5068973375774175
P 1.3844254709395485 3.4698319648579687 2.0360000671335445 -1.2423377642596347 -0.21279915291603996 -1.403643120171757
P 8.30057444779018 6.000437597927512 8.554110500684043 0.18818572524273397 -0.0021964934306865397 0.9438388578819292
P 6.958729857206649 4.733855686597544 5.759102070243188 -0.9408689766203279 -0.31931507179210816 -0.002513253340156962
P 2.0413982179213863 9.023411307921748 8.336460471837718 -0.3487308059500639 -1.318310006020891 -0.5585209968364511
P 4.646497219606802 4.697596129794596 12.787043005313663 -0.26966681263736136 -1.1496528377293878 -0.01723821825515741
P 3.7673512679811347 2.676552202961982 4.991262391567306 -0.9619350532620078 -1.1115866269852857 -1.5614646313003364
P 6.230257564933926 7.516813746435253 13.583601142782557 0.18648365494996272 1.1793948448785108 -0.2786864996374684
Ni 2.059324082659858 5.165902394485022 10.088175232576944 -0.8978454218709505 -0.5108213767676428 -1.053268607970683
Ni 5.971277944118188 5.680988307228739 7.387205295350728 -0.8967205642378878 0.20373395738997815 0.5614967916353233
Ni 4.373790501749866 4.975289463592224 10.466145890796794 0.33788666414670837 0.3261920014175995 0.2707407624278305
Ni 4.831307879906899 7.627010543682248 11.64775697875372 -2.0232692118496445 -0.7431295462508879 1.3285039158347571
Ni 6.596180633191488 5.293302089847118 9.768781554695353 0.323703687778107 0.07675822799766135 -0.323933544400726
Ni 3.866323544960142 0.742603509118779 11.976633568845202 0.2727163980969626 -1.8735569600917605 -0.7251109981862802
Ni 8.420420068818327 1.2979290026151338 5.543581085414663 1.3697153570760605 0.9215036847198387 -0.9910713085063317
Ni 6.823942925962153 2.506460401609503 6.7122640471372454 0.9475720996721165 1.712777651886437 0.3766946381528416
Ni 0.7309220368696085 2.0113116838256886 7.490101983462242 -0.3686514561333909 -0.6885177724432787 0.518841418858642
Ni 4.681904046546286 7.801078661463271 3.484763079391166 -0.05927884026597533 0.9693478007863111 -0.469270807019366
Ni 8.94414450583105 2.031619630900141 10.851429634476133 1.080801523283629 -0.055125994439866356 -0.4317044187298178
Ni 1.0527413604606397 6.9247967699225 7.7845885342883925 0.35306491454904354 -0.35189943348603264 1.0395175769331775
Ni 8.910795353127316 4.066946782945778 6.190875348446185 -0.26000023608187484 0.3614585379293775 -0.046665779487655115
Ni 6.132990747681847 6.654815080107502 4.930745450789666 0.7668677704080922 -1.0274799290423533 0.040973871309200396
Ni 0.8041761665425988 9.292530999070417 12.360505673848392 1.6225676692592443 0.06237110603805387 -2.165185107491561
Ni 2.957489617761918 4.638451898721076 0.91287883276796 0.47409188255709317 0.07845567030474229 2.1536141148245105
Ni 0.8287459091737989 5.663970785170914 2.923083821531718 0.15650459208936918 0.0008680044272501181 0.08218762654334878
Ni 1.1976683620380664 3.7680371593930513 13.032068443418042 -0.010752096310181482 1.4688928333091864 -0.5985816123027626
Ni 0.6021449974019609 1.8063691837055502 0.37054820088656754 -0.9171207251607947 -0.8763949653066584 2.961241840758784
Ni 7.023880272535872 8.21329940002521 8.687896401219255 1.9180702120127868 -1.8934506136918936 -0.716818676270501
Ni 0.12156405707908569 0.11531317642777995 9.362769060291546 -0.6269182544639268 0.43418219084634896 -1.6811615676430534
Ni 4.416334306894429 2.5475490047044587 2.717656563021806 -0.7512820001546933 1.676586803788177 1.1108631185556996
Ni 7.009884380211625 7.05381850578575 11.373740579052136 0.9435187555383493 0.4825101885277755 -0.2672270928476172
Ni 2.037598008747253 1.4176541292060538 2.6253541165835452 -0.7331271836225374 -0.06947712095521583 -0.2784031640690947
P 4.358052074487237 0.6639326910522194 2.1830403557639038 -1.9680817680442235 -3.1500402598848525 -1.373371722881725
P 8.159113978483791 8.899635714479373 10.943134243129684 -1.872706182055691 1.7778347893970865 1.5704223547142568
P 7.27562095831503 2.1987176089276326 0.8810302992478655 -0.36579110386646035 -0.02801962514137755 0.23323788038636603
P 3.5610833290514816 5.3702980352362 8.301935108050577 1.2382502244538223 0.5274723550607625 0.2636326906281395
P 3.973109422753282 5.927473581784157 2.5618118385511806 -0.656277167242018 -0.11845766461897665 -0.1120964982876392
P 9.132329010373548 5.520795587334734 12.460350145176879 -0.36941275977944765 0.1360787201348495 0.9532475527903389
P 7.557012544455289 7.621996121332965 3.1229757509714053 0.21883713158000376 -0.3317586968720996 0.9662308524238842
P 7.3679567724436 0.26215511267685526 7.051965672093289 -1.407562252720505 0.42910349077186105 -0.5216493206210823
