# total energy = -340857.2972050029 ev
CRYSTAL
PRIMVEC
9.38849640228029 0.00000000000000 0.00000000000000
0.00000000000000 9.38849640228029 0.00000000000000
0.00000000000000 0.00000000000000 13.74101348849341
PRIMCOORD
 96 1
Ni 1.558133639228495 8.834697161105094 10.89593685106904 0.24293171063536229 -0.12055054259226335 0.5207118964084774
Ni 7.128722869095053 8.275020725322637 4.6470728823697725 0.11862890008951828 1.925660622765535 0.0238022446259203
Ni 0.17411529880138812 4.211839088645411 10.849821495611005 -0.2246712217632776 -1.3217097757310592 -2.8421524560930793
Ni 1.8680197398419784 2.309006804159121 0.5801067427944554 1.17515046777986 1.5083471826500667 0.358360358620028
Ni 0.739846375911008 8.02078963135734 3.294147364314033 -0.17109226009555695 -0.6423574718371324 -0.10038898004272387
Ni 0.747224795230308 6.434302733006457 9.570258627259992 -0.5064780121972825 -0.017453419589757036 -0.9206693617440015
Ni 1.2272548606687654 3.759811152564053 4.674046971371276 -0.3069328960776714 -0.4143044780858155 0.4050207387910444
Ni 0.604498995286469 4.083357515436833 1.9885586450977275 -0.02385829467483633 1.651090973509918 -1.100666380528356
Ni 5.4045912250510035 7.612624750448104 6.255884686305799 -0.8242918168535158 -0.16632749171706193 -0.46390337205986554
Ni 3.462543191109673 3.1768794112033967 8.659380134764744 0.8096514412325216 2.809893338949058 0.2331466062241404
Ni 5.999361860369717 0.9888058291487468 2.0720627486117245 -0.0035972304329550953 -1.6555068431894262 -2.0343969463316895
Ni 3.06350392869943 7.351352284184201 3.352395473667388 -0.6303887295110304 -0.05344372164143699 -1.2004578361963971
Ni 0.5776028308050708 2.092817897599098 2.949068484952113 0.689740074886154 -2.0541805567165206 1.0043628834089153
Ni 0.17006791800414897 2.896670347704441 7.193640566289647 -0.42997380919195627 1.6058907228241956 0.30532955614629353
Ni 6.021528100365731 3.8975497832211987 12.786260841804086 -1.107434552490125 1.5224800225070232 0.4992408710188951
Ni 3.570755000594661 6.806387622257633 10.646564303989784 -2.3363616997708085 2.9911507125030745 0.04844858241969075
Ni 0.4218739633498046 0.6094551825350483 6.867222262368675 -1.3856438553808588 -0.6177466152669877 -0.5941824547938024
Ni 4.8211712818776435 6.116323748497774 4.036573699035251 0.01576831857785026 1.3190954780366637 1.450960931421114
Ni 3.0606967682763853 8.575593437509163 1.0892542909621112 1.4401666690190873 -1.268677430595428 0.07895240743550273
Ni 3.11126320987678 0.25126902335168183 12.734608151170425 -0.7962066285815256 0.34575192582739805 -1.4958225678204948
Ni 5.8303313712175635 7.966674338118449 8.555415681050276 -3.4118207277956016 -0.5641311439343768 2.3460912683537467
Ni 5.292652182495952 4.863372573187293 6.525112964417488 -1.0471167294366743 2.8274704286008725 0.5524272252338873
Ni 2.217769396161974 6.180306351451114 1.0940799781107564 -1.5633664763087398 -0.20980973127041286 1.416756003404631
Ni 7.436609219975732 8.527965595281387 7.366900573069165 2.934557132378746 1.2490948804778101 -1.7478035331423187
P 5.178234576891793 -0.3353580301912833 3.8880336032720417 -0.7935889884530204 1.31563297340936 0.11800386491100968
P 3.3584059890614784 6.893024667019691 5.405330099717537 0.504313400445796 0.7056032671706557 0.5323350824697025
P 4.842107628845501 0.8374604506617732 11.267356095925589 0.07662170241979707 -1.823499381313737 1.2725919351584856
P 2.736793642540476 6.7868783267422925 12.928245889382111 1.0715015860389419 1.805028319092743 -1.3604645279017538
P 1.48629286478991 1.4054579108019045 5.010908099835901 -2.396880840201788 2.5883442077545293 2.6242674040136995
P 6.5572732588293245 6.409535879508157 12.441457045386631 0.3183907602056259 0.10931610732902464 0.7524917041920782
P 9.229915305481294 8.513826519705784 5.144402191271446 -0.036135312269976474 0.03772271136175439 0.9773704139804714
P 1.7186957046295248 0.5062953229619003 1.8352632759088596 -0.677167380427466 0.9378702990033202 1.0620293848824485
Ni 8.9498940119103 8.882137233404908 9.452539087472603 2.0406652958389047 3.5027398206746767 -1.069586628404416
Ni 0.6054528665205201 8.214924959878127 0.9832872709659187 -0.7368876791062342 -1.2778637250803864 -1.5083906342934925
Ni 8.181145149837612 9.159792625883568 2.43283262200386 -0.8345003819554014 0.097102081761336 0.03315797480920741
Ni 6.947121183265786 0.8132597234962818 10.60534129400482 -1.0677585740567417 0.2913944341224401 -0.20838174057463468
Ni 2.341782045085036 6.406137243812029 7.15829851044848 0.6263017039258504 0.8471808056365474 3.579417316033074
Ni 8.816342650646726 7.66510644531372 11.447349532321853 -1.171179141836938 -0.8050859333490262 0.38718808148499767
Ni 2.2749171737374665 8.779520967773212 6.128684642855569 -0.40541617445725014 -1.4634708909626666 -0.29146308257684644
Ni 1.420122742175803 2.1109940266259013 11.92303647932653 0.3401633759960271 -1.19366960962997 0.2994039346904779
Ni 7.4895321741720595 9.017547516955315 12.970760756471458 0.574002894522134 -0.23871510145085342 0.4876696212415279
Ni 3.575543133757714 1.8220724384694698 2.376824607891102 -0.15044553037948283 0.20122636047677603 -0.1524481626318084
Ni 9.101997042056604 1.5084121623039333 10.584702562372785 0.2136962108090126 1.0360473589963897 -0.6387838955532612
Ni 3.1272612077392146 4.58491915851479 6.072291700390487 -1.1762727543097613 -1.4992225946409792 -0.619076904042637
Ni 5.308115036063693 5.965084460020099 1.739324108915523 0.8961824323462306 1.3998003493868987 1.3146145594471745
Ni 4.863119083784543 8.249512180608884 13.2406340242857 0.934356629423107 -0.8015619793561679 1.2698218286125165
Ni 9.397321584756568 1.1124617152086793 0.5721039884646789 -2.9097655272563627 0.5815190003935211 0.5375053138167324
Ni 5.557182457010011 3.584781414213486 1.7083514592980515 1.4549795656622038 -1.103589724822738 -0.7116114210379486
Ni 7.769187316383525 1.4466358560041568 8.220465111602671 -0.3592574165130006 0.556167666112926 0.0043029982507280734
Ni 5.12507691028551 1.542961829049097 8.629108805828213 1.6270305901266044 -0.552762497086119 1.6660740771823113
Ni 1.2296113732646992 6.339150322011284 5.078843259772858 -0.1310280450848195 -0.24147749468733895 -0.7871275490983928
Ni 5.493922768279328 2.2111880601868763 3.7881362461972485 0.4350437675156959 0.43658514386088676 1.670522085651336
Ni 6.122689149055715 0.7422413813421741 6.251611042745365 0.7822637932481882 0.6532514930418168 -0.9597447304789084
Ni 6.458590773188451 4.057201164471609 8.386910008846778 -1.0034460280216009 -2.2897542843249146 1.475654577513052
Ni 2.429986968745583 2.16472439151247 6.9876625884122445 -1.5384997949740473 -0.3449695391354188 -0.40332278226333124
Ni 6.7513240908825285 3.36628293753952 6.099320242671099 2.5559313386414626 -1.9076312760676502 -0.8080473299701953
P 4.086906367075331 3.9844497058824047 4.220648314815788 0.14752527140889432 -0.6255049190561679 -1.4040838072536013
P 6.975192787496232 6.3105999044645325 5.279860356153484 -0.7802048538366305 -1.7547293137278748 -0.08221436601622614
P 7.874009878668784 7.356553511188772 9.225056758595255 -2.0071208842245563 -4.175585690908654 -0.3853173468248461
P -0.22550229498698027 6.195130787263781 1.919702473664112 0.7245299288718297 0.6053379571899897 -0.2572879793570343
P 4.896927059314255 2.605392246952076 6.805635603696142 -0.9389509336620087 0.26846276502693117 0.4392197532702565
P 0.9376159913875156 3.9685925354659415 12.758407050690078 1.3574697069394879 0.7342486988214904 2.05861493833879
P 4.53933800850181 5.692808675977575 8.78266517521695 -0.2575144935455436 -0.6571816813341586 -0.5882457775943933
P 8.39073394342974 3.6930307776840667 4.599556763249135 0.1650152006635416 0.12125091109339765 0.1192639625703559
Ni 0.9749484084650888 6.021340330437768 11.960081608414322 0.8396137919225669 0.7679401775366645 0.8280317435119223
Ni 7.23603338292582 5.95426891216944 7.422648525831693 1.4282794306631983 1.1159047947446654 -0.19780756460321416
Ni 5.405980722517929 5.760837720878514 10.826393441699082 1.1632444603708934 -2.465191708763045 -0.15095666568794647
Ni 0.14907899545646203 7.275145858920481 7.00733993801311 -1.0196205808989343 0.891524107638613 0.5780649804066497
Ni 7.617103063230018 2.5275991657970684 2.970367227880939 0.6308551276244878 0.286093590734817 -1.5647852110331373
Ni 7.630547390072158 5.267922882983246 9.961973923630042 0.7231083659339547 1.434017104477924 0.6126267775419192
Ni 6.202040720612813 4.537676244639338 3.8334404355664846 2.660348466006973 -2.3582857535374093 0.612426488605655
Ni 4.179936977884523 1.929880542609338 13.840773001844873 -0.19995186463972658 0.7781852523034405 0.5131073445883422
Ni 2.4905146050244062 4.850510333121838 10.444942588441117 0.4562137167250917 -1.5980347171148865 -0.30769342839277974
Ni 1.7984979240137347 0.049578771779309944 8.605776514579551 0.7612720214878695 0.4111903579368661 -0.07204333902049528
Ni 3.0905427983260796 3.775518107038145 12.794339642954688 0.3670684279169872 -0.03316748789090417 -0.5809942382383025
Ni 7.3002037558071216 6.434086797589299 2.9811405274978076 0.5026568386789795 1.0617342222395327 0.4133513701439268
Ni 4.054375227055768 0.4596786217962043 6.960317653803014 -0.826433802897183 -2.0264200987738006 1.240876863443392
Ni 3.049571400044587 1.6220880766926404 10.225237689979991 1.3770669123451251 -2.004547467070425 1.4663818939618747
Ni 5.912630930643678 8.141309759620293 11.207898748236154 0.46975674551684904 0.24640861344036918 -1.2541216442684402
Ni 7.491682139847235 6.8612352182155805 0.6128397354865786 -0.3188394177072702 0.7571376876045218 -0.2788649341968617
Ni 6.234693911085552 1.552200109504869 13.221877686181491 1.1806577707513344 -0.19200381343724354 -0.4122421962401481
Ni 8.23163648346682 1.5833605290503032 5.208531254768597 0.7639161439789359 -0.6821170111232575 -0.10014909611777591
Ni 3.5102555298050326 4.239309829106376 1.8897052888224075 -2.26537919791466 0.1368716483497901 1.125193676245759
Ni 4.226607193479689 5.515873072858184 13.753655266067229 0.5672763744315779 -0.23072539837715747 -2.894934118670485
Ni 3.691782107663114 1.8757558608740477 5.049245086028075 0.04156985302198647 1.170006204574759 0.33396984559080545
Ni 8.278738569896301 3.5880955534420305 12.715164575129874 0.023830012540062184 -0.892010046136096 -0.6713633721511792
Ni 2.5952714478348784 0.265894423040708 3.9034100826729197 1.3076568971824187 -2.86128120650273 -2.7643400757992906
Ni 4.93202125885051 2.8787477080803874 10.934714157742288 0.886159758002906 1.4003047998271434 -0.5609002957019049
P 7.408124521903768 3.0889936964203866 0.7658872483705353 -0.43105804339507053 -1.2058712939024845 0.9424620321390607
P 5.7214435899919085 8.187125622043228 1.6883304907290133 0.4792803687365681 -0.41167192555897486 -0.7450455323266781
P 0.3016336122795163 9.340690174482974 12.624473577623098 0.09017630117578018 -0.18097378087532703 -1.4480926087343833
P 3.505091856786054 8.166161109586177 8.732221722919371 0.18955020969042838 -0.20272634206107024 -0.2733676585277163
P 1.4141892124521769 2.3659104808282616 9.354401134622822 -2.2460797262550996 1.018464098696988 -1.6358561588380343
P 7.371499997454616 3.094345139367328 10.263973687269086 -0.0097899895072283 -0.6616605430411185 0.07667312448302278
P 1.9339739270389282 5.289704194626936 3.2461909247123217 0.11009926535195232 0.17634785206754144 -0.3140476527455817
P 0.4726206640810434 5.1852102297156115 7.459432654719616 0.16617116864485576 -0.3707260792742325 0.29535084766702685
