# total energy = -340866.44567443547 ev
CRYSTAL
PRIMVEC
9.27759744933399 0.00000000000000 0.00000000000000

0.00000000000000 9.27759744933399 0.00000000000000

0.00000000000000 0.00000000000000 13.57870166102130

PRIMCOORD
 96 1
Ni 0.34321357750828974 6.012226295426249 1.3121955236293643 -0.03990043573936354 0.5777793308454306 -0.20924871656062027
Ni 4.028945051609052 7.766573549261487 7.748496151000835 -0.03577432938613194 1.2057599651356006 0.22018438963651757
Ni 7.069464168760015 2.4709952541657763 0.5440995354545266 -0.34714443529955047 -1.0534917797250825 0.9185420309883536
Ni -0.2099306875147816 3.7850834076361326 7.0809665338426715 1.8789084542116608 -0.7964704237658734 -1.426249287607047
Ni 9.165208446560081 1.9227356440999712 8.695460503305036 -1.6348187187124552 -0.5930069464284626 -0.5899627602855001
Ni 3.959817674426544 8.939419562049183 12.37981054317382 1.3169396080359255 -1.1622165333270111 -0.6446616944902769
Ni 0.17356343401622928 5.97390054114616 8.473014337086832 -1.6217726841617746 -1.7860294093927371 1.0596390302734007
Ni 1.911212868303343 8.738374029430078 11.364830269838832 -0.2790461969697324 -2.777315405013036 -0.9174845362581167
Ni 8.333527517805718 7.6290702802745125 7.413156470286909 -0.9693359737117693 -0.19008037116228552 -0.6961650045758915
Ni 0.34990736393121014 5.845609926238132 5.8620479730629835 -0.9184139900509215 1.2438606286620644 -0.4657851624636107
Ni 2.350080329079261 3.3414658170632157 11.855672685983404 -1.059771442086207 0.16327379249240268 0.5057185083234387
Ni 6.609017016757884 6.936915136709754 9.432363353973091 0.06311466907229776 1.0020398917026936 -0.4035107299044212
Ni 6.147029783610632 9.017175104683272 7.471449469389463 0.5531921284243699 -0.9076225558623724 0.3817337432386458
Ni 7.668778396546306 3.3381815476332584 12.02334299022023 0.44405034188968046 -1.3412074794443547 -1.262527094723316
Ni 2.9034890056242353 4.171319059157404 0.6333231160614113 1.6743435162799554 2.5994035508924846 0.3742253506767426
Ni 4.445806051684808 1.0685658195879388 8.705617616785027 0.01740379729874422 -0.25827913962571003 -0.837114422539481
Ni 5.735874505849632 1.0488787582027177 2.328733505544268 -0.2569051420963189 0.9554964967255156 0.8735058166843214
Ni 7.809528824574199 6.9869770515234455 13.208654382686147 1.3925323549705761 -0.8487540636609382 0.5472055718236317
Ni 0.9165765102395667 0.828768690974522 2.2102734326926856 -1.56816544035928 0.05405641552477142 -0.06267912419677593
Ni 6.241197395797246 7.917659220636758 11.978193563155584 -2.098302229626083 0.7579329298123075 -0.9531711910264488
Ni 5.6087621457935946 4.698731908180518 1.1857956830428757 0.2090412285355045 0.05109090513854427 0.35401133762271286
Ni 3.0814518762610454 0.3301321653720213 2.796139783250948 0.5132554401304322 1.028855983454273 0.9984994826496029
Ni 1.9342676974938589 5.460366977623655 3.0204331190835716 0.8935064281759644 -0.9728630130284213 1.106550864333591
Ni 5.270658668855983 1.6727229531438275 6.6069889339969 0.2953835006771751 0.5266408602984026 1.4828256413401946
P 3.473996293918957 -0.08333694514556395 5.46754598238326 0.5505865724807227 -1.2015950351246338 -0.011632699142921902
P 2.4561696537446718 8.723335044272 9.0950141456927 3.4987332706184455 0.5285594174773542 -1.3333111074154134
P 6.28444027662501 6.3631143013878155 7.380214505696661 0.8191143864176345 -0.4848743178845779 0.20173955266776866
P 4.589692307586501 7.376691802017129 10.387122743494949 0.1775364730590039 -0.3912542811345713 0.2581446709303748
P 4.560820424914112 3.0020820317037566 1.8141005467464804 0.012769640960842524 -1.4414779316313433 0.12143037409405541
P 9.130241182488028 3.8839269288416673 9.739459245349119 -0.7020839411634876 0.8464711811640324 0.9453681500422622
P -0.08728734605877184 8.254640108305937 0.7292497606884762 1.9641988880500494 -0.1956126138344244 0.8507055309603542
P 6.980139462342998 1.1727532368150981 11.790617246238206 -0.73028122953331 0.8416434207580861 1.224895143303155
Ni 9.164790954683392 3.4447347521616583 4.62516334518976 0.10108883432322589 3.276669661681344 -0.857635168200652
Ni 2.589794887077065 7.01482839849726 5.662182550815321 -0.7363809146731447 -0.470984447276363 1.3588115656793631
Ni 3.773588464631284 7.51865759528605 3.8411024676503187 0.6413724822160438 0.6992582987892344 -1.4882673811810563
Ni 1.891330977375667 4.13517354023336 5.279127259634697 2.3396190303658417 0.8257213502111908 0.7626239075300737
Ni 2.7020816467119997 2.0625212020128485 1.017025983530767 -0.1508427658179015 -1.8605150393061376 -0.2541633176851235
Ni 4.325021012959929 5.436987432529048 8.420383455591912 0.6736238860505818 -0.02570280408274283 0.6203354590400865
Ni 0.9286225425216454 5.204277460462365 11.967167138812353 -0.9913888397467506 0.13755324779784697 -0.042461254488004294
Ni 7.275723711039107 2.553463816207826 4.8096168228695015 -2.6495459760748306 -1.212460259973912 0.6253036016786392
Ni 5.607027235106018 4.069144880535614 6.73545675101259 0.3350941890032358 0.41853959921308564 -1.0050840778456562
Ni 7.8853639045755175 5.472214469324375 10.945614615578547 1.9565974215537076 0.7978377364270454 -0.2416767551823386
Ni 4.9275731221898775 2.5359384349841307 4.626155120336829 -1.00281250820266 1.423568398340774 -1.5582332688472325
Ni 1.4328877863816456 8.950088798897912 6.926468562195259 0.9309568597129385 0.30898797883448725 0.6465388569083317
Ni 7.353154537769106 4.292178318660361 2.9925010570135973 -0.31215146416413336 0.8903069474020602 -0.09462328120354026
Ni 4.943901693367064 1.3970577057644336 13.547973224864785 0.38301132439948876 0.597326656849739 0.12971189737655725
Ni 9.54210155764077 1.74442950236455 -0.0639727441449827 0.05826813961327384 0.6589117766513878 -0.1543615776044374
Ni 7.62168531285574 7.102650134158194 2.3532838834130576 2.00205401122461 -2.113542700724921 -0.4519343726234475
Ni 7.266325505014966 8.987950673315014 1.057344565702253 -1.1127400238634386 1.2523282998134433 -0.8402884493920882
Ni 2.2258625793682687 6.544556270997038 8.790959450698427 1.3537205243097008 2.3751761015348447 1.85230165025741
Ni 7.476481638143159 4.607458906338951 8.284256982038286 -2.3108334735927167 1.2587452590833805 2.0081351844216835
Ni 7.269210837762752 7.533084259024985 4.791624778503639 0.4413614822036076 -1.438572327948774 2.413016569421386
Ni 7.291347184824551 5.24556276826832 5.327141608733157 0.19327368128860262 -0.8504368506799999 0.3619277642563122
Ni 0.028245644857354153 3.3725921558697265 2.119825209247512 1.8125349118824334 -0.1660886362333785 -0.06866902323162367
Ni 2.1011160066134704 9.138897180731387 0.18579594600322927 -1.0842280324666747 -0.4152946099132267 0.4503312898023857
Ni 4.461828462152422 3.8148088292564193 12.061254035902808 0.6995192657601049 -0.08178679156050431 1.3643630916252114
P 0.8939725722758756 4.117852266149379 0.27309999173706867 -0.7145517346131952 -0.9948516014843705 -0.8691285135522323
P 0.9841675173158576 1.822630369667108 4.175464289613067 1.5545329371775098 -1.4559095336756411 -1.2339713945728101
P 9.17707449345532 5.6763772746227605 3.6057558024424115 -1.1986794041397357 -0.39477386425205563 0.13171812917330863
P 1.8386713353292417 1.360309143018505 11.961056913257073 -0.5959524022100317 0.5974564975593839 3.3693838987876292
P 7.918141655694266 9.103252652059371 8.94025732908174 -1.9872591123036225 0.9452689054602365 -0.4726597780962569
P 6.113908761393272 8.185447787942612 3.212530409145633 -2.0643238157981094 2.0865224633823356 -1.3363182696728535
P 4.178267979504968 4.6896862508522466 4.779879340372776 0.02169908223998844 -0.4281830358401206 0.055982686013206814
P 6.274420471584463 4.9526597451802825 12.464120708271933 0.9797137174016675 0.4426385491438183 2.1284874949602117
Ni 4.511556383464761 8.547329746657 1.3076235236997522 0.32214997013774194 -0.30871287079622967 -0.6953142265398219
Ni 5.7158441733658005 6.035531619742779 3.4804924675202438 -1.2707042312174697 -1.067893042752077 -0.21347792415061945
Ni 8.02608649981163 4.6267006430557025 0.39773801660392794 -0.8306486123094791 0.36527636901357086 -0.5156339676649376
Ni 4.7493226460380145 1.6143297559908671 11.000825596871408 -0.6358718641127888 0.17836333983567346 2.172170023449827
Ni 5.733471608159353 4.965601993357653 10.487577783344504 -0.794014248915897 1.0995777754498677 -1.9769865267330209
Ni 6.356944699210073 2.6170153574372157 9.719254494036802 1.8794527567509052 -0.04090599418574246 -0.9435496087762847
Ni 8.226760928540346 8.66059065400421 11.205361361579635 -0.26326785108955303 -0.17584622984077458 0.4297130993314019
Ni 2.0433072980878753 7.42907311614576 1.9235585669769124 0.21241657276564063 2.0946448353791536 -1.2321541388584134
Ni 5.750403223158425 0.30162396451221574 4.88030747519028 -0.5521258919433846 -1.0363042122022024 -0.27644938277683356
Ni 9.123106710195268 1.4576682486624777 6.006756224081892 0.24460986966873358 -0.3593767156996843 0.9333343588061798
Ni 5.010997276749683 6.597522073753035 5.781186290866324 -0.3555763681169876 -0.483007182768852 -0.602731372805078
Ni -0.1331511481124195 1.510596941029436 10.949050109843837 0.295816988670168 0.9496863178016419 0.5406034931260819
Ni 2.9540704658844734 3.1607846104292943 3.2987693867140515 -0.4818010782758928 -0.4226430798584979 0.14520176548204025
Ni 3.0097267718458025 5.749187857917396 10.907499462756256 1.1513351105278171 0.38933803794846494 0.008978292239210343
Ni 3.405564736530931 3.4827821785239537 7.378068597450477 -0.9181874758624121 -0.46718255703176964 0.402866668562519
Ni 2.684964479767734 6.408704414322301 13.23464464364965 0.3314352520944098 0.8067250116143462 0.3812169515032273
Ni 8.129754371592243 0.2261089616163596 4.025786029742102 0.3576880151433517 1.508751102956705 -1.4739954446430743
Ni 0.4975000199381796 8.434541996770038 9.456451707498346 -0.11974321619961957 -0.7699438382302546 -1.1428859513191996
Ni 1.2244758415382873 8.346302769232414 3.859256869968227 -0.0020026322523255835 -0.23538526574667204 1.3243585262078161
Ni 2.6026443592818396 1.39956265702457 9.998581609054625 -0.8118163100943245 0.6840782486146864 0.2338634297855069
Ni 2.066918783113977 3.869296157963018 9.546179989396162 -0.03215447324535753 0.39272315237061395 -0.8181332534512877
Ni 2.5195263654316062 1.8390795496086711 5.74942629216697 0.18620031938158899 -0.33632857563096913 0.30361463033771585
Ni 6.098127568454411 0.04142725504402809 10.08938238119567 -0.04672311508815179 -0.6644679305829266 -1.1307727129954332
Ni 5.317009544765768 6.573094160168075 -0.10346562016034981 -1.2290595590934896 0.542859121929478 0.505852977018774
P 4.38059382054592 3.472335604009459 9.812485996659905 -1.5842957702622393 -0.3679973674891598 -0.7050972740685147
P 3.9495102638709456 6.485884745926285 1.7691144053936063 0.480557692787095 -1.5118467111628933 -0.560032548384971
P 7.737432616268566 2.0266261782148183 2.62764191733855 -0.4788715633339236 -0.47274591005216 0.28036491578115585
P 9.122076896899435 8.397088336632368 5.57070265855486 0.2717370649028288 -0.09653489640395632 0.030131529278057786
P 7.243558281339502 2.5175966252015756 7.591797533283407 -0.940626778702535 -0.17647846410813478 -1.1566824908826596
P 1.9277548242175038 5.265676599127489 7.311899846034109 0.48075952438525593 -1.9656176227744468 -2.352082710050491
P 0.36530353658378995 7.092212837240958 11.118132464383601 -0.03733627455661312 -1.4149068660110342 0.7693596835920106
P 1.8363797688060797 1.9315586390940074 8.05802277285892 1.59142312533564 0.29767409648356474 -2.5865686039113456
