# total energy = -340854.24427671626 ev
CRYSTAL
PRIMVEC
9.38123836395433 0.00000000000000 0.00000000000000

0.00000000000000 9.38123836395433 0.00000000000000

0.00000000000000 0.00000000000000 13.73039061575369

PRIMCOORD
 96 1
Ni 4.655439458512947 2.7951117790338684 7.527494277044712 -4.297974058040604 1.003566098539233 -0.3596186565071613
Ni 5.74299702221259 8.59013714832336 7.273592003189384 -0.22948201288835962 -0.7493421028195031 0.4014571898095021
Ni 0.5535868663916352 2.489227126168834 9.684813195571857 0.008453272973675763 0.9537548314440606 0.6105783796533226
Ni 9.27804458331346 5.50419760374116 8.295490280702362 0.5922433287895607 1.625095834997737 -0.8661565754081018
Ni 5.74587706234108 3.254135764333694 13.28345241795933 -1.0794709773976636 2.5857831318955724 0.6842805944334797
Ni 0.21480127302292212 6.539323427121147 6.15008928718901 1.6311371560958101 1.5330552269197082 -0.31894380449561843
Ni 2.592392602693301 6.287915624504142 4.710018564257395 0.26206637458228416 0.28820703753339394 -1.3612620841023846
Ni 7.660278198825435 0.22032213170571277 3.9335513025019386 0.2663891703273541 -0.08979037859127116 2.6612054146906297
Ni 0.7916170233303739 8.825446746183069 13.238251736046974 -0.35642663193242485 -0.4681634328878002 -0.5895135885632234
Ni 8.993033185451331 2.7638910182924454 5.007857867239063 -0.6164258395730352 0.28469053973970326 0.8846176103267669
Ni 7.361588955662526 7.943591592572722 2.4939881045571366 0.03928465653223557 -0.7833673107250122 -0.7249968412059191
Ni 3.0064804569981103 0.7952785206012204 11.829802352728073 -0.43877598086461855 1.0891977177671242 -0.5253252268107726
Ni 1.5927841471519641 4.352275364726943 13.535624791489925 -0.4504714149246758 -0.9471185570744658 0.9783068097518118
Ni 0.791023190952089 1.081628621154997 7.625516020662171 0.9940393899957203 -0.05668562561750237 1.0770798514576674
Ni 2.3539215275589953 9.066225605915447 1.365238462029516 1.354662576507996 0.3775114776271821 -3.325891117711317
Ni 6.4206132388933925 5.592718967429882 11.846621974703224 -0.022884103687025103 -0.5837797714032398 -1.5271594302605633
Ni 1.7675097086931302 2.2041219159246688 3.538994248013106 1.01844404409233 0.7636947719967493 0.4692625794892498
Ni 0.3582225808026536 7.744071418459567 4.046386959366628 0.31414046956970415 -0.5412418980410292 -0.8213682154488177
Ni 3.829271334878889 3.69235216329804 3.6275418791687972 -0.2885358816277224 -0.26506685197150476 -0.5218223558638369
Ni 1.7940867565237943 5.910161305761691 9.500290806974721 -1.379652156573798 1.99017345773694 2.4638369945073633
Ni 8.833645948372974 3.9563308251078046 1.920757863491083 2.3816876774011178 0.512747133035446 -0.23703488553495305
Ni 1.2664671574795927 1.7051338558777094 13.595887051338085 1.1842416314478508 0.7501206328567404 1.2199881929198408
Ni 2.82630439606068 9.283814044808645 3.390143079561158 1.8203459232864196 -0.8294772177091971 4.014398091521318
Ni 4.066860573622061 0.6675895492888464 8.841451138558329 -0.19196910354456617 -0.957524325788822 -0.48502087076477113
P 4.01789989143772 7.669105943974979 8.681712105047337 0.9455273013279459 -1.0257750305361044 -0.6476269477661879
P 8.94909146570589 8.733726380266935 11.253606702265875 0.5316691667509296 0.9046056234129196 -0.9509065633619882
P 4.202288128328545 6.607149779332831 2.965146721473258 -1.3464828689106811 -1.3055748178424096 2.045378127933542
P 3.086249125442918 4.169678944332996 9.395403873239902 0.37433205145793597 -0.8829255673363244 2.3771391387984866
P 4.289383543810327 1.3939112784748537 4.1315976840933155 -0.8724699192206394 1.2893732683818826 -0.9302312944008237
P 0.34697635244423486 2.7356253475851413 11.998328792064331 1.951225615718833 2.0557643562638725 -0.826489595835783
P 7.374506920668818 6.821323447519935 8.535854489706145 0.15774180693057996 0.21828691550348855 -0.5313020132194979
P 5.3652614659465465 3.1261381502844228 1.9606450120849477 0.8326766984831014 0.5249776136633668 -0.5132238155615484
Ni 7.248282360640019 3.460870110625381 3.3998779904449843 -1.6540346295192738 -0.41364781833842307 1.8268317881210796
Ni 6.497576917115337 3.9381030792783025 7.53319244112955 1.0546816862681256 -1.448859054586763 2.4409999420081894
Ni 9.571208277174478 0.5577286830585036 5.461839437004478 0.35776591956913867 -1.3799306070461654 -0.07870712419391605
Ni 5.2285017754151575 7.431357224182347 1.4590048759978438 0.5783467733131266 0.8009060909397239 -1.546937384218439
Ni 2.7596413173862357 5.685705800503494 11.73583142776691 -0.10123513009310306 0.20082732526614447 -0.3562579675650445
Ni 1.5810482181593197 5.610890425830163 2.383760431913035 -0.39030554406805684 -0.3315105854170355 0.6864261800215726
Ni 7.830041085356922 9.093027803462997 8.425186836990296 0.7119927156367674 -2.969973564204827 -2.5123208010403633
Ni 7.866928113973291 1.1015825148139533 9.95760834504532 0.9123181615658287 0.9650072644294283 2.443989877874449
Ni 5.560982238587263 6.001140553859745 7.4390160670517265 0.07669626441147437 1.4585636834690365 0.8053931801768001
Ni 0.557042914545824 6.44117691303558 13.037404116728014 1.8945021948848597 0.5338502335626484 -1.6576670840655385
Ni 6.3703110396459435 5.472704787091833 0.3475148355171188 -1.0015374981449785 0.165455887745386 0.22953523472379822
Ni 5.66982336422488 1.8410492349707785 5.746676343836023 0.07575009844812115 0.5402808196793405 -1.095835534798616
Ni 0.9687160381370387 8.068183817154104 8.076394276829854 0.390869644101643 -0.47463438532412444 -0.551586731610463
Ni 7.555564817997382 2.88936507926496 11.391253857931321 -1.063454033144117 1.9724901815245641 0.8575436369281103
Ni 8.621723777354722 5.532791617785588 4.10469979791609 0.10809354777583319 -0.04332154560577055 -0.09991178329598922
Ni 3.011527563151622 7.8268139394149 12.826834720258715 -1.248992550571991 1.6721177122732298 0.04944822732879871
Ni 3.9951410075559015 4.947392972645706 5.95570815536376 1.3689160011032167 -1.850174319501762 -1.5593172459400306
Ni 5.540803195211422 1.1849160537761105 12.741500163187741 0.8642228487204987 -2.02858188231181 0.06999339847000204
Ni 8.725114403596073 0.2734912373481671 1.2366986124120796 -1.373819609052421 0.07905165201752838 -1.4527239368588076
Ni 6.7227266340005984 1.3634316355515117 2.278640843470768 -0.23058064526917707 -0.1421326396384133 -1.1713712032430859
Ni 4.202138028517289 2.5723730403669203 10.331075437928746 2.526094200675372 -0.6370106057029222 -0.7574102245396181
Ni 2.2457652323102386 3.2283092155593134 7.6801626713216855 -1.020611998277926 0.7860070623407044 0.3186355292265803
Ni 3.11202876802628 8.384209588517178 10.369053504548189 -0.6836403897463194 0.1748499273657763 -0.025810019084568453
Ni 2.6301239427479897 1.7511863542189487 6.122106929875453 -0.06258733581391801 -0.62276592285845 -1.7264201823705363
P 2.072869012218765 3.4483649201000452 1.80112549954792 -0.5260217386571651 0.9114599273305916 -0.179090190699369
P 8.813645148523 1.8311145037132164 3.0570162490768276 -1.2185252352210691 2.573363932295613 -0.5412938343248871
P 0.9809397915162676 4.672410118423174 6.519436140253435 0.5154331645080413 -1.1144649769743453 1.829780329226442
P 1.448294316340848 7.381570993036093 11.222411270867603 -0.9342381015673717 0.07521325210804465 0.05306911191083764
P 3.7393146417450236 0.7829862841831055 0.029997447279679595 -1.6102754821554524 -0.6244008873587118 0.27611565358649864
P 6.221393264402751 3.9158507822594752 5.48840804172076 -0.48741585335950893 1.4945305884819486 -1.778473965642982
P 5.726664286500204 0.8445412786557154 10.653958894418619 0.1057751840553017 -0.5425194792018722 -1.6192992829206179
P 6.548920433803381 8.808438561320028 13.97135891482561 1.5106364929048757 0.8720662560243175 1.546596970159885
Ni 8.099076234558401 4.0804727502554154 9.335237302021419 -0.7473430701116032 -1.1638468698415827 0.42947578650961515
Ni 3.160295238583558 6.1739992489984035 0.6364597865579981 0.43603775599784905 -0.2889385163827798 0.8273336890036331
Ni 7.709370218344627 2.5908071734369007 0.47944506462131886 0.3110975689783223 -0.0895785196907812 -0.5696536164145027
Ni 8.657616394721513 6.379692277849497 1.0904460469425161 -0.7793278505483159 0.4695675123241784 2.4691200972831733
Ni 4.485779765601699 1.0023290146203674 2.029845715693453 -0.39388323411698617 -0.21791616242763115 -0.3474205717790726
Ni 1.297969355367122 4.236238829387202 4.583643904417339 0.974801881922347 0.7594118283506792 -1.4333190499696349
Ni 5.572746311294518 7.879536498118866 10.270538307801225 1.4448190801894343 1.6895130249315418 -0.1784859814564668
Ni 4.756193956819102 5.772435347695337 10.00471717080828 -0.9663766339731291 -1.2007092900855707 -0.5378128177548221
Ni 3.62659906472934 7.400605525351102 6.670374634205674 0.13890102007499305 0.14501536050284702 -1.0172394822612676
Ni 5.187224327319526 8.409914181194912 3.748739971768133 0.16003497384013085 1.580876203057729 -1.255884649706134
Ni 7.674922311661181 5.418950292185477 6.373317726490183 -0.47708721773999124 0.30634359923310467 -0.8250459214107211
Ni 3.0824591052086823 5.52363552929892 7.880132206744792 0.6339707904353339 0.4177541271973128 -1.7258398843870342
Ni 4.138120459016246 0.031823974357911275 5.648682743933174 -0.559810662182152 -1.1691196882047477 1.0822117733675942
Ni 8.289665469901776 6.63973081961377 10.580652960972238 1.0731347507669906 -1.3815378036322852 -2.429573959559435
Ni 0.7787159445528484 0.3670972321432144 2.932770192185157 -1.1258408229114547 -2.474657739271951 0.15348637408833568
Ni 0.4192981940030621 4.740630482639407 11.092274734507923 -0.8503340065535485 -0.30325030501976163 0.7179414770210345
Ni 7.724764830236656 7.6569947654541926 5.432593426904904 -1.0269633944172507 1.3281568169079836 -0.022010957053452417
Ni 2.528365651954055 3.398447351618943 11.489384423911941 -1.5710407050245458 -0.5756890239753053 0.3379655970137599
Ni 5.23188840240664 7.76029157931351 12.728895531537447 -1.0182648382019883 -0.7965658116931572 -0.36016630148051515
Ni 6.123753337180176 1.6434897396421657 8.501899098028385 2.4214711279466425 -0.6951003107568029 0.34432084980782635
Ni 6.986057990374318 5.4780802365824695 2.4148320309670215 -1.275949281666493 0.8079668544412473 1.950745847868937
Ni 7.360791550415224 7.764166030691577 12.155542396250926 0.10713298363477679 0.9653397080681828 2.5417833292758547
Ni 8.530378660966731 1.222009469632957 12.422172195977016 -0.8141662983837397 -3.928261250522235 1.3832804973550048
Ni 5.58439780914333 6.6564294236160935 4.998410960368085 -0.13366831092114398 -1.8125889050488202 0.6108935969008963
P 0.9171257948842423 7.656581990973236 1.6993146738200455 -1.0445253145604139 -0.597620533941074 -0.0654641431410808
P 4.393609100251796 5.1583301136525845 12.88906047326288 1.5490017229466355 -0.43710862046452464 0.6456721380326622
P 2.0792576354353844 1.0636447875187867 9.60689356917697 0.8895011636713134 -0.907149987101328 -0.1070576503121511
P 1.7894242811366288 8.047423137009641 5.719215583366584 -0.4199375080018768 1.6801850626623966 0.650364658412325
P 6.184299848545905 4.039242208350802 10.280135314483458 -1.591251375644466 0.30945514827889287 -0.8953187987943547
P 8.498304207548784 2.301958849149518 7.85659843258736 -1.2935209720016692 0.585347887221308 0.8518859244217005
P 8.285837924714725 5.137691389604769 13.178264346478178 -0.5295603479380429 -1.3612224891137008 -1.3133614037663641
P 7.156167982719336 0.6087147745709914 6.463732224048381 1.9448400239074632 -1.560957609756931 -0.46038610293522647
