# total energy = -340888.04180120974 ev
CRYSTAL
PRIMVEC
9.11822500393681 0.00000000000000 0.00000000000000
0.00000000000000 9.11822500393681 0.00000000000000
0.00000000000000 0.00000000000000 13.34544397756738
PRIMCOORD
 96 1
Ni 6.45637802027396 1.7403135340762526 11.49632550433819 0.19567072076586947 1.2448237639062818 0.4998080563762747
Ni 4.730115670860953 0.36393844829297595 6.043924232436711 -0.3440007474642463 0.9318983976906015 0.4990403249723147
Ni 2.747494426699652 1.560119172418214 4.741783351519673 -0.0010040157844821418 0.3573056921032685 0.0653561568083068
Ni 3.421385960587872 4.064211702037627 4.390557532465825 -0.41868383810043375 0.3578389388989192 -0.1728256978468959
Ni 4.939460997715871 4.593907626409592 2.1908413820561647 -1.3399062441344278 0.14396172242735208 0.8635939568872482
Ni 7.191434607193357 5.987135927386298 2.471162060176644 0.6457022199396493 -0.13012095988951783 0.5177895805553598
Ni 5.235374752340318 4.538842665876605 11.498261303497182 1.2355731918422912 0.42971901286867287 0.12389091981940599
Ni 5.748147251186663 8.089333573672056 12.563868134373797 0.35737794010210067 -0.5487487479410356 -0.44244057420039934
Ni 1.782093240842629 6.792585210996316 0.6045884650803096 -0.5064124490666698 -0.08358579244245605 -0.5552232999217858
Ni 2.7326408382399343 1.5005498087550235 0.3380508958092528 -0.0855881675844655 0.07464195298560694 0.7522698179892593
Ni 0.4343895016233408 0.3420227946017962 5.012014713721995 0.801975926965135 -0.4202457832709149 -0.40380743520923357
Ni 8.617251444176835 2.5482338566504104 1.2816194038222315 -0.0556813527227041 -0.3679536587354179 0.8477091673361917
Ni 6.915517119906026 0.6841486251456395 4.814502107397571 -0.4273011474557996 -0.2932613121278498 0.08499938496053104
Ni 0.55685729288259 7.500214177236258 2.7446905725244752 0.7799572566021986 -0.895693151414638 0.09437928351353424
Ni 7.631571326008939 3.713169159305473 3.757449995178357 0.1439347258441586 0.6216096977668197 0.24679042225982017
Ni 7.719206586098779 3.875674164541257 12.480071646992085 0.6283917536856596 -0.2111022248295913 0.7935892455633365
Ni 8.123864291595291 9.072269106127015 6.934986353840458 -1.4927670688236225 -0.620244441988177 -0.2144084063846888
Ni 7.00866890609662 0.6331458338322987 0.33479295403107157 1.1270677533400204 0.7067692624542989 0.46527762669957284
Ni 1.5448187909354596 6.406419265718531 9.152719204948434 1.6506983660571892 0.5829194802854736 0.822054699992881
Ni 0.15930268462985836 4.929704497008752 1.356591273087727 -0.2582104911713036 0.2733445185992648 0.2494150043668608
Ni 6.432707108277995 1.7982142625717765 7.195583399550124 -1.3510694598400992 -0.5010169890827113 0.4296027990057827
Ni 2.9674989585327234 4.624882236598458 0.1656827066343179 0.9536347609264285 -0.08306334428008275 0.948046982426006
Ni 6.277916121358308 5.552333370172273 4.6916176132576535 -0.8520677014152036 0.23217164390538078 0.4265578415318719
Ni 5.312250506977447 3.015825550820326 9.553896483977745 -0.05731297478885613 -0.9205940284213758 -0.4865779308392459
P 0.1659343696432118 5.665727615773901 12.552310784237093 0.30828761033335295 -1.0504735617240488 -0.4314431946486311
P 4.197766343025649 6.153926498353247 12.602770129342822 0.7105647249409892 0.03989837885683451 0.508974296256575
P 2.620541380582616 8.590407389894816 1.5024837842690237 -1.0534809810918049 0.6499807927103451 0.3058149804231443
P 6.472799943426786 7.8385641508241966 5.9538699072650045 0.34566296565801763 -0.3388228028077326 -0.43090891941171594
P 4.662385495858629 1.1298119001094316 12.47377277718977 -0.47246386003536694 -0.5380141351323509 0.11890683634125326
P 4.289140075349057 6.315765873166956 8.076155914959973 -1.8247664209516188 -2.1281630217412575 0.06142699695722969
P 4.656549831884277 0.7718294763602785 3.74665310500331 1.0912998517117916 1.2866882653505518 0.6183191999410061
P 0.1436621933560989 5.462190598218455 3.7867432046846123 -0.4568917166287228 0.9620065299298917 -0.4012023934862187
Ni 1.312221990432732 0.9298856996381152 2.7328131726916767 0.3910961582901522 0.5052569953059879 -0.45503100927090023
Ni 2.035315466204707 6.169837800908316 4.832251644104561 -0.14935923929383954 1.1140908814643782 -0.22108838950802567
Ni 6.1015605324083975 5.502101068868046 9.212172767154632 0.21848334778501083 -0.2557532878800628 0.3122342536859268
Ni 8.94263530187176 2.675661050465363 9.967138086451529 0.19157495342994102 -1.8648823151358978 2.659730372807
Ni 2.360197821526836 5.336368211996449 6.9782258884229185 -1.4815166927207841 0.7122829931836765 1.385460535725459
Ni 0.7615322649130353 9.04971061757616 9.758108250180223 -1.436120523974172 0.024490528942196534 -2.4115926924906663
Ni 1.368645566484748 0.9763157011340535 11.735889540532797 0.261104267779331 0.35606513482794805 -0.04483541114713569
Ni 4.384398171505395 6.934729219896588 1.302833866013993 -0.3278490774050483 0.3798259846929717 1.0192554842500317
Ni 5.7161058086774865 7.72157732458836 8.144057512591543 1.80908963364631 2.5143113491078313 0.035984388514408994
Ni 5.123886215755315 2.7136475756484106 5.094703336771076 0.9711077209002114 -0.41343030301097833 0.07637487651631363
Ni 0.8715965347592984 7.811829515241698 7.224035908715073 1.1288418145213075 0.022208931996871427 -0.133464422440454
Ni 4.507047415441346 4.920030060326272 6.4615170518613745 2.325344008504066 -1.131591866462619 -0.43640645219117746
Ni 8.198916401240433 7.220138779367201 9.26181785477144 -0.461580894574276 0.6241679454122991 -0.04335574127781565
Ni 4.624462798250302 0.05489080243625273 10.323154620899324 -0.26432277471662863 1.3780557586209556 0.2672366059293139
Ni 8.517680427614454 7.144767531848461 5.0883379039265515 -0.5454721340722929 -0.13402055205424016 0.07025873631624674
Ni 7.026549745243033 5.790309923401356 7.062021463982134 -0.1386112567487161 1.2511656469639096 -0.7116250478847035
Ni 2.401822518468894 5.406304997439073 2.5446823080285195 -0.4403132434447513 -0.07937818211901168 -0.42450610120916565
Ni 2.381543586158021 5.730549077014008 11.36716858324834 -0.8378063064001829 -0.26001129182546834 0.8197283658525495
Ni 1.0611060750363963 3.4052922935336043 3.8610503553505295 -0.1847175641884754 -0.2289323110324767 -0.20557563858440725
Ni 3.844799854826951 2.3151902631246464 2.480144423584666 -1.5802408834665753 0.7713921406410069 0.03088897626937261
Ni 1.079151042232088 3.3307325680362974 8.221714699107736 0.9698162557822975 0.5082397320833957 -1.2305690537594807
Ni 3.516024017446934 3.092473349833456 7.593824610142337 0.5797822202080725 -0.19117026179235466 0.2973257120052105
Ni 4.285100701691811 7.229147585627607 5.949866094685101 -0.034593421704153325 -1.3127610511782037 -0.6967774413489096
Ni 0.6421747001876166 7.461534666956257 11.441783018095407 0.2637306496585845 -1.2215367683538834 0.9662897306862779
P 0.03209524003644013 5.933621065096498 7.840341292868886 -0.6609802291446424 -1.581203504490161 -1.1221248075124481
P 8.92072420729306 1.4549222110555589 8.116031736354717 1.0312419671879465 0.5652241198882395 0.7300035503918911
P 2.046631183379974 3.5631014129150267 10.435496623340576 -1.1171366102692375 -0.3289399964763819 -0.6437998607106138
P 4.223862702860955 6.029891284223387 3.6277186259160312 -0.42670773684617475 0.35712725754387525 0.9987537647522541
P 7.157314209393318 3.989250774642083 10.42195058834011 -1.1777722216734232 -0.49093312248414805 -0.25427464645200726
P 6.555201342389628 8.211153059136654 10.29099190599818 -0.1329661426477968 -0.7632476571570017 0.33135091991071963
P 2.4570880799509998 8.399417049884226 5.821869923632649 -0.9160979403232353 0.7677720273899165 0.33639748119569163
P 6.781688932169207 3.8624983294741653 1.6608673518229218 1.3367368452675108 -0.030491740830953937 -1.3146484980089035
Ni 4.916847799815257 3.0405997680364423 0.33796518449462953 1.5589295235833087 -0.32818152104380255 0.6182063285122257
Ni 2.1794928392710418 1.128407693465603 7.0932103524575565 -0.7711440291859428 -0.4397033777748944 -0.014184776140814282
Ni 7.164143759888302 1.1046547174449983 9.402238519154285 -0.2176647085384574 -1.1412227046841636 -0.6243384095518925
Ni 2.5646193069033956 1.3128785026298466 9.537935031185393 0.7477673021332154 1.7996706543252556 0.3235949301143846
Ni 6.209274123859992 1.842082042853976 2.584625604287967 1.0820672773699298 0.7337308786448073 0.05057719872691935
Ni 4.666251623241638 6.779099356280588 10.572487923315993 -0.3862650554500961 1.0447623702718845 0.08223390640025192
Ni 8.247306821102757 7.101939229211694 0.40125843123145316 0.25096820778659357 1.0200759232687981 0.18142372392855205
Ni 7.627276642052814 3.831870211833777 8.230642353165997 0.8994485046920121 -0.8291455454013914 0.34251490694733916
Ni 3.340024039270461 8.252376554180476 12.750170794932489 -0.3533060840255722 0.6247927234804916 -1.2575188428754471
Ni 9.05947623650824 4.998264430482428 10.130900494909287 0.35054060546529303 0.6964154300238006 0.8152155655838605
Ni 8.500912011913153 2.332150161550107 6.090447239827242 0.7898883996729815 -0.5733698889238253 -0.6391240525014993
Ni 3.666465611060737 2.9620280235567686 11.782372427733502 -1.9857915266191606 -1.1794580940162782 -1.3564957730619929
Ni 1.2058761327251262 3.347701584686718 12.750250123489641 -1.0721021957374182 -0.12255600305806634 -0.8708724928265325
Ni 3.142331803914326 8.130940034164194 8.450801894823389 0.2249774401497867 0.8973240021498416 -0.49610026850738426
Ni 5.519608060791103 7.7878850564969335 3.577886614687545 1.1872603636695165 0.3777660168401494 0.21715023079588408
Ni 3.1804368660218527 8.362004972873654 3.7388998783198857 -1.1829133995547305 -1.067067718637304 -0.6582057517232986
Ni 3.6612043952588604 4.863807085223374 9.575302428893663 -0.4253226835731901 -1.0931376762514786 -0.9815847091721354
Ni 7.144329857050385 6.257044504425039 11.573422831841844 0.9492749412958362 0.2507023557197166 -1.2754512589841518
Ni 0.5003881257057742 0.06487434694487465 0.46312285211705656 0.1939575947295047 -0.2750180496469457 0.47056664301265405
Ni 4.905687092464309 0.36744622943505917 1.1494124364832863 -1.7550661282420033 -0.6296842472448381 1.2695575192075361
Ni 6.197994879584565 5.5880494573403 0.2323852576836575 -0.3201743344686099 -0.4445141688999764 0.5846626882288254
Ni 8.111527333224513 8.966479460141963 11.587168555968931 -0.658220664121634 0.034452525250914856 -0.23802604580362882
Ni 8.975798286051008 4.656577186559157 6.020649963226503 0.8278273408106002 0.5866064422187575 -0.46442324911907756
Ni 7.970404565519753 9.093660461883 2.6062184728155655 0.2974079873063717 -0.5890502757735597 -0.02466767795000913
P 8.451555060205077 1.7734947547054198 3.5399456806292973 0.8154168829613893 -0.29093009289151184 1.1089257923236708
P 1.7692547800990546 3.400605525904203 1.6399419373623896 0.8262481692489383 -1.1423038535634842 0.09865631362233332
P 4.449265223870301 1.2231551690241842 8.325448185364323 0.333972930914599 -0.22019133161505303 -0.5524979305708226
P 8.552685293235605 1.688941454652035 12.581483633173876 0.7252860903115639 0.987026706123313 -0.31459349794672276
P 6.579410229658229 7.9184762743729795 1.5435203557011663 -1.454501854694837 -0.7783248632050983 -0.76717141769144
P 1.9327171989556309 3.445330419332635 6.041548934834651 0.09765615449259311 -1.0546382346246996 -0.41620632309421873
P 6.775698258370536 3.6930908279437182 6.250164803692775 -1.035891550144816 1.4755951850300264 -1.4922366502414495
P 2.5333620317407726 8.073458744016826 10.618809417934909 0.3174926738713887 0.34170912321659214 -0.5119616610196731
