# total energy = -340897.34083680745 ev
CRYSTAL
PRIMVEC
9.02339468585448 0.00000000000000 0.00000000000000
0.00000000000000 9.02339468585448 0.00000000000000
0.00000000000000 0.00000000000000 13.20665022146863
PRIMCOORD
 96 1
Ni 6.20879945865534 2.138066331622297 11.526698393254112 0.6780405270610387 -0.4788885326147882 -1.0816242762952406
Ni 4.597852782037664 0.4058966620192124 6.061324703129834 -0.6979673478919528 -0.8981462409408209 -0.6802131092323254
Ni 2.6781074880043696 1.5757283666482669 4.790764842162444 0.44914601124503284 -0.8217453962825784 -0.22818720533633605
Ni 3.7918470634346426 4.444247532073721 5.380851550876656 -0.6265842681632757 0.5571688536839307 -1.883451593497653
Ni 5.211957963074853 4.442072893922907 2.594763804119804 0.3455045857032824 0.804933466931562 0.11022524940685534
Ni 7.4105983441013645 6.3219979466302965 2.6413173026578978 -0.2932392006406627 -1.4799748021549608 -0.19826830628971662
Ni 5.103171915165242 4.482966919231994 11.394843134156238 0.400185265075614 0.7485031518579754 -0.0003226734467413798
Ni 5.434953119178884 7.898881307815095 12.308558409667242 0.22826973774781334 0.14498733547838902 1.4740232125572161
Ni 1.9897848846001815 6.340829771612658 0.34409091922252394 -0.4854060220183317 0.43898012645562456 -0.30466929685447525
Ni 2.5425941446478224 1.6080411434867137 0.39905602640870513 0.37728239233551153 -0.0023019086602992615 -0.14774690050139716
Ni 0.336682712078049 0.10633439153792466 4.94810938693841 1.0872390513788563 0.7066751600785959 -0.15896230960124236
Ni 8.730693935593754 2.1998856095112105 1.3948074958953416 -0.4315121002133536 1.4539598661484379 -0.3477468447702398
Ni 6.864186670978732 0.7706547647298063 4.821603196287849 -0.8305133722831954 -1.1173772655251337 -0.580816832120174
Ni 0.6454479429328446 7.3885812607487225 2.339056134786948 0.5206357917549033 -0.1798594647652257 0.030141042359754542
Ni 7.528389740037998 3.862752899903929 3.6325155671200493 0.8397438897425279 -0.04466906077260049 -0.014856605396858286
Ni 7.481007893855735 3.9030423577603 12.428713032706359 1.095147764702972 0.25204267179769496 0.19309010452288683
Ni 7.963506861491989 8.823986814603165 6.95100345952823 -0.7546735423347454 -0.06643730568762751 -0.11058648940101601
Ni 6.791169360122349 0.6343139760685722 0.3810633771442921 -0.6849341688570785 -0.010174369429840542 0.53779636269459
Ni 1.9898660951535316 6.559024481674228 9.276390955846905 -0.3676808646900055 -0.9181964747234767 -0.15997403869520838
Ni 0.12365660256746007 4.8219036753352436 1.3514230136168575 -0.26658637393982476 0.0960571854365894 0.1568987422039943
Ni 6.29167934004633 1.8090101928432862 6.971143676759006 0.5162168367516012 0.475799095056187 1.663929520035483
Ni 3.6072193820910345 4.435052692755548 0.4861390051052932 0.022635992231961017 -0.4169372877229723 -0.3377977039773279
Ni 6.022069326319452 5.5596293653606255 4.758541396932682 -0.33820599515934013 0.5837617736811108 0.019304870976199012
Ni 5.387941232184103 2.772988484501512 9.250439672354203 0.36936596570191227 -0.07461495640241343 -0.025781994060110433
P 0.2204947734003355 5.501347258239841 12.345919775905607 0.39467230567718486 0.9156413124017907 0.2881198771362264
P 4.043987784796474 6.149939854266291 12.420577539939659 -0.42753383229189595 -0.050042152159055754 1.0950402925908302
P 2.318913210537726 8.422093832864103 1.4210755005461102 0.30776619061224414 -0.0388820217771782 -0.43467044333667715
P 6.315771804206803 7.7219866758293625 5.668901774250854 -0.2505709723481749 -0.08172277109178828 0.6452929003163725
P 4.720255132725609 1.11053627027036 12.64864294159117 -1.1887338628912496 -0.33897809743867424 -0.36311972768188433
P 4.120903202213654 6.1231945120297215 8.185495006734481 -0.838390203928111 0.05415617432742931 -0.25443765439243277
P 4.730198913813564 0.9823318767153051 3.6081361590044074 -1.1724451530335551 -0.006756087776910945 2.0014729419101593
P 0.37272215097577494 5.637762941078053 3.5385369101045723 -0.8786683347218673 -1.00618759532248 -0.3467268881461577
Ni 1.156582654019758 0.7832324747647437 2.656940408443457 1.1239837150980578 0.45483534832032635 0.3431571685170283
Ni 1.9105504547151215 6.366257698205996 4.8210744253515925 0.5609321773811049 0.5635963544768294 0.062125051465518805
Ni 6.0608969942155255 5.834869977453097 9.143756075436874 0.05197099375065243 -0.381258346264124 0.4779022574421189
Ni 8.514809214605247 2.3069030720367563 10.253934116933012 0.3680431331254307 0.6269213397877204 -0.3068431645773425
Ni 2.2748970906220753 5.19034693248896 7.051281348465214 0.12273109518334993 1.0146220992430786 0.32136526945291755
Ni 0.47579548762695995 -0.09765929976119116 9.258601332965869 0.4983571828623611 0.6961698896718977 0.05970332939790363
Ni 1.3924451711323411 1.1356393546502983 11.37618185133591 -0.15993778614063422 0.21612590329642778 0.023512738409959502
Ni 4.031616710502838 6.789319564184934 1.625593451084074 0.4552760354021708 0.6376125009529794 -0.392393279835021
Ni 5.72356640238964 8.015030445895096 7.942638456299508 -0.2577150395921239 -0.0836187025629205 -0.09902732380850687
Ni 5.228263237508551 2.6522464384598323 5.06526553587995 -0.2376349810127972 0.14661664355169587 -1.3799442338929202
Ni 0.8161444050190165 7.421661026146585 7.115730043603701 0.478262468995015 0.09316006639445246 -0.8207853463621543
Ni 5.277539996602311 4.500959568496406 7.20892907930702 0.460793108565658 -0.20934050494347817 0.08659218336894764
Ni 8.103658229784296 7.129068425821683 8.97682417366821 -0.4086539646682575 0.39358344348838026 0.6393757635009892
Ni 4.710148930530954 0.3964717261332147 10.429555547910114 -0.8262345424021835 -0.08343898245194661 0.017078552748841555
Ni 8.241535702582809 7.158204967684667 4.782881102111131 -0.006830649768588237 -0.3752625336920053 -0.219417429563506
Ni 7.471614539851595 6.095763391787085 6.816837309017809 -0.5073874113854293 -0.38551917842300704 0.4010877222852254
Ni 2.390721386488678 5.097857135618232 2.5242531923434868 -0.8988167846452844 0.5923384596065283 0.5911344119960981
Ni 2.3381240181023877 5.081705258896416 11.382639895006191 0.3658798069255247 0.7793214227904127 -0.41150814628760096
Ni 1.0994465180406892 3.1607959469317732 3.6992751536710826 -0.32655786939745046 0.4321898430066686 -0.4405911796964863
Ni 3.5754209387571376 2.8019084648888963 2.6432446997907353 -0.13226783102919157 -0.9009405158565064 0.30777621791457316
Ni 1.0831322202121745 3.3670346588612734 8.008539015663994 -0.6321211388211049 -0.4382633028942581 0.614901946729341
Ni 3.614176419494677 2.7080741821904857 7.033518795768626 0.051474256619892 -0.7351421571700371 0.5825284154946418
Ni 4.1237455715809 6.897104015269895 5.928954208187929 0.43505405192834107 0.17777250032921 -0.2130608912178589
Ni 0.8473003826419678 7.407440155915534 11.353519595253877 -0.31810896729914895 -0.3072956787337288 0.23387088598467462
P 0.2603817878478837 5.562516851701956 8.051711448164287 0.49968335787295237 -0.8255287745844104 -0.5872466469059177
P 8.606513976126928 1.5294022576595527 8.052847493571704 -0.4373446477347307 0.884174095031445 0.25673416373609337
P 1.8147039549725965 3.24935154366244 10.365187160985496 -0.7535713104095021 -0.33451311968878517 -0.7159262463632187
P 3.900443620053103 6.021112846468887 3.7292409455177165 1.176602112624722 -0.025969427480568175 0.9146635218695539
P 6.9286678503385595 4.074956075807239 10.224377084871572 -0.4912126013977799 0.025087796206563245 0.4600518595242593
P 6.361619673270235 7.866135408025449 10.295984039118112 0.060301110882902596 -0.8566815460381311 -0.8944016862967241
P 2.3368878130125057 8.395231186494916 5.731501575791408 0.1077230518102919 0.6863400480656696 0.4771329833762622
P 7.1020343349509805 3.9662331916613454 1.401331410347784 -0.8308332175164594 0.3153463169523472 1.2191363864425067
Ni 5.406827197535365 2.936257790314094 0.5115940018830811 -0.48758477483720547 -0.10765723156936298 -0.22450101473400044
Ni 1.52290541339156 1.1074773394275135 7.07102543866354 0.15428521584054722 -0.4834967208107609 -0.4427043693847473
Ni 6.890643264581169 0.7546896722806961 9.344722417775001 0.29676238330257276 -0.2626469296761025 -0.6170771000037889
Ni 2.6867248300542763 1.6131574083477578 9.240125029739282 -0.012019135948063172 -0.8921887378058054 -0.4188080223831239
Ni 6.234254455433129 1.9886298900636497 2.6039821042645 1.4972207337196022 0.36816860295970144 -0.336460216112827
Ni 4.198711935717682 6.9189767243054705 10.436701174265425 -0.48473162165912653 0.2572920931220924 -0.9925692332080971
Ni 8.117048947692215 7.185103707633119 13.546589834660066 0.0665738312654918 -0.20770091245752617 0.1070746195930156
Ni 7.575094831609011 3.866506632147658 8.157087555172684 0.5727250562509749 -0.46530128084865674 -0.6391785598885186
Ni 2.8557600851547016 8.430296098752443 12.468134439981366 1.1385896379366907 -0.1387043306831547 -0.3460288336378686
Ni 0.043575778248597354 4.755924612435852 10.079857491148521 0.6571017200258424 0.23661990948472153 0.571793545575641
Ni 8.423510505850318 2.321178082636707 5.8873004130352795 1.166600778437636 0.42175476371627363 -0.02866085826980225
Ni 3.6722870821139444 2.6773314760501368 11.332943548053455 -0.11691783093568252 -0.6071714108543027 0.6883827895273111
Ni 0.9927448743337267 3.4120343288119392 12.504492404716121 -0.48713226068081916 -0.6719056178078945 0.24904142307752591
Ni 3.177417040184055 8.122751733216342 7.911668360609779 0.040665596040162226 1.069446760392442 0.18612704294149238
Ni 5.474484611870655 7.737696406205161 3.512242737608836 0.30105098337559766 0.3315308971320096 0.7963511245791898
Ni 3.1225638230936 8.343806859434792 3.6008723261769986 -0.26737158884528145 0.10541471539208941 -0.11561865250828475
Ni 3.5403560264996106 4.109533724744666 9.06701300486069 -0.9995945154859948 1.2225086453488494 0.5883943873571157
Ni 7.378321660842184 6.143551290736098 11.394566115935366 -0.4961164664573005 0.12340215310844554 -0.60026799886625
Ni 0.44494269606984815 0.15419537998495217 0.2896230010907406 0.31824240755321964 -0.5448208736415391 -0.06838414500135319
Ni 4.422979390490862 0.4820658446850545 1.520587303263161 -0.0851590504668469 -1.1631470155610806 -0.088892292257034
Ni 6.072113073972629 5.70545644899261 0.4249730210011058 -0.565663264308187 0.11145809337269193 -0.313118456063093
Ni 7.857698533871875 8.715101509350571 11.603442366169775 0.33829624088030125 0.49601953586812 -0.6941600583307206
Ni 0.1593269846171847 4.729657510124565 5.516655447546299 -0.4576892728293537 -0.1036905336121311 0.861670257501974
Ni 7.780259759555329 8.788777528028572 2.55231685256277 -0.11520907577469192 0.5681281809089118 0.35231338109499966
P 8.41047170034025 1.7048080295005374 3.5806400703190913 -0.3703710099276589 -0.33814197469062407 0.3885191415915954
P 1.8488123873795579 3.3509188757187247 1.4096906833059348 -0.3661533723018855 -0.6686958526213451 0.21881553431344897
P 4.570150959950529 0.996173764364056 8.275815579491285 0.671850853310559 -0.14858945100735055 -1.1546086390727666
P 8.255576104917525 1.7505746880106192 12.38453629636297 1.0113431713814904 -0.4487400340558659 0.11478947173877005
P 6.159017389451847 7.734159235437031 1.4411886475924374 0.4445995295249311 -0.11954138460145862 -1.0121109027854505
P 1.8811883279817212 3.312822102802801 5.836414782645709 -0.3338914269443862 -0.31183547558561137 0.14487189294644726
P 6.9241741997198645 3.9096113891868263 5.856581167721455 0.06189648039448051 0.2967569839859341 0.4768545329038949
P 2.4304784640508665 8.538098596627039 10.18437457097037 0.21775418292847015 0.08165977906433679 0.1840915005687023
