# total energy = -340890.85478808504 ev
CRYSTAL
PRIMVEC
9.04248288442770 0.00000000000000 0.00000000000000

0.00000000000000 9.04248288442770 0.00000000000000

0.00000000000000 0.00000000000000 13.23458772953478

PRIMCOORD
 96 1
Ni 6.582809902637996 1.8055125342344416 11.467597976446493 -1.4980578849089168 0.17905959457174966 -0.40845907504863205
Ni 4.707995780471602 0.33814635584442937 5.919076295265249 -0.7386532556470892 0.07296636505539691 0.3152391019505216
Ni 2.5084480171501666 1.5900753822930607 4.962692679845675 1.060659244007799 -0.7834097339271734 -0.7122536826076379
Ni 3.41983081282781 4.196155085886505 4.7542082929044085 -0.5390654592150006 0.42556822392509286 0.5114099022812612
Ni 5.0384171432875515 4.49488254660153 2.591715719716891 0.1530307746081558 -0.12561741559220946 0.015480869244418499
Ni 7.102960638886645 6.157469598209089 2.623082283941624 0.3122489089739461 0.1989545337234638 -1.2715650365558682
Ni 5.0860981549218405 4.5964115431177035 11.48894546976457 0.6025611657758009 -0.010583946163433385 -0.22821214503700052
Ni 5.615182864145015 7.786237764265305 12.622117761527932 -0.26568828760558755 0.3251561039539174 -0.18329214459585855
Ni 2.001960472363571 6.254631075548445 0.4292846354121938 -0.5365465494478888 -0.6415905117641209 -1.830599739803944
Ni 2.6755259712496797 1.5403869394843348 0.35780380913321713 -0.20548050776743965 0.49980034306679083 -0.022328488293871223
Ni 0.38420243332535436 9.092849396755284 4.958788135786566 1.26045941356101 -0.5135948257477219 0.5949589279485108
Ni 8.667029840739687 2.453740996405346 1.6140641848275952 -0.24770547787492178 1.184871808832682 -0.7970332382478789
Ni 7.051409444627764 0.749858734494076 5.002833165099946 -0.7060678655119002 -0.9959949710601943 -1.0924316513233896
Ni 0.7365879867841424 7.159593708460993 2.0163027542814818 -1.4321551115685207 -0.0015328917047586505 2.26388358720574
Ni 7.509456409227583 3.8139655092252496 3.8159946423583295 0.8093889315997546 -0.5184842926295393 0.16329256154548005
Ni 7.560202822520134 3.6724054414962954 12.757282081195264 1.3117506076358183 0.475339124700633 -0.8198782611668524
Ni 7.986465460191349 8.836784369738451 7.148027468752779 0.18084779682042404 -0.26739987098005563 -0.48491751241768744
Ni 6.951869794320493 0.6471849596595071 0.32505645778985043 -1.0244992491474745 0.8445325693804231 -0.478520350642092
Ni 1.8376676029565213 6.643078050284975 9.228504723236904 -0.1991921036555666 -0.47098984659300175 0.0232132048916697
Ni 0.06686463882604587 4.940695032016596 1.2188127418083408 -0.5520598145921396 -0.1577343507314122 0.299212130394646
Ni 6.4881893629563745 2.0205156470029713 6.890892716024523 -0.38987951227423173 -0.7937424833117491 2.3374716450055355
Ni 3.45870444624632 4.196372105472931 0.23960137864161002 0.2563546689094875 -0.8406473753934038 0.9484663293516117
Ni 6.2782409980550105 5.654590004046821 4.808377285924549 -1.150914992271263 0.4478702298564029 0.29185363314704577
Ni 5.0874002724403935 2.7139926929436413 9.632556310485722 -0.0854308160709948 0.2629585473792504 -0.7811597615507322
P 0.14461280991134237 5.5800799460406525 12.277223905042217 0.10132306182121904 -0.9618481499751564 1.0216900618334535
P 4.051927485741069 6.075888318678548 12.788806888868432 0.8502728142983098 0.8209480971922636 -1.7478672965007187
P 2.065981250359163 8.67958080682131 1.3851718185278186 1.3480085615265882 -0.03827626987237925 -0.015524577998160361
P 6.251665141200626 7.786879780541814 5.933277514451983 1.457897253529631 0.7307075184374513 -0.991927228748724
P 4.560856500874953 1.0911925655141335 12.587376542734278 1.007475203785652 0.0846304316568865 0.07230482021199805
P 4.1169067669100405 6.097734957045406 7.8490631260390025 -0.23630854889188976 0.6963100147941879 0.6121503521261329
P 4.630004366599854 1.2538035331263835 3.891153950627223 -0.16638122777313283 -0.9231533045081198 -0.8989085730281421
P 0.3201301131779863 5.45559208577719 3.6646044916125673 -0.8541017011260968 1.2122532861694284 -0.5070171725302043
Ni 1.5990545676814254 1.4523131573265573 2.571003912937385 -1.2945836089382285 -1.844788115489184 0.08384213142763625
Ni 2.0352368089488504 6.238083332083482 4.804314498417004 -0.4480522639602219 1.3016068343335971 -0.056307930563109475
Ni 6.115575775546155 5.3794543808728275 9.269399351554004 -0.6257810555356901 0.9339331687324431 -0.13867142056269022
Ni 8.763739193940657 2.3194149148905834 10.335220518918415 -0.17738683485501708 0.6822723057541992 -1.2972884094639012
Ni 2.163368789767712 5.401102084618795 7.05010461436438 2.02401071800136 -2.0122623192161795 0.15287008066057545
Ni 0.5430535366027786 9.10062593193554 9.23223655587515 0.4356724022386303 0.22369137434851152 -0.12538421653548082
Ni 1.5070292205541458 1.050429053197166 11.502048027295025 0.25725944011194407 0.1487933394880405 -0.39699658293498724
Ni 4.055689158572448 6.862792296575497 1.4677685688731767 0.901329523764809 1.242554251145815 1.951355199318162
Ni 5.508526779899534 7.823094924026608 8.150374928329047 0.21019385408270896 0.25275486737337116 -0.35208892378901946
Ni 5.2498665603283605 2.884416365667218 5.104236471105648 0.036152281550840965 -0.17554669632248476 -1.0327558327293116
Ni 0.9740381587753072 7.294399041562446 6.8860224348058185 -1.7689984220523791 2.3833388398512954 -0.33832323746349474
Ni 4.996007899106856 4.201236961201974 7.325979912628775 1.6168855312728025 1.1960440233994176 -0.7959906559159775
Ni 8.142249353313955 7.309952111922958 9.237966777205065 -0.46532004990173415 -1.0109665047683623 0.2448068161708881
Ni 4.614966717757103 0.3933715108518417 10.376988651070878 -0.3257405157024777 -1.003603893755704 0.8222449616268162
Ni 8.150767372081166 7.213740095274215 4.451228152543717 0.1483901905123509 -0.010331978053627367 0.7029845986008861
Ni 7.1557777807330085 6.275338361086567 7.125819131075211 0.48617889562861427 -0.4363946251166355 -0.21786885412946352
Ni 2.399052060626061 5.167299650176136 2.6934499805918923 -0.11457684150733169 0.6693525123687375 -0.6455829207529656
Ni 2.649682555499482 5.337994597382744 11.2948467686585 -1.4772826000347783 -0.4084351637892321 -0.14965620170896807
Ni 1.0288808167616441 3.3699072654671234 3.8817967894591665 -0.3038218612525155 0.6928433964018261 -0.13832535007718114
Ni 3.3748354185755414 2.7278186490955143 2.6951309781384145 1.9874563159160932 0.7101641470684609 0.2261102682026493
Ni 1.0885612030287215 3.3678727068443823 8.13612126274226 -0.1747887351105377 0.5150336150767775 0.21968045341690554
Ni 3.7521601395077533 2.4040796810449234 7.1085877759130085 -1.7488502292392785 -0.2735586914925998 -0.5802149368701168
Ni 4.263286477954199 6.87501773327748 5.676631960041463 -0.7721871257384766 0.32236362881044484 1.3178387228114272
Ni 0.7459180205038954 7.3047707692970425 11.289870690391414 0.4327739976449127 0.31525632834170225 -0.014019197097227468
P 0.19024208220563005 5.78485601079887 8.060975518197518 -0.9790313466226624 -1.3221252660019231 0.22035408244516244
P 8.536573941849518 1.8008827830573593 7.997131972864174 -0.41596592494863843 -1.3735059344667442 1.0322300421328288
P 1.6774438507949545 3.420084002345307 10.270966444867415 1.2385772687759378 0.38808616781923483 0.5632695672650299
P 4.1674904155127726 6.159892983590843 3.648683392203409 -1.0024132158817125 -0.8197345365001365 0.12821782932953402
P 6.860079551745176 3.673535751842263 10.322753647926532 0.7967496455691891 0.6445192553751417 0.480297754257489
P 6.297763718350559 7.735310501317399 10.425519656085335 -0.6723820432236808 -0.4601688447180978 -0.40016135381621404
P 2.35486144734012 8.43970182395873 5.839404788095255 1.3769962070081898 0.9443350807920574 -0.9502010526545313
P 6.984684964284618 4.12854444223212 1.7022989231786387 0.4895336710334601 -1.5547481385121096 -0.1639404795421241
Ni 5.5347409374432095 2.9071943797591526 0.4249162119870991 -0.9642868413236362 -0.7688940568095016 0.5173270390966446
Ni 1.5409114034848639 1.1392624039074337 7.173781363923576 -0.6370275749837867 -0.4770949310494751 -0.47440530003245396
Ni 7.002290678233407 0.42768502021058075 9.254801167373765 -1.0397656883882416 1.7731083304556947 -0.6050939594999837
Ni 2.455142581234345 1.5654255742682042 9.407780082341821 1.5157450177760345 0.28097169612721934 -0.6641174892220434
Ni 6.473025119354876 1.6723258055484143 2.662931601250773 0.04138087693963196 0.7349752925748696 0.43486584717693494
Ni 4.140778921416872 6.823095797225124 10.006817438256224 0.6878842526243378 0.5325443702670313 0.9044582992017778
Ni 8.06096647571475 7.311055294820622 0.10129389196421203 -1.5250405841453478 -1.9004702395428363 0.8804961319592256
Ni 7.690007662651027 4.017629348603034 7.917684719266819 0.6680533339413397 -0.742771648690837 1.4553660024673452
Ni 3.1156959474176773 8.148407284078786 12.578866662201559 0.05219390839473592 0.8714139671522992 -0.31076563956020026
Ni 8.78651720803259 4.938072712013953 9.995978214162536 0.7523297246929171 -0.7700747073811641 0.8145910446259842
Ni 8.651856554655422 2.4131131213298946 5.893693141887929 0.5386728517622722 0.6469687453568987 -0.5210880488009735
Ni 3.559799403589642 2.862886214197231 11.499996287955025 -0.9499388001320801 -1.3209127337510604 -0.2644143059891704
Ni 1.1078216913240053 3.346776594547247 12.457479469279155 -0.4625342596264808 0.6627092960206071 0.20671823682928267
Ni 3.085638734697713 8.380600156588788 8.09756954171028 0.4011843957640897 0.5296752762493523 -0.367707861273199
Ni 5.373902296453436 7.92491327999135 3.6296254555221226 0.727531948922947 1.0750617925863744 0.2837430882247694
Ni 2.7544849307775765 8.41649881317671 3.461810539077039 0.5237396274912076 -0.254652084396084 0.6102824456794587
Ni 3.4774495130238434 4.454652540767859 9.097984622719082 -0.8748633591534802 -0.4740412318248158 0.9836603607542416
Ni 7.130440744017804 5.975896544232891 11.454019784322455 0.3984471993385847 0.1879062463291022 -0.3297550361785095
Ni 0.47164052894455993 8.891880217242285 -0.03399611821359146 1.5039349125149841 0.9707925036526377 0.9853837712032513
Ni 4.523691896699546 0.5436223087688693 1.7173202955524067 -0.026480562789031815 -0.7096085316753069 -0.3288312388126595
Ni 6.142884073504726 5.477610531316634 0.3118426777213535 -1.0413253195658774 0.8304994883261246 0.43265264157570005
Ni 8.014849813599282 8.86506925583594 11.280381508974948 0.06712738977611665 -0.30073165236296595 0.30431988393485654
Ni 0.034697814876368006 4.999878081731448 5.974873839431859 -0.6278947594445832 -0.5816904929743788 -1.132215616089547
Ni 8.327773972259656 9.145567071291202 2.0908001528117763 0.6652978826833897 -0.8386267454189493 1.7106354087324538
P 8.730155412941274 1.5889993268436995 3.7462083773500274 -1.3204571342708806 0.5727065443082137 -1.0147282858036395
P 1.8058742335451512 3.56672594538973 1.4393941621962885 -1.0136545931234866 -1.8600697242386028 -0.5138455083059472
P 4.787379736689583 1.0467216352623931 8.294592581743439 0.4681379789665034 -1.0878098362806619 -0.5546777118309609
P 8.559143978837794 1.6557238071868454 12.408683519519604 0.43217981570433955 0.348760887857051 1.2038174966972492
P 6.405495858045401 8.112590009835772 1.6867874482388592 -0.027996742323242108 -0.8098113638491536 -0.28638386828172613
P 1.6906006632220147 3.2963104982204965 5.978023336179863 1.1360815268028563 0.6892338246736969 0.8377170891204863
P 6.829090963300134 3.997120997685802 6.036811229397764 0.4742692886752219 0.6877770376225123 -0.9285287098874201
P 2.482622686365504 8.43886087306133 10.406038531210518 -0.09801302361137959 0.22405647099741413 -0.8205320927007674
