# total energy = -340888.0650881678 ev
CRYSTAL
PRIMVEC
9.12050665828116 0.00000000000000 0.00000000000000
0.00000000000000 9.12050665828116 0.00000000000000
0.00000000000000 0.00000000000000 13.34878340934034
PRIMCOORD
 96 1
Ni 6.59211988470046 1.8741729365880317 11.290187776252534 1.245285534034049 0.8004052400439053 0.4065351185530418
Ni 4.752686958407157 0.5200658889529812 6.11959007704339 0.06808409726243113 0.007610722467722376 -2.226692322867423
Ni 2.7899539010625447 1.720118456701378 4.457212636665167 0.5154506480095381 -0.37732738664083404 0.7268693756382836
Ni 3.418110563973769 4.715347603682395 4.831071329758165 -0.011757654756560397 -1.282172379758069 0.5619691032860515
Ni 3.9944901099400805 2.702187264395132 2.3509747896171285 -0.1707407902934092 -0.4406667701294281 0.824270219586961
Ni 5.08295874963654 4.723337167614709 2.6980693555875526 0.723878668441076 -0.012764498754519953 0.4909614046189222
Ni 5.744341418718333 3.33249636690456 -0.33068586223683344 0.6652168929338093 -0.0244416779821321 0.8846543771019733
Ni 6.217659238160508 8.115116828537577 12.05716858479177 -1.6543313348240865 0.775561184417032 0.7828806008965807
Ni 2.256814677702511 6.930718698612723 0.3976905772883572 0.4685226159994318 -0.7771778940848486 -0.10833240325951665
Ni 1.0787096974503687 0.7482016850955903 0.08166684173826734 -2.1552112841083013 -0.8928549106348945 -0.8685986091906911
Ni 8.219200051820183 0.16688612086424714 6.877346405033378 -0.10951408227244365 -0.9230041805247652 -0.09032465382818639
Ni 8.939218458939468 2.792772137655107 1.3219891830372854 -0.986676778983062 0.3652131198758033 -0.8496130692271239
Ni 7.1539704633789 0.8703644889524255 4.642973646294166 -0.5459945822346661 -0.43408654580874917 -0.35944742103661964
Ni 1.1963095117691487 7.641333863250027 2.4426805731593886 -0.16956631036933378 -1.2921654864150391 0.4474022890810488
Ni 7.710722678771765 4.063851563941501 3.596175689988515 -1.0139183883078344 -0.6485967678786249 0.6758108663995716
Ni 8.185855479061576 4.283363920931139 12.446445494582912 -1.5464180213798593 -0.4555647702871831 0.14231133130812265
Ni 8.568889401967255 7.355916724325575 9.38426179533762 2.146080782561943 0.16414719623629148 -2.078683169843575
Ni 6.861521413733199 1.0480830357098334 0.32145773348487583 1.431568385827115 -0.39503097456818415 -0.8389890138543743
Ni 2.051439106209546 6.703663682522601 9.30004394785521 0.06046489015427651 0.4463818182363345 -0.37115339661963825
Ni 0.04610233763134548 5.458988123341284 1.2447111291577273 0.28503609600458 -0.5926441637724053 0.32635166692391543
Ni 6.633499623925239 2.3022895244679393 6.964034085749657 0.39712693786526443 0.08508860224022766 -1.3343192369649537
Ni 3.923833543977029 4.578394073993331 0.7016497064803828 -0.5094247535304324 0.11099812301713786 -1.483474073557471
Ni 6.25393149359294 5.8119608559262925 4.666293870059615 -0.4826001771384205 0.9500413871482155 0.9281129625062403
Ni 4.981556955344916 2.8506508736305207 9.723134224453041 1.536014052437716 0.17642035717668972 -1.2434374250817166
P 0.6538281533225063 5.8769262256635875 12.56364856685711 0.10399546644705962 0.4558187952795182 -1.1287628816542559
P 4.358836114469832 6.421995071881459 12.690981786003018 0.2444679447742306 0.5694060191800709 0.4481314539375895
P 2.5138944020862124 8.949460788044478 1.23900351601978 2.522418551595998 -1.811380743673332 0.13192433164684378
P 6.789177554017318 7.9705111936667645 5.678359112475956 -0.18384904554059303 -0.45772835359740527 -0.11160130381877553
P 4.999022725813387 1.0500986677064559 12.494754994853094 1.0361738572719252 0.9864847175769139 -0.19193002277651464
P 4.217076077711898 6.442662140226919 8.20954234719926 -0.40663821978980935 2.454495148281147 -0.09949732146638993
P 5.14759578113004 1.2637374183348955 3.761273279474764 -1.4987713660361737 -0.8283816706521733 0.2517693635316503
P 0.1943269895893063 5.782519860066124 3.489371819535808 0.4837682293045926 0.27611899602060835 -0.1137530600544557
Ni 0.5854918442822636 0.08305863107168177 4.572105484574004 1.1435924904679207 0.371103002997677 0.45295818590227155
Ni 2.046605237620361 6.739762648326364 4.757680435864853 -0.05805962314689356 0.7330186830691311 -1.2618210697952268
Ni 6.281201808841363 5.764424774630381 9.019359439894773 0.12383692665301899 1.3355307407745514 0.5297320976292168
Ni 9.20003759109971 2.5815412008144887 10.420327651324603 -0.37883996663061853 -0.32207797924922593 -0.6906366185584945
Ni 2.5865574795391146 5.341552478144401 7.031098084095198 -0.8898994275509965 0.9576117432963057 0.07075033124068461
Ni 1.0518771665270052 0.21187758077075725 9.34779253695891 -1.0986879166457464 -0.2677361712735518 -0.13572339367795982
Ni 2.0799589308857387 1.283428592455746 11.46249330224073 -0.33193276055611864 1.4399833493636878 -1.4979295868611688
Ni 4.6277360156301075 6.911045765505415 1.5438400379632766 -0.583796226463472 0.2987225923527372 -0.2134856374601033
Ni 6.003172280402268 8.096392428134562 7.742481195402711 -0.4257278894314087 -0.28858010460209654 0.32693222201773375
Ni 5.330525785456995 3.2578267779618075 4.693099039462662 0.657824714234796 -0.46834778098446433 0.37120250469001875
Ni 0.6702550980696411 7.305589767957417 6.54130406916932 0.007120927315497413 0.621304250711259 0.8907067539436401
Ni 5.210755290526469 5.099822566658055 6.954129215395214 0.9015984611554796 -0.8727522263477486 -1.299011305692279
Ni 1.3508200169944045 7.863637095311912 11.662979370053202 -1.0998174022644993 -0.3445316802670518 -1.008129292429883
Ni 5.107082490048605 0.40164796517674867 10.082803233110088 -1.8883228055470254 -0.20609397298172247 0.3341562505699987
Ni 8.156934352087415 7.572483157627841 3.9460210008013883 -0.1830103516893816 -0.48486686168541016 1.3386086083689268
Ni 7.6597299254092475 6.117233338093493 6.975687357252302 -0.8864163540984024 0.8169657155057479 -1.0165895073820943
Ni 2.4890866236662434 5.242230159396804 2.5797590537912303 -0.3339801300034506 1.0374157000988262 0.0014429030941136441
Ni 2.7703812935297307 5.430805757415658 11.63273029729303 -1.1696457359115469 0.18048449994373433 -0.3322019550571053
Ni 0.8267529617205261 3.6298248876733066 3.4571618378196445 1.986807883698817 -0.8407437917619521 0.39209786008178926
Ni 1.6498631930362966 1.4692224359091248 2.1907356940883496 0.448704295721924 -0.14938777853892982 2.5353229183624917
Ni 1.4124199197328131 3.5304478458850777 8.175275691206002 -0.8079658259999827 -0.05923795972571089 0.17282981161195396
Ni 3.8005972564731234 3.2526828121423725 6.944290924740206 0.18265991032849832 -1.5597574188012429 0.24997164820127912
Ni 4.106024787255449 7.133695576824638 5.980682022753077 0.5519860239314106 0.18702615771699405 -0.19560927140031473
Ni 8.485154029293087 7.720965007876774 -0.03533375528558905 0.2304155804462225 0.2721481842983184 1.0281350461278487
P 0.2640797133312481 5.735868467927101 8.143038347969524 1.6273334660790035 -0.546358136221672 -0.013363308680783439
P 8.694241647042274 1.8466290061364485 8.158829593394646 1.4077874813574336 0.964530839013642 -0.3697781135386664
P 2.2582101152386342 3.439233657657831 10.366504804710718 -1.0192688539864703 -0.29954997335003897 -0.5662818717287925
P 4.097041088084982 6.384509789048344 3.7920157716513034 0.3111754734041093 1.413620800209759 -0.9871125809688999
P 7.045135456068057 4.330106518137883 10.471693433414098 1.1780833251559386 -0.8680648481744083 -0.31524064461241835
P 6.725726188404184 7.981556127367713 9.941106127848883 -1.755374146400725 0.24909053114790647 0.12966304641649282
P 2.435002018508002 8.754683245420633 5.926019177465487 0.26880086509264034 -1.1956385604308828 -2.133090540949862
P 6.913280289664567 4.172932824935189 1.2945793240352512 0.49109047399761874 0.6312523630629064 0.1641320267276399
Ni 3.2911257481865523 1.8711084463126237 0.14491664415173924 -0.3715542316024827 -0.2027530815339476 1.2987973899092597
Ni 1.479072583222936 1.123345457592769 6.962071352692313 -0.4468590149830692 1.5716981361028868 0.264707411749557
Ni 7.070472223880805 0.9385731108978596 9.127217640930327 0.7589870821084348 0.1805516057362439 -0.8747587152548161
Ni 2.9859079890599842 1.6285212071897055 8.8672102338728 0.44192069714118726 0.7754547407461548 1.044475435159085
Ni 6.401674582793338 2.2299183032317424 2.2908378161649567 1.4812269293945068 1.026445831350884 0.41316856470915936
Ni 4.273823870847577 7.320711568185471 10.465339176346012 1.1002719733034148 -2.287016316568461 -0.7713574307483296
Ni 7.795242415028328 6.513063332000352 11.324560230124348 -0.14791427931719686 -1.425321890696771 0.50985592753058
Ni 7.80861307795615 3.957980721331574 8.141623757369178 1.1280838533093605 0.08444505511895779 0.9639603112221528
Ni 3.4960088123138267 8.642510132631221 12.34689060291263 1.0260331692934974 -0.3857217813521163 1.7689544561883213
Ni 0.4546390215730216 5.032367298571993 10.322120770555228 -0.02330756437768889 -0.06910713921030678 0.0865253346867542
Ni 8.746301499697122 2.318268652332567 5.686675190550709 0.9366513389945547 1.5419417307760606 -0.4140321982610353
Ni 3.8805202573165753 3.20687962713315 11.676421172933846 -0.6830261532010882 -0.443419650284217 0.19292735369277744
Ni 1.2985686336973448 3.5840855462114884 12.657263272466759 1.1501542028458385 -0.4485893674106145 0.1891843417105774
Ni 3.3405041718504176 8.603073061348887 7.8539575014747385 0.4691260539113856 -0.8261008450377967 1.247329303936955
Ni 5.704785780847963 7.9259027950446805 3.4401949590716048 0.23975639823117414 1.1777071727634427 1.2801152401187246
Ni 3.2573069090758002 8.60561768273829 3.2979506234040756 0.37544893867119855 0.2052421665043885 0.7534936630940314
Ni 3.7026886162751937 4.730168427186973 9.204039669471284 -0.6928413395192972 -0.8754446855782471 0.5992097328050648
Ni 5.196718830604287 5.109143724579088 11.109231449591048 0.2013374321333436 -0.010804289704355588 1.04866041977471
Ni 8.597728444380468 -0.0284441244699844 2.2362552313369615 -1.0064087101943509 0.19848916405127107 -1.979884417106106
Ni 4.9168104777701505 0.43855683198187034 1.5790543146101517 -1.2473344461432776 -0.6712206759257279 -0.2045309993699768
Ni 6.459863415999 6.150596151865643 0.06558191599508444 0.020776827536035186 -0.8561701536193512 0.14594609984723253
Ni 8.231157036198336 9.097039708122978 11.223216807076065 1.254031655657795 0.8538273644187876 0.12198753214910604
Ni 0.574512578230073 4.971606482456612 5.557018066279282 -0.8395127475683285 -0.5072380302917586 0.4397763971046749
Ni 7.106963371475767 6.092389077646437 2.452372023655366 -0.020713835508583682 0.44803915133409933 -1.1172469105948566
P 8.861940405059912 1.7032272781595463 3.251964116208735 -1.182482482664899 1.709453729719527 2.445791706969878
P 2.1216214058204512 3.388140578720821 1.4952769876048326 -0.3642145034079598 1.4767231279868827 -1.1515513403036812
P 5.048592680119465 1.4799937544069126 7.9338631733553235 -1.431122042318316 -0.3894203132496261 2.355117897332389
P 8.701984957291742 1.9654783298829988 12.495609586337636 -1.1012633906824068 -0.032668436767298574 -0.6381331493431397
P 6.728179604725864 8.224708837910498 1.4247426364325264 0.007383179837948575 -1.3279287600575775 -0.3074152350307286
P 1.9777818935184908 3.236275020459459 5.784161551285092 -1.0308318762337214 -0.06209085579347371 0.4860056032755436
P 7.096246776018612 4.245377010225561 5.898040198840877 0.5168403292682131 -0.9325612280855811 -0.09744095315799348
P 2.9286494475450704 8.839896140191872 10.265935712687384 -1.6148561595475992 0.7892723633555374 -1.5836205985720857
