# total energy = -340890.3611916773 ev
CRYSTAL
PRIMVEC
9.08952650772780 0.00000000000000 0.00000000000000
0.00000000000000 9.08952650772780 0.00000000000000
0.00000000000000 0.00000000000000 13.30344082747913
PRIMCOORD
 96 1
Ni 6.382302012595698 1.7961995347400324 11.659721162991502 1.238981703303208 1.3510352641680539 -1.309948007209441
Ni 4.653128647163061 0.18365206748332794 5.988131963793692 -0.5445575926778234 0.35153793638155584 0.15347737522727117
Ni 2.738301700485028 1.5230683492887274 4.816617417741779 0.5120945870531116 -0.39681377750021984 0.2549680729746061
Ni 3.497531680130826 4.176746556927017 4.9523385934442885 1.1262146613111055 -0.0828903090373282 -0.7971628218472078
Ni 5.210725657762757 4.738788346044657 2.866692172967248 0.13748999866007933 -1.3126530648454298 -0.8429230588014579
Ni 7.50261343728303 6.046843943100345 2.3045149499029463 -1.0546410628381773 -0.025561393408872108 -0.7733585203387584
Ni 4.797115838375218 4.668435409993771 11.595371859274156 1.0716980183204639 0.8938645828463315 -0.19165800006205055
Ni 5.867925701081527 8.153568975812787 12.448708434890968 -0.6646576779962295 -0.18387604212378655 0.058119015629919266
Ni 2.1271219304512257 6.703934912099656 0.38333078830579337 -0.46101293788594794 -1.0077523687064387 -1.7643074443346132
Ni 2.824288622325001 1.6537121154204324 0.5165841575305486 0.16942669946767594 -1.3295030465232331 -0.35410646843968047
Ni 0.3475080549375569 8.997776939843563 4.755208575886509 0.8581036231966382 0.628070108680183 0.22617326023010081
Ni 8.806451493986314 2.4031799434746732 1.379965569016848 0.07848009578477451 0.3759161081156042 1.2543489297878978
Ni 6.859847562239302 0.41461693893720836 4.7611549442023335 -0.26496477917600175 0.3710266412337868 0.08243290978493546
Ni 1.0407871562752902 7.240207893245169 2.2609197623206123 -1.4283563066477207 0.7427310252608886 1.6004515540864954
Ni 7.806239984549675 3.8778829216100714 3.549318349104511 -0.6216770606696455 -0.5286812877671991 0.008917614204603996
Ni 8.197544105607902 3.857704172510205 12.88721628560029 -1.3536781011075396 0.21276727123684 -1.297360400352417
Ni 8.040122594049077 8.68000708915377 6.9115496986154055 -0.2737348120591479 0.6433149506543953 0.13231102556230118
Ni 7.235454070822092 0.6922828892200102 0.44853450752556556 -1.1753265883464081 0.3390714284834289 -0.8761154863930266
Ni 1.881359309657443 6.38871921839052 9.346598431377936 -0.5101672881234117 0.41845809524287286 -1.0220309901126399
Ni 0.514764434300912 5.030634866809757 1.2371536535968586 -0.05276495040685751 -0.4764917502478374 -0.0799754493833784
Ni 6.354806194565474 1.8420743755990536 6.969073676792621 0.37610534130827483 -0.0409684719925617 -0.2825673227491134
Ni 3.507730129000218 4.40499365992105 0.8823521624981606 -0.3003148765405215 0.8830057857549567 -0.8200775216618521
Ni 6.1203873029953995 5.553891645833195 4.765545185560548 -0.02913291281021434 0.32693762133437243 1.297567631267217
Ni 5.4781577100223435 3.0902481712718934 8.896888648060203 0.19102293758121294 -0.1998701035591977 1.3091697342825195
P 0.18796504786525894 5.795891202605651 12.37612492900715 0.6631456122270772 -0.11106574303027968 0.35382004754751323
P 4.008799373540423 6.123459562993489 12.830370386109042 -0.7396019927136036 1.5479935933970954 -0.38651882333211496
P 2.668994059995621 8.47663802052295 1.4645890618635866 -0.04997710324907522 1.3979640675091087 0.22015533617079502
P 6.203547382056068 7.697683768108364 6.0888920932516895 0.8282276615728124 -0.1711493385857375 -1.1576507683331998
P 4.599818573527602 1.1172028065827586 12.52969975289973 0.2992216434763427 -1.3090440073379326 1.3879048835008936
P 3.852432247069699 6.271382519232782 8.341975774671853 -0.9892265419881092 -0.3766540147228932 -0.3784594433627482
P 4.908235301323809 0.918732992800961 3.7887401161270926 -1.2069290457430375 -0.19833669763380682 0.04101295207725195
P 0.0652573474268394 5.608801476154048 3.551778883960968 1.0792357214584059 -0.6822067426235864 0.5701634661713858
Ni 1.530439955378814 0.9588905214150202 2.6934812447141074 0.14092293560102825 0.48048441634699823 0.31696276950984764
Ni 1.6665556165366993 6.568710024550683 4.65913137054394 0.3611410066889587 1.0765201222994556 1.656835846413495
Ni 5.71445813360308 5.566098880085952 9.275624680658797 1.1574041995400324 0.6504423057277959 0.5750215655946355
Ni 8.68524265648779 2.5134359013942156 10.237676539432796 -0.9021697602779173 -1.6259067609348063 1.3042077622915538
Ni 2.3836465507649374 5.228504771834532 6.785233456108227 -1.0636854324286327 0.14460912620336386 1.5489688128261712
Ni 0.5023517767465074 0.1421520157872641 9.465691227078961 0.9082504192543583 0.07685824391063537 -1.0396417612158675
Ni 1.5520457601582658 1.1605507590409858 11.557710314670379 0.3724929413666681 -0.4368551096928218 -0.636548321354523
Ni 4.087932792307739 6.607495034644887 1.9194335187698401 -0.06818925538172772 1.2240749613947048 -1.4728495039640892
Ni 5.3822086670051394 7.852532943633287 8.17616190318334 0.48190700772613787 0.7309201486688895 0.20046659949261603
Ni 5.604702099647724 2.838750059179905 4.656829902403361 -0.4956845211262044 0.34464069504109035 0.657114575541649
Ni 0.7743540429914143 7.149667118567794 7.111713800159463 0.018165100944800974 0.2689425328768271 -0.1312980109167545
Ni 4.875858407497806 4.738006646755203 7.078535210085438 0.43931822652133373 0.704913954413115 -0.8709097738223711
Ni 8.06389170616446 7.398811043264796 9.17675335483276 0.28248633299953285 -0.6409731898950961 -0.4563558987299108
Ni 4.621815227951781 0.2914765770316025 10.50906617158341 0.2511024193716127 1.11010335757154 -1.1393170030210185
Ni 7.993538770113573 7.242489364427181 4.421225736561835 0.041824906455586036 -0.5622274991537608 1.030870699891457
Ni 6.892269903698412 5.877860553678893 7.070113763670562 1.5718698857940605 1.5130890682104263 1.0837289813430693
Ni 2.268309547463942 5.003366286945073 3.042190935071035 0.17044999852586776 -0.0027101998423114614 -1.5031283574532888
Ni 2.3565234033261975 5.343996297088094 11.44010820133529 -0.7834066486033798 0.6540081687021833 1.3901671971725091
Ni 1.0312704219025153 3.1859154389638293 4.006477908441276 -0.24958803960961531 -0.3721718105818236 -0.3536984343679844
Ni 3.8547682554114404 2.675829384015035 2.5038137285126307 -0.0353323567527069 -0.5327814259785019 1.5803529835644072
Ni 0.8759122328867843 3.314741299771222 8.360946525683715 2.207760261849611 0.4244917030314625 -0.7525230716506459
Ni 3.5861818332709166 3.065233794009356 7.468352284588378 -1.9138098940745363 -1.8150772186883128 -1.0104808233811953
Ni 3.905260575794215 6.946879779640754 6.23632057924277 0.2539748558234013 0.19295897826166122 -1.3140743706729885
Ni 0.8443815739892492 7.694375180418116 11.265739267390563 -0.4198883999314963 -0.935292510973815 1.3533572274330112
P 8.867733082468883 5.584923289719206 8.307480112190365 0.6897866118533733 -0.11223713763056153 -0.6814030157753684
P 8.541455434861307 1.4996628182382064 8.159506254601991 0.2357709312208649 0.8410299555438032 -1.4202845853831798
P 1.797799291425427 3.38830283871952 10.54151396371706 0.5265213040014028 -0.8012184799738201 -1.767328490549124
P 3.9753408260464553 6.176760547102325 3.9852456832059704 -0.3248447433610857 -0.2586036128446643 1.4245222776136113
P 6.579708351762773 3.949608376180814 10.62085553264401 1.3993954006389964 -0.582428656691984 -0.08784096817438419
P 6.305895451814851 7.837426150388253 10.287817095135317 -0.7556199654084147 -0.5618675447111807 0.05107342163704752
P 2.1974112398157617 8.493180958974193 5.953569038815204 0.4269522487568131 0.38949436102067114 -1.0515799074143501
P 6.5910157228799955 3.9831214608345116 1.3214426518639237 2.385257911250879 -0.4674340109209434 1.4395287783247723
Ni 5.186483890263053 3.0107239028598514 0.14118398120206782 0.1090865078167218 -0.5367962035648497 0.18332016962031655
Ni 1.3799446631056185 1.1631321846015095 7.006058051663093 -0.3220129303392454 0.47804443944693803 0.2509646082421678
Ni 6.889970253463157 0.6561311149880732 9.166390385531518 -1.4013262991131223 0.4019714104417593 -0.2546651970222066
Ni 2.7599165947911017 1.6903429077053258 9.265181723523286 -0.23902594782305286 -0.2936978854446361 0.5640367844483576
Ni 6.257439185395306 2.0574143507904696 2.534678125108805 1.7949367391846958 0.061654282476687375 -1.137388675650054
Ni 4.060827823922242 7.146567589989841 10.485732447793199 0.7798081326188441 -2.325258390768796 0.23330447195824336
Ni 8.309663416484863 7.479371517711698 0.05110949924037876 -0.43547442729521124 -0.6016893046938089 -0.07041325961624004
Ni 7.720907508626454 3.6968559094150506 8.206626360608166 -1.3787715537410579 0.19573782655837904 -0.2828982237259709
Ni 3.198213568482802 8.531965969068397 12.479930958836032 0.273537094226045 -0.3541884866305255 0.3455986880789854
Ni 0.02426903607956949 4.775846346080764 10.332729355125116 0.2555643117977082 0.9764494448280989 0.2621373370295356
Ni 8.438652888771445 2.2716999408937846 5.798770764639362 0.4462532630782701 0.3697156357318472 -0.07130594663383848
Ni 3.847187590209058 2.70472498914498 11.414193051984556 -1.5212721182418512 -0.6978287654315595 -0.9768371671848208
Ni 1.56091713814091 3.2753382018667523 12.625324299816544 -0.9449449464619145 0.9012860721213833 1.3023010321871442
Ni 2.935008146102243 8.53856496539565 8.096886687800728 0.4023020543083007 -0.0614287967294426 -0.3071514398463807
Ni 5.7825750461050625 7.603934390533578 3.5114295663351935 -0.17604214790166456 0.7476112361713253 -0.6024441805819625
Ni 3.4060637737380515 8.341558565399925 3.6421360502005875 -0.7208604504400424 0.4663148097148355 0.5567075977767961
Ni 3.5522415408660053 4.4789914961471835 9.573369395248628 -0.7184204735399821 -0.872321309457917 -0.8899037984263705
Ni 7.258023365423429 6.028837590863032 11.259686551613266 -0.2069717476009855 0.11794627220019688 0.9477397355982323
Ni 0.5659239259377093 0.20112668241328013 0.6774260579570678 1.2566991751876293 -0.3868600087216176 -1.1283584471269859
Ni 4.808395940912576 0.4055092332624037 1.382706061293249 -0.34719174359771815 -1.0584141567273644 0.12617740186073756
Ni 5.988607346036 5.72976489643379 0.264285258143201 0.21288734175447205 0.632725090953691 -0.10422789417283984
Ni 7.91837747447988 9.063112457199349 11.161653280141737 0.6872867282496551 -0.0019059587734612333 1.3632300064620329
Ni 8.97016295796726 4.946011373963018 6.04757110523007 0.41365578875822306 -0.5753519523508607 -0.4691970163586371
Ni 7.9764504600650366 8.841846110650675 2.3784955160284986 0.309119619316345 -0.6898873990972958 1.6514241884796204
P 8.38414299762194 1.569670352277474 3.6003505873686064 0.6027210883924329 0.6104130577200519 -0.19422884611302033
P 1.8892762873448232 3.2013676342204844 1.6795327336943024 -1.1325326331093335 -0.031589601880823014 0.8272046196249367
P 4.679542811525319 1.2071709410829756 8.164588208936106 -0.40796825145514254 -1.078245846741311 0.24515700042145522
P 8.788172455950352 1.6212988634879437 12.525096816618571 -0.7313965740846758 0.4337240202630079 -0.14970505266903247
P 6.348752569835514 7.689884954267065 1.2600038145708023 0.40371796081922084 0.5895148741148041 0.6202974067132995
P 1.8594626400261012 3.295698741499051 6.027429623189352 -1.085570405427182 -1.1893308730453 0.6405181046355485
P 6.759744605556044 3.9345470305688863 6.131954634574 0.7397770848388873 -0.6679741439639723 -0.25256614840133274
P 2.514008541571374 8.550181380418007 10.24505996190749 -1.136832288925952 1.2696876170274973 0.2304819149077837
