# total energy = -381167.9571208196 ev
CRYSTAL
PRIMVEC
9.26534065343058 0.00000000000000 0.00000000000000
0.00000000000000 9.26534065343058 0.00000000000000
0.00000000000000 0.00000000000000 13.56076260127905
PRIMCOORD
 96 1
Ni 2.064827447603789 6.081621230701422 2.3549623186825848 0.6822897892556959 -0.45557788291330575 -0.9374620078213082
Ni 3.732134728229081 3.494682582990294 1.2373778792613277 1.0847052292134094 -0.11505018159932442 0.14597309643042602
Ni 3.3126001123241227 6.203516049757201 10.099201641203877 0.2916551439829945 0.8879687861871869 0.7975963098402005
Ni 4.197023185672352 8.695985286166055 12.875659121832177 -3.9993967330164804 -0.12501654878341698 -1.3761482571855976
Ni 6.7588342300633775 0.39605809625434063 9.181530820158798 0.023528165028927222 0.712651946487321 -0.4459953814311932
Ni 4.325968928816108 7.482763076010863 2.8307143878119994 -0.09227123603159593 -3.2114248336399207 0.8763635978480907
Ni 2.585474723918881 3.117055101973545 7.672231876089566 0.6317210751692088 -1.3930139225926848 0.10322233572646095
Ni 1.2954799027347907 1.5646936350610823 2.88160797640971 -0.13542000350492805 -0.6587359131951559 -0.6275857128445965
Ni 6.047950983479722 5.481486598603455 10.231934128992519 -0.10551498841537957 0.5720102895721375 0.35588772870981933
Ni 6.754192294494288 4.162380077702638 11.978737104207099 0.017767094175433918 0.152767236534124 1.562147516299974
Ni 8.91843684520453 5.113532133024091 2.6138507556033 -1.6066327431965426 -2.2186087745283403 -1.933076712723948
Ni 7.682366305481723 2.0812734269154345 10.910216348643242 0.3750691867342766 -1.6196453534061266 0.6562825665586568
Ni 5.382903376138155 6.745362425038515 6.176751260778299 1.8094781273339804 -0.4334311716129374 -1.7858450612960728
Ni -0.023682210208769313 7.178470764713365 2.698333982960734 0.2813995276932573 3.0717666236839287 1.7572870471527218
Ni 8.777705588999133 1.6359626338583646 8.50764222495291 0.7274411889813536 -2.284590480735788 0.5992806952523162
Ni 1.2952390038829018 3.926262141489697 3.2763883822149933 1.8015588724869036 -1.8273334103478467 1.2200756104273245
Ni 5.438754848414548 9.17606890195924 6.560602270980193 0.9300484889660562 -1.7299392512673886 -0.9603219431386171
Ni 8.632795664247507 0.573872951105896 3.960786653101558 0.7415989685389744 -2.429807929947112 1.090594855224967
Ni 6.943714833547643 2.9627871833600827 0.7737041079520044 -0.006623675964104722 -0.7603644220719357 -1.251344081523303
Ni 9.106069254804604 7.153472876159665 0.43770487507570105 0.7480686354237182 1.1908714780595426 -1.509531432766155
Ni 2.841439019391283 7.982155661316988 1.2886346692049633 -0.9419454975139584 1.546427534461556 -0.8187526322028414
Ni 8.342290179550421 0.33179832751297933 13.120105672582154 -1.1953161440944575 -0.29206754893006476 -0.6259702887283607
Ni 5.621800914488275 2.346910737825222 2.6460848750541253 -0.3480875159391102 -0.5482584385681784 0.7688400636431145
Ni 3.128173510522263 8.934252781365082 7.175623525590849 -0.6011709702964936 -0.5116207327404866 -2.802153804212955
P 3.443158024707443 2.2588622074598326 9.730253931127494 -0.09874218846792027 0.21179539424187396 -0.059638794708555355
Ni 4.408124702650677 4.336457294213733 6.635376348072459 1.040172436908357 0.6183184286100577 -0.34999321760225527
P 7.290127382563867 8.644627504011435 10.98386468686995 0.8772925374202634 -0.682475937124573 1.081933837115859
Ni 7.556950657052184 0.9192311043780826 2.0066262849874335 0.2541833722897816 0.19717713010806687 -0.9375170294289595
P 8.933594942192617 7.7377452453947955 4.876911088824319 0.28528292190806354 0.5040046109561256 0.9801351212098023
P 0.13526470533561158 4.064000692727398 5.471388304039082 0.29529376917684624 0.3769412069460089 -0.47185476569645834
P 5.96343254782855 5.398478413446817 13.676435628066265 0.8722979124191492 -0.047122407409099495 -1.2260937915969465
Ni 4.246907778694267 5.067029389269077 11.862453375332239 1.3828560082230765 1.2963018771809158 1.089259424242995
Ni 2.5667587361952053 3.6610232402195724 11.179207712798558 -1.3509046521274606 0.01149977310948342 -0.7062745822060675
Ni 4.589484476761182 1.2731596975732393 8.095232655859588 0.2437341519319996 3.6214705364493827 0.23681968420035343
Ni 6.198123621611073 3.771883038790748 4.852895326359088 -1.6908345719564428 0.3923503424122275 -0.5514185814637148
Ni 3.895000882786885 8.956285760972458 9.3252204995722 -0.808912249073652 -2.5722969244836795 2.7598200764417506
Ni 1.3218212656547952 8.999276940694168 13.072588374047072 0.41850437509977606 -0.313864333090182 0.12456891972303707
Ni 2.4976207657030938 6.5874439622848895 12.9450769056061 -0.5878472566043941 -0.047517071744356876 -0.7985293631774312
Ni 8.327650941627944 0.5034980576627397 6.463141081244269 0.32938505443360044 0.7044899795018189 -1.059107069029331
Ni 6.031690310977221 8.035449899627176 0.0814794039811883 2.3593409342748015 -1.436746330483629 1.0459304224380568
Ni 8.752911537935491 5.705105590539546 6.8806632652019095 1.061218973166011 1.156985623945375 0.05274798112599303
Ni 0.2480415028473953 3.5190504283929007 7.609404528982898 0.4297308399432147 0.6242026553049765 -0.7911343562649407
Ni 4.197486452695215 4.392040071616865 8.938318412757729 -0.6677594568500047 0.08383158990467499 0.0904030724746056
Ni 1.5968999584905355 7.113557789469768 8.950496776254758 -0.4064893529167709 0.582220654446236 -0.18579177108926065
Ni 3.4987871288128622 2.7855412204126035 3.63233126042556 -1.0806349157987776 -4.2224113930129406 0.2081842798518479
Ni 3.1130339442150916 6.775382128120054 5.085679593075506 2.5850591092453548 0.31748496056190484 0.85951078795681
Ni 6.2478970305475 5.425857494498036 8.030832980477323 -0.7294399645789372 1.1081858288338526 -0.32906135254559454
Ni 0.7598839261259479 0.9979790859924692 10.834411965692128 -1.3349992937511137 0.02462165520342211 0.022406135609342057
Ni 8.914841893107111 4.8676577933096485 11.125655898023659 0.19961067925022397 0.07394338425668555 0.08108230929431197
Ni 1.2477170726775897 5.95956890085787 4.478034476002879 -2.4975367007526534 -0.264267495998661 1.1996047441674824
Ni 8.043223520270823 5.216831413782137 0.41199077570465353 -0.37009667322034967 -1.8400225757797406 0.36876098512806166
Ni 5.262287174065479 7.600590410605902 11.041118005157527 -0.05135701431573735 -0.15540261727444202 0.4494987665987613
Ni 2.6089808926589617 1.434339560167821 12.087629870999196 0.8134307057692959 -0.1811928388646686 -0.3316129153228547
Ni 1.0364951062733196 1.9623157207846094 5.335033994665695 -0.34476950730947076 0.4524028276194338 0.512699310516646
Ni 4.00098711227754 6.760946727687634 7.808002469014144 -0.6963249271925234 0.10862345213737422 1.4671537391308926
Ni 4.097559755863612 0.372979986243385 3.3071715493502105 -1.0610726773961339 2.029997017491781 0.31879956560827033
P 2.5932205485411544 0.5536745089090583 4.963293710975492 0.7622780941548808 0.4258289337856473 0.9456543138241135
Ni 7.240455892372469 3.2382828165164 9.002664349165343 -0.32343680726996554 1.7622497904746361 -0.9087211882431898
P 0.27312463253330305 9.021578615174803 1.6027195188317434 0.5872165649989306 1.122726188541873 -0.3161952952162038
Ni 2.1382738014085283 5.782044977696674 7.113515168903664 -0.46665959464876405 -1.2404027520204508 -1.0148642971608715
P 6.145227792940546 2.000915129129575 12.396828180068816 2.822514113036861 0.27870346891833286 2.343520936523409
P 2.600243676607761 8.593992418412482 11.185350633521725 -0.359586003497013 -0.6717359249992496 -0.2773004179232192
P 6.607957426057275 1.5274932931251635 7.3951991229513885 1.1948155503089553 1.8144794372033137 -1.4162844630848512
Ni 7.977893604706646 5.747522319152904 4.543533020763377 -1.2125134818093506 0.22197207766455965 0.910964989972044
Ni 0.4685751364112165 7.35197353011611 10.997317034679853 0.6446364976792962 -0.2318533413340136 1.7014493713578116
Ni 0.9137654800423419 7.784331377213924 6.7928167192584885 -0.5838926428320202 0.7634008949054143 -0.7036589989600914
Ni 8.16654520175702 2.7795558104772105 4.089084748947352 0.46310710141081535 1.2241184130381306 -0.7427042857880112
Ni 2.710491962708757 1.2881788144544657 0.9124924222635138 0.05279940318921874 -0.1448595516512731 0.04922839800850876
Ni 5.111994086508184 0.9868977388055803 0.6166000686245735 0.7969285943492147 1.5991076384640912 0.5408279504320621
Ni 4.3187790246212705 1.9213351199421262 5.69448936344361 -0.9058657210722656 0.32909529110732355 0.24616461575036314
Ni 6.281530216407372 1.2205881558187177 4.644412194593986 0.7293180942890922 0.7392713488470624 0.07531661045512834
Ni 7.4399016110555545 6.692855740667194 12.063261099062544 0.00857437193257233 0.2879789806829879 -0.19927669294957293
Ni 5.999382068802738 8.266258795758105 4.264656464874204 1.1515855359757263 -1.1439812412659072 1.321547282011266
Ni 3.8547059171382396 4.719755163590328 3.2994822433047264 1.22904027581978 4.5458456291797456 -0.15650433497905303
Ni 1.6463768765323303 0.26744219923086243 8.760089397187734 -0.3981281254362692 0.7313654637364243 -0.03998296815084082
Ni 5.472888362659113 3.1453421863895747 10.364572110308496 -1.269991264310845 -0.7486080528669559 0.08138261414355015
Ni 7.255771500148328 4.023362909481834 6.848713591703123 0.196801491936203 -2.5810211917305548 -1.78290449061051
Ni 5.327922845864745 0.8189588103474237 10.989112575704944 -1.15072061687227 -1.3236360462194945 -0.5542406242935423
Ni 6.949672447461664 6.927991550791664 2.337536066350561 -0.4679834556665102 -0.16152595656336052 -0.24330066393900682
Ni 8.868885804439078 8.497873776508815 9.226308357520669 -0.5524742764217387 0.31863012990994155 -0.3786185946484318
Ni 6.435112499826997 4.462669761922596 2.3803206289800736 -0.3548875695800791 1.7681869818946774 0.3547039928143633
Ni 8.275922545855032 6.144653341832195 9.249538419115122 -0.09025317716030262 0.2515420780121926 -0.33922312356994483
Ni 8.904223812943085 2.7646108163196415 12.899580377824746 0.9308807550593646 0.6112062430453087 0.2174785606695803
Ni 4.3547007495740875 2.866297927838125 12.465947619880012 -1.4696307399164754 0.3649272132042683 1.8105749599425849
Ni 4.271164440011386 5.9981868398837515 0.9841116509300807 -1.2588308768186514 -0.10617241949372037 0.21949970486466713
Ni 2.5112037548134443 4.036899571889898 5.419165139085752 -0.6007513662605718 -0.0009217404833209931 -0.30315697397500696
Ni 1.6158568450660995 4.695804258508298 9.10016630639928 -0.903412888656399 0.23411436945404843 1.3693381762422996
Ni 1.5173940720267445 3.9839852125384576 0.8898256933688607 0.0703294416531821 0.14505341282963405 -0.8333850374040357
P 0.7121979983945421 5.273896645658432 12.921088012628195 0.7206305938174233 0.8015673786728066 -0.3798694363363974
Ni 1.9302761734833869 8.280277255869947 3.6715088260150592 -0.40177446393960486 0.2755798356876867 -0.48073201358143014
P 0.08365953859078276 3.1460370869238696 9.979405421761669 1.3233092590076954 -0.4121990017070385 -0.3363110921294724
Ni 5.946690077622272 7.612385189008001 8.75657783315443 -0.479293995583323 -0.5275219773517753 0.18264936880553706
P 5.768156232351233 5.841546994113228 4.081220327967225 -0.9467341771518535 0.5343148319038927 -0.039376702025409605
P 9.033466046981475 3.014163496195617 1.645557820435908 -0.5692453252324906 -0.5575617182469752 0.5826024632656869
P 5.824026235308541 8.929351416263188 2.2111503367751464 0.4188460747099109 -0.1346422447986391 -0.881910495808249
Ni 7.62580140199012 7.833780499234347 7.254031469210454 -0.12116786446128812 -1.41812948671339 -0.6350377982472676
