# total energy = -340888.9171114272 ev
CRYSTAL
PRIMVEC
9.11607454676465 0.00000000000000 0.00000000000000
0.00000000000000 9.11607454676465 0.00000000000000
0.00000000000000 0.00000000000000 13.34229656612810
PRIMCOORD
 96 1
Ni 6.539087780505453 1.6852613231007643 11.085073522045278 -0.11771950090137145 1.5818005146442113 0.8832094171253305
Ni 4.357228305349892 0.5081874174188585 6.118830370162496 0.03142325150628782 -0.7371033946614661 0.4588046173807195
Ni 2.663334059807716 1.75112496052336 4.695620632904456 0.10542551402536682 0.09221492887236377 0.5425637021762463
Ni 3.560656609623408 4.295959169416705 4.753286184633745 -0.555857591071675 0.6958173914284854 -0.004739057346882161
Ni 5.236181965282326 4.496640430900585 2.657865326784904 -0.46533316252785667 0.4553248863622352 0.6861065918986248
Ni 7.402188587084546 6.054057926843635 2.807272316289941 -0.8646622502507625 0.6419139565418106 -1.1931083378098613
Ni 4.943009013100918 4.461233597994099 11.501926990213342 1.1146333842314096 0.4188566162328721 -0.302173269905499
Ni 5.497922692988565 8.133771788529273 12.861719844413384 1.4113559154349824 -0.5265326168553125 -0.04142638546558672
Ni 1.9848155273507986 6.611998143426687 0.3207408727253085 0.35826548491337656 1.770035605067642 1.6261834116349607
Ni 2.8310880606174886 1.731771534606658 0.16929735220294168 -0.16838308869451 -1.067693268036445 1.2296588832403854
Ni 0.6069701110486151 0.4845740499426302 4.706135113098673 0.3685918065400491 -0.7721634715893928 -0.07594164563363695
Ni 8.791706225027683 2.741559094094677 0.9971308018136202 -0.7721914966138508 -1.4638118192418532 1.7147224343176337
Ni 7.019696338091152 0.8375894724161682 4.854554831747951 -0.7463051157653922 -1.1429561424355026 0.331105636669133
Ni 1.0062961029990427 8.03915605250033 2.629553534571291 0.28575651911037236 -1.7121461889500253 -0.11192551992741369
Ni 7.6690252003713 3.882171437063897 3.8405930217996116 -0.6865097408743144 0.5236465535567691 -0.05261479798223842
Ni 7.304473385765127 3.8394352803528755 12.713621011582417 0.6634538874961154 -0.2352389699767949 -0.9225580941262821
Ni 8.421447747857282 8.91759009619289 6.9020497517391 -0.3673396793005028 0.5562301439197453 -0.28075495213072293
Ni 7.167157957322696 0.7916490155592586 0.46674118523313785 -1.223859502949789 0.3708854876702322 -0.12100022853517224
Ni 1.7717364047050193 6.524502061491452 9.43603218568603 0.8772783963528761 -0.4051410664189926 0.44857934010828554
Ni 9.41635787395102 5.019383484287977 1.4100807669305628 -0.4391382493000437 -0.4542239399885726 -0.6428259268331187
Ni 6.341651841502189 1.9387611195640921 6.99212385951006 0.5631772646615398 0.12435628949159876 0.36058770528865
Ni 3.546608738998049 4.494324948007112 0.7053088518558829 -0.23137537325633054 0.31794750202062017 -0.9010518446233902
Ni 5.912685845300435 5.63016958407363 4.799183795941051 0.011142132659748552 0.3161299891959072 0.6532864600448104
Ni 5.274423897322159 2.913078033624939 9.128825948598276 0.9326936398983872 -0.47258830142837316 0.8182137289802361
P 0.29165968383370666 5.737547824239824 12.602079460245163 -1.193213753039474 0.42577828305336995 0.9347752050177643
P 4.109243733888732 6.190698765781668 12.553299346217715 -0.002721255585904991 0.3917751866350479 1.9337467422077794
P 2.497986702635253 8.723107765289962 1.1672185176656331 0.47603383677481237 0.2026103853084962 0.2084745573987571
P 6.780071206839891 7.789330034013654 5.775426024911746 -1.5502733905702075 0.3707713306898711 0.6864333791104243
P 4.936855662891886 1.0853051196830066 12.542492240035779 0.09291092649812385 0.11172805920462693 1.40569306072225
P 3.846582282669736 5.964829790775488 8.41826806111223 0.6031689745631289 -0.45305074561607783 -0.8668124638245459
P 4.617045541361158 0.9998236901865801 3.9480651575319587 0.8923059801099601 0.48110353798823596 1.1361517179191594
P 0.26877286748586315 5.811543000012726 3.4235262374909676 -0.19988167352342348 0.1806603633999663 0.00130149242024292
Ni 1.5121470705533462 1.464223867517971 2.4772111691146868 -0.6425230508807191 -1.160836622260349 0.3934731431627611
Ni 1.6152316396847946 6.194062597229272 4.953087744939592 1.8443181178313013 0.34416889761099434 -0.4249483309529068
Ni 6.0731196383800565 5.478304900914734 9.255724438842394 -1.0026379302980089 1.1337999298575312 1.0152946998300707
Ni 8.684090966927512 2.3425849826154623 10.1535675165054 0.3222206754746773 0.15151588062552615 -0.13901491994503798
Ni 2.2730293350674478 5.089431399852715 7.074178556645634 -0.1287605892068815 -0.4510745957263135 0.7200932332567147
Ni 0.7993201921531844 8.87706914555712 9.08056636241814 -0.6447429413501735 1.052623518187516 -0.24396426566493465
Ni 1.3319587442841379 0.9877175434049598 11.636070024770229 0.4478800000484157 0.23999988170054798 -0.7980807056757868
Ni 4.376180623993709 7.09341803163254 1.4656250081507534 -0.9168800699048982 0.3992069603227447 0.7552304432794801
Ni 5.429369813622762 7.789649096617085 7.8920618110664496 0.6126288344244482 0.3933024219128517 0.1061384809319914
Ni 5.460811154172317 2.8274416308639885 4.958838164660861 -0.35440343085480897 0.6115677401497855 -0.03043646211298629
Ni 0.7514261605558371 7.05056336595453 7.05786169510616 -0.3490653064713472 1.0000061491021166 -0.10683499277838375
Ni 4.954258248890465 4.530315209674158 7.134980037962934 0.17269174337219292 0.28307331585125445 -0.37746108400522094
Ni 8.28067732722341 7.169619297406308 9.260073717930883 -0.24491711649650724 0.11225462113205828 0.3218666345693682
Ni 4.86741852431086 0.1452637336976224 10.553009282600499 -0.6666502829462261 -0.8059475100183732 -1.0019622443872227
Ni 8.603112878176656 7.414559100023295 4.832312521859038 0.2642980921262803 -0.258565046297245 -0.5152112783052224
Ni 7.222838939658643 6.168893115855737 7.211083761740797 0.569618135190877 0.10223863165695296 -0.6043763646076687
Ni 2.376031859529442 5.564743518221454 2.534155639360221 0.5728618389391553 0.17189984359851684 1.1586023336131916
Ni 2.248999362991882 5.523812344238416 11.701607306729885 1.553113431122164 -1.2881095711781105 -1.08712592283976
Ni 0.9587101947158663 3.625672452128315 3.6841411300108127 0.7131468838458687 0.2832316958059896 -0.22618765840780397
Ni 3.6693931448727817 2.631947415704464 2.6702340165087763 0.575944334519221 0.5301141635589838 0.13338471824245415
Ni 1.165161931284659 3.1441340549554737 8.362431193904321 -0.9809064521581882 0.542059251736002 -0.38636481425275393
Ni 3.4455752866029443 2.7191335511106516 7.1771546444919165 0.10360825831096994 -0.36512184571357764 -0.4918317230390175
Ni 3.8814786154107317 6.742713534015282 6.104207275243522 0.6109522180529736 0.02084187644601572 -0.9818834713594767
Ni 0.7937429778452061 7.730941577585733 11.504074737338154 0.3766912957187319 -0.8182931760679197 0.019567894829598555
P 9.393294205760133 5.501013042204656 8.374839082748043 -1.2403503015159607 -2.2177271432543355 -0.5364359920119536
P 8.588518043088273 1.7050979009598046 7.993236562614502 0.06295114691123996 -0.22570069146905647 -0.6469702880187955
P 1.74580117308325 2.979324546171652 10.587378706242117 -0.5757918681017568 1.1291097234707135 0.4191996013945877
P 4.125597971333181 6.385955963007215 3.6610191189438686 -0.5574725009672786 -1.3019058536312547 0.45580696820497624
P 6.960460086745543 3.8706396029684527 10.538879367305688 -0.6684549402551326 0.6224771879734377 -0.20619476022564487
P 6.266927379778588 7.585439914346694 10.056369196603539 0.5786661043257583 0.04514291508522548 0.38217880119586434
P 2.2091894661580445 8.218095476578965 5.848208762791608 -0.13790728870315602 0.8387586430111232 -0.29573317070711
P 6.9597034525716905 3.9358468830354187 1.5161517620301277 0.21650694078493035 0.5950059791363624 0.3741680150762459
Ni 5.131948770778526 2.7883883682040023 0.6437753497655684 0.7039983845773812 -0.5563913520879579 -0.8759653339684074
Ni 1.7728941461517556 1.0047646025025727 6.981783496336572 -0.8607066080371241 -0.26703528855178527 -0.2246647940053744
Ni 6.9993583761410045 0.5087735810017338 8.927757253953088 -0.088650351449557 -0.6064134496423556 0.7963444397109704
Ni 2.944574070620796 1.6459528103580328 9.462529879097277 0.2770924156774712 -2.6371766558762 -1.1142356345723585
Ni 6.255304384939306 2.1066700936383884 2.7533160952274 0.8321807326832894 -0.09031076987111543 -0.5887006057436248
Ni 4.099835945124703 6.658171060180383 10.498972840083383 0.5143473876430303 1.1676240774958278 -1.3933926460883423
Ni 8.428649446620444 7.266386426989818 0.602171409493009 -0.731844717365688 0.14388921731820378 -0.07806409129327846
Ni 7.357100483182517 3.7717848923510644 8.359642586750331 2.1503287592050193 -0.5129980727039875 -0.8841103316730451
Ni 3.23041769899767 8.308490470168232 12.188134019805515 -1.0250957450808929 0.30882008579805525 0.6356157822379247
Ni 0.30861102415029035 4.870672962865859 10.699814544476416 -1.7019329958624496 -1.2652858884153757 -2.353701219490521
Ni 8.74767558575417 2.519828816858719 5.542482976183774 -0.14778443860755194 -0.8422975094023173 1.521953974800224
Ni 3.7834443514878813 2.5453264769100685 11.534788615151886 -0.43366899865535635 0.023855209351042787 -0.506188763091638
Ni 1.0370993183417352 3.3724461378964996 12.619491162318125 0.6229795815311528 0.6608313622716039 -0.38287274193909543
Ni 3.006317242421937 7.978871452600589 7.993930295875106 0.058296678858364114 0.8432981827526896 -0.5128466347277877
Ni 5.793885163931402 7.815319962081725 3.7059294593954144 -0.2524414498980104 1.18100538389874 0.3227580360353861
Ni 3.0783524622023313 8.49276279776136 3.748344730288127 0.3432620695260088 -0.450823656057772 0.39737042133463824
Ni 3.2939385053036423 3.9364667760935133 9.353763260802436 -0.5951957265496652 2.855539933143579 0.44567887863203887
Ni 7.438525259578174 6.354915729730546 11.560912549513398 -0.10643158669237798 -1.0395157771609647 0.3670951673898646
Ni 0.46412942992219347 0.2981658261213892 0.6116585081041778 0.19336495545082827 0.048553740538987346 -1.0707526236880591
Ni 4.6975040138721385 0.45225483142992035 1.9366744501376516 -0.5884188128371479 -0.5273486849987047 -1.8705333427740882
Ni 5.783310517646251 5.560905650905895 0.417549936250983 1.3899905623853286 -0.02073620410608687 -0.2910969574866793
Ni 7.787032783268948 8.753619266252375 11.370971846868455 -0.1562384829121761 0.0496199770199726 -0.00027150849383179046
Ni -0.08399915580162863 4.799230287920408 6.021018538454609 0.14225399570762598 0.6033116707885804 0.37770071081985274
Ni 8.090242533346865 9.059892017323232 2.750181077246828 -0.6249359339265754 -0.9300245777066564 -0.4514525478910225
P 8.380042538006288 1.8618396839140072 3.394760464773044 1.2611284146035764 1.1191240730129115 0.6027362579010845
P 1.9434467817973395 3.3399473327184297 1.5948982357718395 -1.0570748690906504 0.9049069567034222 -1.194541470711962
P 4.842659266284594 0.9239414870162427 8.41149025980791 0.07096990345065841 -0.08335670715078547 -1.7247474226538038
P 8.46376456514665 1.5992329291413128 12.233070796872774 0.2822783307537848 -0.11266188387280597 1.4130117058708505
P 6.47327883952916 8.172423943916375 1.6386471883468956 -0.014253424595220613 -1.6026357062220076 -1.1318777731341538
P 1.7434765741153935 3.353430006731996 5.8090087313340435 0.10117985137513544 0.10326398759767377 0.7112350115351364
P 6.892837046966882 4.241445044601879 6.179524281802067 0.32830956198123457 -1.2272317618561315 -0.6793607885343591
P 2.664810863857884 8.559519810473564 10.032566214780129 -0.5767737723990518 0.46254608670102276 2.041224253666168
