# total energy = -381163.85365787445 ev
CRYSTAL
PRIMVEC
9.32285425031739 0.00000000000000 0.00000000000000
0.00000000000000 9.32285425031739 0.00000000000000
0.00000000000000 0.00000000000000 13.64493956388730
PRIMCOORD
 96 1
Ni 2.049974415562793 8.132717175735163 4.200744732605619 -0.2364365898293218 0.6642871820306883 0.22144063064112185
Ni 2.9195076929512975 1.9407571799903482 6.679361604016097 1.0583406231769517 -0.25267439184442286 0.5739908103372761
Ni 4.265271002564438 3.030999704919788 3.6722899363835686 -0.7294589907423309 -0.18281057697374967 -0.19410183361685282
Ni 8.849309031905916 8.08481635146105 4.102842645032687 -0.14036757731819052 -0.7591372345330539 -0.5266562869173704
Ni 0.10638681707310234 7.555063813950764 1.4991149364105067 -0.18790316100530866 -0.4542077420386565 1.0928502269180467
Ni 6.743817020283892 6.724630586582816 4.423716636832293 -2.334979731821617 0.7504340503321012 -0.7048314220016377
Ni 3.342746622572965 7.080502572606833 6.629175748206449 -1.609927097677098 -0.21274001754333038 -0.6684554544757649
Ni 7.149743409874997 5.395312791570597 13.624772291830872 -0.47448217601697634 -1.1285831615432822 1.395735435288906
Ni 5.597357685239058 1.7488835201255184 5.325892955504056 0.1986359740417805 0.4971127689322986 0.3562111734875091
Ni 1.2357070171733022 5.245130935161164 9.595995061053866 1.1325238913585849 0.4872217350708319 -1.192349862377282
Ni 8.259601219793291 2.109631358834502 2.7688587615523486 1.2008532718626028 0.4524187684590337 -1.1106011231435646
Ni 3.644238400735772 8.75717126501198 13.099837805310244 -0.4507676060088559 -1.6615671904508933 -0.5182125270253914
Ni 3.7779933882524483 5.8163142362125475 8.517853600723065 -0.5332380538999462 0.2164945994897562 0.6872527896879261
Ni 9.29965882119849 6.005624111204784 11.707098498547941 -0.35547583798338134 -0.4151133471403561 0.7044650398011545
Ni 3.696567580698908 4.438741348471094 1.5954750239182516 0.5369790089996171 -0.16226694849444312 0.44338056951616545
Ni 7.093796962527986 0.4267107604818623 12.552470667297133 -0.20381751824271996 -0.7389193648242822 -0.4807646665915784
Ni 2.405212447509223 4.496766792278426 7.076715629278661 -0.044510423707549145 -0.8393034597709996 1.2322999204076583
Ni 7.813027186403989 7.35188153208428 6.989265393417233 -1.2248884584349358 -1.3723407105140495 -0.564257385099596
Ni 2.6738971021569267 5.15162270871715 13.180301494322507 -1.5888893031701925 1.7729738617603596 -0.6300894531030568
Ni 2.0684150209372953 2.3516340050990787 2.6395591660015336 1.0392162436426748 -1.946358774544835 0.1556378732136997
Ni 4.566380543709877 4.083680450752225 12.997622965438905 0.7623400577410677 1.6265837323971728 -0.259898677507004
Ni 5.546538807637232 9.244215807971916 0.6793078981253997 -1.4855150152468997 0.730910892697509 -0.3470536753579571
Ni 0.2751053042540841 9.175720799030325 13.399330763557836 -0.3318597412263381 0.2304310070651902 -0.5464301271101879
Ni 7.896690478937248 1.957491703067816 0.2880183894432768 0.3336168331267609 0.3821147807271484 1.4273486913188127
P 3.0112352542656193 3.6295642284104606 11.36821275266161 -0.27091842565627533 0.25860412706529656 0.2599778674843716
Ni 5.711879624784248 7.09147557186153 12.678085870914678 -2.2602799290148816 1.7889357844062546 1.4157571298264713
P 4.445836040427614 8.661994247687261 10.981133444882989 0.03021380457921893 -0.6048818434891776 0.6835406309436616
Ni 0.8736744891717978 4.123507683391191 3.09059232049833 0.06826973091067597 1.705544881583424 0.7888561017537253
P 5.817964381385089 5.634910141481978 9.280087353623824 -0.04788448238610463 -0.12803219568128918 0.17768225460824882
P 7.11414875298933 5.334070963104922 5.809142164567146 -0.16196947185868232 -2.265908845165885 1.8729596928273937
P 2.1855007453550783 3.2961789664326018 4.8107549240529535 0.8604307286679181 0.06875386963594611 0.3065814262755236
Ni 8.43974672922277 5.235826726787173 4.059424249001275 0.83930011733689 0.43079296265914196 0.267452578594862
Ni 3.365839332134463 0.24362389058946343 2.322368633849786 0.19820865669637477 -0.6528000073266951 0.10313748932213851
Ni 2.1804664041507147 0.8995351541102874 0.4865578899768474 -0.3997196382931052 -2.7374527644901434 -0.32213531484972263
Ni 2.427186414580862 6.855803143518736 1.7549163390020808 0.4155602048697875 0.13714804193962832 -0.6303568478318305
Ni 8.436427793169523 2.9813741526404773 5.327966358251927 -0.05594180547294236 -0.29259951017413477 -1.2723926746634862
Ni 4.6738916969852875 7.139497593238709 1.4174094432345012 0.9372750886214826 -0.39172505012340275 0.38560685304080694
Ni 9.196631960736598 9.135595235060729 6.215815314770233 0.95834065104253 0.2800954641698531 0.1536784354944837
Ni 5.508352397316726 9.241624054537077 3.1722577254017823 1.9285847383908654 1.2908238847854803 -0.6798436417080486
Ni 5.458279348041471 7.8810746983496385 8.82501460645323 1.7839095348362568 -0.29062567427721564 0.0345661680106437
Ni 5.037902534623025 2.912161283934559 10.48920559095482 -0.21242428607512448 -0.16983936152506235 2.4702493257916105
Ni 8.054945926981826 4.225509029904048 1.9502161477421025 -1.2716915348314033 1.5452646245017063 -0.30393704667414106
Ni 5.424511970555907 6.329071210731066 6.899563688294962 1.9764049431979382 -0.3305083694047663 -0.2828563147444419
Ni 6.6324089140021405 3.4619579577214794 4.031888267184222 -0.8288598958401725 1.2025160042770064 -0.5011771688096593
Ni 4.588317219365187 4.203488448561997 5.841875637535 0.22791004041554944 -0.24938929333524792 0.03206397041408026
Ni 9.23515399380406 3.6538316175863095 10.466446639569464 -0.45994978672875625 0.6997565785818916 -0.7263512983512845
Ni 1.7731042950309568 2.5630576899741873 8.773040627230625 1.3664302585668855 1.3083865762595919 2.045468116544187
Ni 2.0832476817820034 0.5156535852818446 10.358159824834418 -1.4388024416817091 -0.6314570228745447 1.670568365508239
Ni 5.917290068776368 3.098422585641932 1.5937018170718256 -0.45417046104281783 0.045991379128449826 0.24849969164144298
Ni 1.0228849041858705 1.3963211473006667 4.695373417361389 -0.23096451097115708 -0.3665128125238333 -0.4770969879320041
Ni 4.161479668067808 0.9137953917143514 9.516472048018493 -1.8482246519745589 1.6830968369925527 -2.3892174101192594
Ni 4.0301765911747385 5.455044317674964 3.769073281466643 0.49472164299230287 -0.009259828035371148 -0.2824788768003651
Ni 7.125765029175696 0.7083569791599862 7.009473611925711 0.764328034705374 1.5720966570928858 2.1413774635490026
Ni 1.8148613584649287 5.557110924166395 5.227198425334139 0.8195165069520596 0.4022524320172879 -1.841254905524945
Ni 3.2488748048197476 8.03276685712038 9.225057342833088 -1.6187974035835346 -0.1083444874443747 -0.16554356236318588
Ni 2.0684243437913774 6.851962127636888 11.004834936816051 1.5737822723254251 0.5573017797173693 2.031410095789224
P 5.214244319586985 1.583757128622391 7.576120412180719 -0.3798136433977975 1.018434273900317 0.35753554872588744
Ni 7.19210645882431 7.162879311276754 2.300632399557242 0.3018616522023511 -0.06872738727338486 -1.0093675357123584
P 4.151392339950917 1.8778838520602956 0.8060940522156652 -0.07807874658129779 -0.19172510585456012 1.053272721735741
Ni 0.3214939615960704 5.570834165375327 0.48641058888234934 0.4645404914232322 -1.859405865402359 -0.5719622099430214
P 0.27771570339708745 3.001147926148728 1.2427606885718607 -0.34517985537401197 -0.25703266881311865 -0.3625545992070337
P 1.1274780041335661 6.394657489199026 3.346953094334834 -1.6843451075773574 -0.36836812056501717 -0.12615246216007306
P 9.105491739229452 4.212121411442073 8.326455406416423 -0.22935962837788243 -1.1741158558677587 -0.04391675598760824
Ni 0.658412585271066 7.183995575772835 7.675892664282531 1.8717183642211248 0.38118841225813704 0.5829693596868024
Ni 1.128242478168303 0.3777862868295298 8.42528605025594 0.17829597693284777 -1.5999656155890123 -2.718056619351719
Ni 0.696246591707267 2.563645029781363 6.814678169591534 -0.9021183382146915 0.1501197716089479 0.5338029252644807
Ni 1.0839402755699028 2.290970193586497 11.864806695057897 1.0972558121849103 -0.8623780822022762 0.03124301717468168
Ni 7.488647801469492 9.259822265705443 1.5181633918711654 2.3106709798729237 0.6759008550102166 1.0625533757067185
Ni 2.071827185531364 2.9477466179661445 0.34041562624121197 1.3944321430964501 3.6447747583929617 -1.7288683868007129
Ni 7.00365428640763 3.220076508559971 7.147956218747449 -0.42437446072730783 0.37760660844414967 -0.670712883051374
Ni 7.437782309597255 0.7949019658900383 4.137991669493227 1.1405891848652228 0.47831877615424717 0.18837752953856587
Ni 4.150366826001879 5.628598569268359 11.026161897814388 -0.9356493800926016 -0.510943504167804 -0.4796043277348901
Ni 9.252373305293801 5.273285954489271 6.469229134431368 -1.1646225716653427 -0.7396392737094423 0.41504932667164
Ni 3.5488469577671635 0.8868122551443705 4.700176551784514 -0.6578553103624154 -1.018354312592001 -1.041871936097967
Ni 6.744973054190079 8.647534501005838 5.438095368953606 -0.29739898844530716 -1.9646035796876358 -0.9949624160306219
Ni 8.038164789633948 7.382935959031938 13.347070572714909 -0.17620644139367075 1.098358815441102 -0.0012773240505268323
Ni 0.66312808486582 0.0850290906562937 2.43135093349936 0.9094441824521434 2.2357454342086274 0.39880818222242925
Ni 8.191954590573175 8.662227319039316 8.79960796450854 -0.05547874979359478 0.44562359991407124 0.9614640271628603
Ni 6.936194114269157 3.6475946282053484 9.435857328770101 0.7198633766340957 1.15232447102428 -0.0533979560051661
Ni 5.551023100450748 2.233392246775108 12.914007219461466 2.1016886295998125 -2.057239141037186 -0.6526272291942566
Ni 4.4875091981748465 3.6408635275580323 8.493101423134942 0.11453056165042856 -0.9902007329759206 -1.8213424828717342
Ni 8.126321697834804 6.315478489479285 9.696557891181847 -0.37849312481416103 -0.8597586423015581 -1.3480635831342396
Ni 7.214695734265371 7.855511432456369 11.22424551078334 0.500568331581067 -0.13765454926240164 -1.6320882071551697
Ni 6.155656801948903 0.5071474132172864 10.093720797935728 3.3370928999644076 0.2648151409720149 1.0153144973244126
Ni 6.311404402245383 5.373478667310191 11.532430165891729 1.9856747985356384 -1.748383574015505 -2.1609309602008975
Ni 8.849980277399832 0.49415042234135437 10.997412080395838 0.6325386859744977 -0.5607439726296988 -0.12416808474019263
Ni 8.631722940482504 3.645459694620534 12.581848845080819 -0.7365184686922734 1.2485199818109465 1.389843238174187
Ni 8.847024932655788 1.8375997995713045 9.066448558618795 -1.6943412995581209 0.08918256980394318 -1.0857904918577883
P 6.071760438063592 5.41760373568103 2.050779910155491 -1.5664116908929668 -1.3778459566029948 -0.12259019873011144
Ni 3.4513485497759877 1.486547729107762 11.868409045875241 0.43377852765002706 0.4328989532585512 0.7597578988361883
P 1.7132049575531116 7.206687402608799 13.242877423207338 -0.674283888232084 0.42095695040532666 0.2285715852589483
Ni 4.314495672118216 7.728086662861476 3.9885658965498565 -0.7619533638256103 -0.9227131316469077 1.2492398906961064
P 0.6354159011066146 7.744970351604259 9.879481611127808 -1.1191621253396984 1.063322135551943 -1.116632159828993
P 2.3115737011080593 8.885574934285499 6.305107746598296 -0.7797284284208442 1.4027324354320292 0.09316109483571698
P 7.497569772826115 2.2948485008846733 11.106148256697644 -0.4626126782729001 -0.5325592826653667 0.6565818429666305
Ni 4.872477811789269 9.023040417726872 6.4286905680259325 -2.0031361885451955 -0.21145138063889388 1.1276904745256837
