# total energy = -381165.3195902263 ev
CRYSTAL
PRIMVEC
9.27877210154739 0.00000000000000 0.00000000000000

0.00000000000000 9.27877210154739 0.00000000000000

0.00000000000000 0.00000000000000 13.58042088326969

PRIMCOORD
 96 1
Ni 7.7152989455787075 6.965648395475045 5.0274038497122975 -0.1872285035357872 0.14016188906528765 0.27980390107136327
Ni 8.707877026282725 2.0645917287839826 0.07898647480954096 -1.0407589055394462 1.0071648716340849 1.333008231463014
Ni 8.645412332955443 7.9567233151096906 10.016714628719628 2.7318202487947145 0.5795109688245568 -0.2232969671235703
Ni 7.542277683476235 0.07710010045519802 4.146808485044967 0.5678391889135833 -2.8027533854701665 -2.4962354654427266
Ni 7.4357666593075065 7.175682679217823 2.507910115353045 -1.0276683909040754 -0.4122686786027093 0.21258729401555002
Ni 0.19972000075070875 0.20364306556633194 7.9018904117796875 -0.7795787902168574 0.8220097056875586 -0.25679946975638995
Ni 2.2160584034534074 6.8920120606198285 12.30699856905236 -0.3197393038137203 1.9091698241993635 -0.2764748366981303
Ni 1.871537597861901 1.9745969188342918 8.404868518890407 0.9714681895634237 0.027369393151888348 -1.3309274376745854
Ni 1.7958042605271887 0.3051194280298641 2.390643138643469 -0.859672767455971 1.9061647188244528 0.5223694866165584
Ni 3.38883951581357 5.164313986816089 3.8490443396057943 0.014040023032833884 2.321077005697596 0.09541440964626793
Ni 6.618761503015082 8.247594260805423 0.5164119132603393 -3.7075073615354923 1.99326829461218 1.0465171481794622
Ni 6.572302691445012 7.41166968833737 9.758781467987234 -1.1127654777847353 1.5128640966838138 -0.3762624357114294
Ni 6.8130404318455415 4.893800666961126 6.594272039987943 0.3376616926200959 -0.738259105532464 -0.5359873345103092
Ni 0.5899294798335313 5.124276085492972 12.611376623196774 0.39111287046070065 0.5017278991068069 1.121670236473533
Ni 1.8000168230302467 3.0347244599397687 10.633374395026308 -0.12629001617920188 -2.4707550617834353 0.7106482857937308
Ni 2.4385633568087624 4.965395671969046 10.201340851003984 1.661248887879526 3.484617400042354 -2.6362430883183374
Ni 1.181336140174743 0.653049254466356 10.076414247981027 0.4251753593620484 -1.4047196410653873 1.124123840220348
Ni 6.576775059565 2.7249526556124746 9.744861454183075 0.3367445801224652 1.4052510880888252 -0.5218956323039333
Ni 2.4198573523898967 6.0982409494984555 7.720645374024219 0.027213070079682166 0.17033764131771956 -0.09929420431664834
Ni 5.060697939521708 5.741332983242671 12.540350406914486 0.2537653109157565 -1.0121211871980957 1.397629052767193
Ni 1.1882024314792867 6.471572342252947 4.020076232984356 0.7343569422645805 0.7819007534818146 0.4169545141141529
Ni 8.17522911771875 1.3487530239691825 11.397422815693837 -0.4525900039295754 0.5062746379372248 -0.44855465751793716
Ni 0.5012494718809404 8.57155330757143 4.440131810189065 -1.5301169702269908 0.4647196973135738 -0.8564306063695896
Ni 2.0444753510160756 8.808848623547654 0.2939357240982874 -0.042581067895320214 0.2819345742611209 -1.4120513988401102
P 9.231357508077933 7.419009197015605 12.296187871756516 0.7241370643087851 -0.6278569642281123 -0.6807301580780599
Ni 0.38613517028305877 7.807826860293453 2.204469217183981 -1.182978448464711 -0.07092773735881333 -1.111655789660324
P 6.288557842670753 1.0462001042836926 12.703926806964398 0.1284901091543142 -0.44152963235035575 0.25325186161444774
Ni 4.690651232066958 1.842986816315845 7.386635561391884 0.18441186002259854 0.5521318054806555 0.22601076651030755
P 8.750253178158202 0.9662449256738891 2.421701044392887 -0.03406840243861875 -1.2928596842685862 -0.4343030326949294
P 6.332882536673194 4.59216634570692 0.8135961354474386 -0.2630763039040372 0.12184894968871272 0.13131986529362544
P 2.493206045312085 2.0044652860090575 1.3230563927005288 2.502424367862258 -0.38476481675548574 -1.9851549214764264
Ni 7.719706362294462 4.314202171909323 12.837557826031668 -0.7586777783981321 -1.0562107213181422 -0.7832989193809219
Ni 7.309259881407301 8.622651505158084 11.761879990875807 -2.0074350730308654 -2.0520480837545496 0.04492102888240651
Ni 1.9480503520473997 4.868905721596137 1.2435874217452632 0.7070605684424726 0.15323800552295547 0.0596058845880909
Ni 5.272059087665229 8.95319848006764 4.138130977439548 0.6913737538348351 1.2729408338574721 -0.560940404911221
Ni 4.14718427531231 1.2809159216346957 13.313348203208005 1.3121509283980304 -0.8176491147260176 2.106891771067307
Ni 0.3217850304786361 3.1696749203901553 6.562371621737913 -0.5440418293836694 -2.8463014452644466 -0.8639371991592799
Ni 5.7304025897876 2.973623746101361 11.975989511295552 -0.04533189116757999 0.11491519868335692 0.8956332447109802
Ni 8.806148500886001 5.068946767859194 1.4547889750098133 -0.4173980294094747 0.12784244826798627 0.5570405556361825
Ni 4.315204279288905 0.7092925311454003 2.2251107734489657 -1.3277968624654035 1.5115163244066678 -0.06663682329294329
Ni 2.593036353616933 7.161922260292636 1.901707525127745 1.0885521137633252 -0.4589421713998483 0.40372978789376274
Ni 1.0425257105585584 4.203747669626498 8.241332945437442 0.28788642096918166 1.2162426098344796 1.5997959227803673
Ni 4.778057264619395 4.625644155202588 10.593936830253735 -1.1362216519251465 -0.6488801034469986 -1.0380980708778316
Ni 3.308114199125013 0.5972643491257502 11.531651387680043 -0.9804217992122858 -1.3302687210446638 -2.75047848732585
Ni 0.798920829599781 2.851125397719485 2.00975325819076 -0.01951955809016638 0.6077969602534435 -0.8682427685131692
Ni 2.330085232969002 7.7731706467495725 9.904282820116535 0.1452246483001757 -0.5756738544666538 -0.2825398119452876
Ni 6.83375065102357 5.512230822971734 10.817035625019216 1.0373388241143038 -0.5283473014665481 1.2526602292315652
Ni 6.599981268419951 1.1048883373934766 1.313014905606235 0.0785374313852712 -0.5582325190617548 -0.44840064843857613
Ni 7.785567086185884 2.859698983078132 2.1557148374129063 -0.9762270444046478 2.489087798654352 0.5749146077031261
Ni 5.932735492742848 4.233384067500435 3.6905740478057343 -0.22012885380823383 0.7154577913672323 0.4073943812295436
Ni 4.733296468331397 8.722778734167992 8.457369666808475 0.29291241342886326 0.2341051134826678 0.10861471038662586
Ni 7.136498424921758 2.662404453336893 7.380225785671373 0.37628686119146165 -0.7112164995923751 0.023158183284018183
Ni 5.189858446223399 6.819414948232327 4.336731030405854 0.44405702675789976 -2.3377562661254903 -0.7565309072584583
Ni 0.5411769558168631 1.9361364087568127 4.086756272446307 0.0015390623523457365 -0.5257222051388752 0.9483269755602701
Ni 1.7487423287749635 0.5844058268421868 5.584337088318682 1.4911657857747738 0.9524865062545984 2.031772107114333
Ni 0.2010264518529787 5.176023797121946 10.330340834949501 -1.119503053618885 0.0003285869840123373 0.934392624867365
P 7.517985858293403 0.5214085320001999 8.754903698701224 -0.7045249465048125 0.4480939158314347 0.49903775386915344
Ni 0.48412457021652655 7.604695982943352 6.585200184571114 -0.02044952610360349 -0.7306671521178191 -0.4112224967263821
P 5.85733619120133 2.506715937392377 5.590204055875254 0.09926489374060968 0.9063521737903811 0.3249581290104984
Ni 5.590246738226607 0.8434886274294907 10.464773539920436 -0.0399891387984279 -1.407174530363783 0.13742572108104717
P 5.673115451254824 4.469491700656413 8.520817909971274 0.8894469133946102 -0.16572405380510813 -0.18027932591146373
P 8.110138531906081 5.324957367026316 3.5961634702454592 -0.10422969394505276 -0.1742341481586483 0.31019973975440124
P 0.4972939313632011 6.569676798959626 8.769462092021264 0.6033062714719416 0.22109610281750952 -1.1018128354279735
Ni 4.322265424806146 5.022070411547633 6.2474964927923775 -0.3189180934640056 -0.8946868216373108 -0.5783796834335909
Ni 4.155748581898924 7.596011052320308 13.522880505383787 0.09557484648353216 1.1780709838607646 0.9836732162700478
Ni 3.929949664471794 1.7307043959424862 4.564188992272514 0.2933327887957335 -0.27317842533504566 0.5077049426258482
Ni 4.742992785106056 6.413644968449883 8.975829405056533 -1.5590331390407086 -0.7110750889185045 -0.7937046880952783
Ni 3.468924597231838 3.394694420966499 13.382322882993758 -0.02912957037610467 0.6781883654928127 0.4704437442815447
Ni 3.409252814286538 7.391312062496601 5.830685702167667 -1.1119128999764527 -2.510404300743941 0.3983872926349268
Ni 2.881893805781468 8.493936379513984 3.9433871821302273 0.8924610176305855 -0.3384299382446881 0.28229915668939126
Ni 8.249375785035792 1.1007314475226175 5.814810651096121 2.0614871176802625 2.1387739644878847 1.8848639004641474
Ni 7.802333827249817 4.764074155165412 8.87750782508428 0.1710722054908989 -0.21669745952918165 -1.5684647167672536
Ni 6.805014294036852 8.800905994687263 6.405151180530721 -1.0043191746551736 0.40644358728049995 0.4166120431730696
Ni 1.1965162112210048 1.269577262210165 12.370432894057108 0.7679923709308387 -0.2333875185903529 0.30232779320549225
Ni 0.8723437526982347 4.333084472996819 3.765361878270267 -0.03682385369656884 -1.1749288386873573 0.22641211571378425
Ni 9.207557457812857 5.326154328618595 5.991871890541835 0.821684718247972 0.5479362793420692 0.007314788493858369
Ni 4.7330366627144675 7.728261390109043 11.077739427080713 -0.7813405101029705 0.13023074599450477 0.3394288118228477
Ni 6.3165982917549846 1.8389969443415832 3.676369175700158 -1.0759639926856694 0.6064000799059169 -0.4676510120277559
Ni 5.082271084498823 2.9573116648670528 1.6699572033185424 1.528965887341683 0.8071785542119969 -0.7963920051194542
Ni 7.667754517680757 7.1285094022012006 7.750454357057973 1.339880533102815 -0.6283611575580403 0.05267419046526412
Ni 5.640704700542971 6.774264443518934 6.676677742291706 -0.5665994029692113 2.0884834437634483 0.5717930313550088
Ni 2.3387330485039137 8.520603570337308 7.579137605377992 1.075280850575716 1.0086242297884307 0.8394844654335542
Ni 3.6880335200230534 3.8555431915378247 8.249766421338387 -0.9818361630613092 -0.16180029327066975 0.8898917142415126
Ni 3.3276924081149963 3.2607739042117934 2.955724066972178 -1.493097455579848 -1.531947852788142 -0.6634898829403735
Ni 8.0643756282385 3.4573075746463124 4.891939345291273 -1.2947579297325638 -0.18066139184123078 -0.5592815291515594
Ni 2.62155929884689 2.7901545866895416 6.25893072356885 0.05285879567224445 1.1164223578110324 -0.4096965470001589
Ni 9.03584450256706 2.353300720595987 9.475222194653638 -1.0071679569578784 1.111283236812254 -1.198474230107465
Ni 8.680801569489944 9.075724664765614 13.543237203347354 1.6713569228478053 -0.2145331048880112 1.5271139217346086
P 3.699984578401773 1.2224132639655751 9.282570762437794 -0.26621819196712865 -0.7205254356981268 0.9445641660837281
Ni 4.681131211960929 5.646819411312827 1.7660249695639412 0.05041161968333254 0.3994756406030991 -0.05621974172467737
P 0.03356317419837318 3.1138909429267527 11.88237969176174 0.21064482557719852 0.308069837895592 -0.7780870361626794
Ni 4.3884601844907625 9.259574253830793 6.103054776429263 -0.17839650706645405 0.8169685437192252 1.0307123199367216
P 2.2464927757221966 5.079144138323645 5.627712563942129 -1.3378483331641347 -0.23766969090547452 0.6614810800404607
P 5.006092366106518 8.075640057486764 2.16333363712934 0.718066432634673 -2.9846003129790666 -0.9355894733889435
P 2.78970920563195 4.92846615927704 12.179356069455295 1.2137003030286 -0.5609689441563114 1.126915286922556
Ni 7.522866492382848 6.567106579106439 13.432326185480498 1.6290957001857491 -2.645834331551198 -0.9557340666576185
