# total energy = -340865.0021007253 ev
CRYSTAL
PRIMVEC
9.26450617181072 0.00000000000000 0.00000000000000
0.00000000000000 9.26450617181072 0.00000000000000
0.00000000000000 0.00000000000000 13.55954125307987
PRIMCOORD
 96 1
Ni 4.838656900348072 5.412055702284092 3.86290986973501 -0.8167245460292193 -1.3164099607847006 -0.31643132248640987
Ni 8.60472488944201 3.1528688696190246 5.159080029405775 2.0472308648715645 -1.7608230853304383 1.4576995356965283
Ni 1.2410639518604563 2.623448677403005 6.924220406453286 1.3135501227384023 0.3923858236358533 -0.7336640299626139
Ni 0.28886266310612274 8.723449533124716 12.094974639800114 -0.4601709016006268 0.4732364765353334 0.3122759055571396
Ni 8.319155758199265 1.8778412389649046 -0.008242630939095157 0.34197086151841105 1.1719977810834914 0.1967870937584998
Ni 2.4198611592658623 1.7521682158235918 11.037940834027312 0.2588501816378317 -0.9139940066063549 -0.6478722310077745
Ni 5.637720538087711 1.1640388494353275 7.814159583005542 0.07629208699452023 1.2749013000179528 -0.3180156362543943
Ni 7.258036305304804 4.579250733893464 13.395118346070605 0.6073907259539604 1.2207854920101557 0.14144152710865965
Ni 5.487765244865058 8.817391623405063 12.975070278786012 0.8133558866673023 0.8417480646567502 0.9117697452615265
Ni 2.378319114609346 8.929955370634474 7.57975646519478 0.9618491784164209 -0.06435188391350852 -1.4130523293007988
Ni 1.7361591495509647 3.8968179614930047 1.3955477355889312 1.122946789193111 1.6118109449633724 0.04474130877143262
Ni 1.1358191643274442 0.6804084778515185 5.494733079786148 -0.9013688616431766 -0.169618760873824 2.6758028528888302
Ni 1.8995201828757537 2.080279958364891 13.469885688396987 -0.06867365121731399 -1.306888908668143 -0.23995617294680613
Ni 5.230026689480516 8.260641138651861 2.116006672639852 -1.0938313598843936 1.5281914710695037 -0.056247509638819256
Ni 6.2864768313787955 4.5446014816598845 2.141037514801533 0.4146934859941181 -0.9146691782965086 0.174891322126673
Ni 9.091380122216798 1.1864033667860927 3.7002631298185653 -1.9552455355115037 3.0094577383423786 -0.7961220392875192
Ni 2.0695516604808044 3.8186903828604444 11.723064018954142 -0.5485733987054358 1.0484117940990136 -0.31816064647269077
Ni 8.763518521336009 5.3788053904481785 1.8147008515992584 -0.5286344936896638 -0.13948080383786302 0.3112533778298962
Ni 8.38719428985793 1.9372081930592304 7.511199121203206 -1.492619744612481 -0.04667914922409381 -0.20748828222608784
Ni 6.544113477197945 8.124295404662131 10.999405121549884 1.0495731613969668 -1.9197815382769388 -1.2336950009829721
Ni 9.149848419234477 2.831316397286649 2.0359511503201766 0.23922263721489123 -0.2469318329336909 -1.217927196625754
Ni 3.7041625603707344 7.554722843681316 0.15230384547966147 -1.1075358539546798 0.6365966580939553 -0.4672072396221179
Ni 7.413068547785211 4.584123864020433 7.250517232279998 0.01557600006138608 -0.5906443597335569 -0.5248693702202767
Ni 3.370149327542593 8.959407235033018 4.721622102549698 -1.419433293126478 -0.5806373691195161 -1.781098547750023
P 2.5094211382343152 9.249534503200605 12.373800137165633 0.5290255584804954 0.5410639777022681 0.44961343779975477
P 3.902626806720399 2.876230722107075 0.9338566405330204 -0.898250370618853 -0.7821753472994399 0.7919625085931908
P 4.75455371538111 4.052072552116088 11.937684637220956 0.48104234573299726 -0.43459536712436764 0.36190848098260253
P 1.0335390186967703 7.8364101469331855 5.874060864091532 0.9656976056282336 -1.8164273049583037 1.1327966854039975
P 7.437369346878441 0.41880940283977497 12.306666747737774 -0.17782880748844213 -0.009354701742022598 1.5892965659109404
P 2.9862930527313876 1.2477436606466625 8.885865586843135 -0.30917309826209977 0.660111967607076 1.2712158807465654
P 5.778457647895281 3.3121257268102644 8.391769102893477 0.3079394829653148 -2.2280701770515563 -2.101056138222136
P 0.4597983564913865 4.2494806447880435 7.925009396635163 -1.7228612613746843 0.32949818297269706 0.42441971214294644
Ni 3.58100948284641 6.408907277439425 2.1461904330080346 -0.0885909589665313 0.3728372120799643 0.3124558827784296
Ni 4.02236128155109 0.8079872098656781 1.0684930731759343 -0.30559335133064147 -1.3313514125858814 -0.2771515510501807
Ni 5.5304005012230615 8.141620030778922 7.959464094243902 0.6122372554129842 -1.5349516726114727 0.8690835192469096
Ni 7.843849545206866 7.685963834895458 0.24573175568007186 -1.2036146366578238 0.6422615696892164 0.5336699992310423
Ni 5.308617493410317 6.1005567260784 12.232143061917744 1.2001768146208684 1.3261377295954258 -0.07018494565551783
Ni 7.211732304592656 4.673239146703535 4.597688027174225 -1.6518070257403359 1.8801171298077815 -0.5287015994821733
Ni 3.713204718172867 5.2701049421977535 10.543614590330222 4.270147265636323 0.35009529039775833 -0.07465378006014885
Ni 3.732530477573735 2.987108329254531 7.85276385282696 -0.8718970774363048 0.3373755288382448 0.6354669153648863
Ni 3.4655644742681644 6.505026526616802 6.74893595397753 0.9522486792121793 3.1202843687786586 -0.3259919695916515
Ni 0.8538891310198208 4.458191434712665 4.016349543643505 0.3409285362968257 -0.31327992134162175 -2.316697131462346
Ni 0.23314499790345652 5.36356527816897 5.924488496399713 0.11732303679390117 0.7874203977484632 1.3120910216943726
Ni 8.952458855574411 2.0831612197137264 11.284656480238723 0.8917683624389352 -1.1297100760588739 0.6249999543952913
Ni 9.109649727939958 7.127795880732701 10.095417248182924 0.04571627109019224 0.22534176546774096 1.7036944586382465
Ni 4.4752010676273315 0.10819275332464995 10.784553817085044 -1.4633505633347184 0.11602282992523888 -0.284518018717581
Ni 2.978047642440509 4.555376102073695 5.85143045542015 0.06500391567521063 -2.639775526951628 -0.6457389867148556
Ni 5.147637438113343 3.0374516545586143 5.96156041693786 0.9495428502452421 1.9904840469988236 0.43539703709005667
Ni 6.906957852526327 1.7067721366940356 5.491627617393449 -0.5284321478708706 -1.7989720855963338 -0.8507955195709992
Ni 4.401298103705603 2.011314976111745 12.401312014019332 0.11541836357202057 -0.6620775759738791 1.376844254811358
Ni 3.2259565570176107 1.661477967129872 6.02393462966187 0.7169138070874685 -0.07616353183645591 -0.515028472870455
Ni 4.821258158183723 5.263286265822375 8.276852171154086 0.7879114784522688 0.9111241412577276 -0.8380227932863632
Ni 6.649599141885521 6.74157715690557 2.9475998436528994 2.0082814801915605 -0.3383533193704818 1.3364221422405693
Ni 0.4365166530520854 6.564337893675459 8.010827441652507 0.5147343386688038 -0.12430692431090204 -1.3798997538082298
Ni 0.7638640738529382 1.8164731515865 9.182331629978162 0.5201930477905299 0.9327633167940581 0.2625104040982382
Ni 1.7087084184365002 8.9592590029379 10.12135693837779 -0.4281665807798884 1.193601475396196 -0.5367941466823207
P 4.745956253864328 7.425927682036604 9.86742702138716 0.9544166333977755 -1.1825043370417698 0.6776908570311038
P 8.011833566998114 -0.11881080358799373 6.622140999166302 -1.537423788301049 0.26958607999809703 -0.4095978166387655
P 5.503403730899893 5.505025019440234 5.836894445592748 -0.05395382850863611 -1.5093619970678265 2.485414463567823
P 4.328525409509141 8.88292873845863 6.533162831171182 -0.3899221925867091 0.5716282236423704 -0.12071406475332114
P 8.280772910069928 0.3232376859637362 10.104338967407774 4.741075919974086 -2.5255794658224824 -1.6000296360577284
P 2.7969450802314135 4.725805953434373 3.1893395237213538 0.6907281498310363 0.13867553432774826 0.15716587982245192
P 5.856928013247799 6.514606025763733 0.964356320553921 -0.27252459380113064 -0.1652471141686896 -1.530048064662268
P 1.8752934998300825 5.4984564847253665 10.13604118030031 -6.242103429034288 0.039540738407099645 0.668819522683403
Ni 6.927840048925923 3.280876548258429 11.53602383488502 -0.9869588289998551 0.033582206830819576 0.13195492777446308
Ni 2.341501967984681 5.548336584732209 13.223060721015427 -0.09858560828539796 0.35466156961220213 0.6706226373304127
Ni 2.372241598709552 6.405785138936024 4.606962724075572 -0.42682523626064556 1.3955847686436547 -0.7554433306212344
Ni 6.688019048038638 4.641100575580999 9.538242449057451 1.8348353751518465 1.4638015348292082 2.4787123689572987
Ni 7.394428361824259 6.783499046305824 6.01749394512904 0.500762449869744 0.6300107773463215 0.3828192629933407
Ni 0.21006711359494123 0.3621699192956004 1.3318125669416285 1.497950155686459 -0.5427349376467879 -0.490411188542407
Ni 4.458080260641328 4.825751443566954 0.541170365105819 0.2420675628628541 0.3923079192100663 -0.5505994279965292
Ni 7.576346200556497 8.763379553746837 4.374999877130673 -0.990647590705352 -0.5400252520251086 0.4035235854202277
Ni 4.730725406091065 2.634362265405988 10.187608346839703 -0.8849896489542048 0.627732522835106 -1.0305300287225865
Ni 2.1912316815599047 1.5650900472800957 2.489219883021663 -0.32765213090289375 -0.16907265856236686 0.004303255361044202
Ni 1.3066381249378032 6.933213462373911 1.6287316444173559 -1.976429111567654 -1.5547301407899805 -1.2145662505733212
Ni 4.063365984862808 3.049041551495568 3.857431767369845 -0.8057904156152187 -0.860362594434144 -0.5918023845974002
Ni 2.4900397917977783 5.074058731899683 8.199671425029084 -0.922071898518483 -1.600662898766353 -0.9197391366202482
Ni 0.05964396282207565 6.277036299821036 12.827976791449709 0.22341729475151845 -1.0590487049875696 -0.5955037447083874
Ni 6.15659772253854 2.409790641303857 0.6914767831037799 -0.8734595368274184 0.2443818128183275 0.30163796622731925
Ni 0.24535746963990163 9.039054192640526 8.18851140116797 -2.1665130822743657 -0.7496953723938636 0.18576477450606715
Ni 0.8777081758039207 8.626190749716129 3.702784928336742 1.4053657592898183 -3.850600822425278 -0.9142927687936964
Ni 7.200550045917273 6.759337214801765 8.580667746855129 0.717118724009423 -0.2566308053890096 0.34286277720506114
Ni 2.7967875836303517 7.235606936412425 9.107889471810445 0.28950390196794656 -0.6596633101054317 -0.5002862815642739
Ni 7.180019900743581 0.5382594573379604 2.0073543998203394 -0.9872750746886931 0.7882066410951845 0.5009840789622468
Ni 5.2436918357491065 7.384200347261191 5.00631851733244 -0.27309512159262 2.5153135651201004 -0.38678133296488226
Ni 6.600941956663393 1.2229425782324133 10.332858197492987 -2.63154953949741 1.5524151195035587 0.048367335559794125
Ni 2.2933821241073513 7.216642492743404 11.49573805723462 0.04159633538454771 -0.5861636982543841 1.092582575078957
Ni -0.1110814262782409 4.032617089631992 10.154211655809862 0.4085068975674319 1.925046386220304 -0.7903681675228774
P 5.327674582138786 0.3460163267302342 3.9589651938213675 1.4640229068113948 0.27607425882560194 -0.10042651814887865
P 0.13175609774467312 3.9901208008631603 12.870363759048391 0.44968028648194813 -0.7586420400641902 0.7191005303261422
P 8.444884368376247 8.044620653536787 2.370343301441461 -0.272889176229401 -0.1304901703034785 -0.9910527965635706
P 8.739986676236198 6.529271738674363 4.075442268361865 -0.1466346412738249 -1.4743481999968027 0.3322009266158408
P 7.648979927163786 5.842243771325279 11.23509693213757 -0.19762630183034352 0.07748430753040848 0.33674997943910395
P 7.495467063658328 2.976491205441781 3.198072247024929 -1.2788736544021395 -0.5124265164712336 0.7712365888997492
P 2.3329137709738443 8.538400291383134 2.093403131035711 3.2045975263054425 2.5295543913098304 -0.23983918775296756
P 1.6976929208681242 2.396347843177941 4.432383300502216 0.4657728211684365 1.1268150138992659 0.40604866583492644
