# total energy = -381174.94242564554 ev
CRYSTAL
PRIMVEC
9.14426499862619 0.00000000000000 0.00000000000000

0.00000000000000 9.14426499862619 0.00000000000000

0.00000000000000 0.00000000000000 13.38355614195981

PRIMCOORD
 96 1
Ni 0.03509660239110301 6.734842403030478 3.678309742046543 -0.9710465286449729 1.1693767985208763 -0.0013588280207395952
Ni 5.5882613393230125 3.3655283387198565 0.6211525277827792 -0.9695501466051044 -0.6583592465820274 -0.48476633155180376
Ni 1.314314311319566 3.3028901254427 9.111217339324552 -0.7232024683096576 0.6920401837742404 -0.16442204716423295
Ni 3.596247281668169 0.11604529132755602 6.906048642380194 0.11886107070498239 -0.39399096333944406 -0.49323991624045377
Ni 4.403448104854701 5.753406760021619 1.6232514657613308 -0.8145637909324746 -0.392897216054633 -0.8558073709632938
Ni 0.8231484208442487 9.058299479436245 4.197873146584957 -0.3414183314490507 0.03130420942992028 -0.6844564578897117
Ni 0.8021504457860975 6.233645254166103 8.403708204454647 -0.35676653177034684 -2.811272478684771 1.875955285120608
Ni 5.560727958275199 8.056591001560895 0.7490268399417702 -0.032401813369473224 -0.35884115491118845 -0.08542233143056256
Ni 5.572697800783199 6.868860746649458 3.346839290501484 -0.31549569804601796 1.6413104970843861 0.6150366725349924
Ni 6.817378536320933 6.20541690900018 1.217361330284182 0.08349554672149492 -0.3650416272949455 -0.4810287188862425
Ni 4.676788465625617 0.06982834862019748 3.061582123957898 0.7639796502270197 0.06478151525175939 -0.11415389503730018
Ni 5.996717355478347 3.454566044220539 8.488252418275856 0.9400397958508133 1.371538269217412 0.06298637102454958
Ni 4.78408726775615 9.085064742248251 11.405666979210931 0.7117438328507548 0.6981522102092491 1.5609468111236537
Ni 6.252381852560979 7.052971372360739 11.999134331151678 1.1117635188827821 0.06717572651554882 -0.1512284312920944
Ni 5.0763928335397415 2.342952648771737 4.23368665932948 0.6540343939544284 -0.4572197893921029 -0.8916418641633999
Ni 0.4057538859329404 4.963214269199396 10.746446877432124 -0.8136747034593018 0.847663915920553 -0.3731375169292025
Ni 6.124535887622595 8.04234423713961 9.535957462079006 -0.21482158266270746 -1.4897048849585313 1.8799433232340785
Ni 6.532754152895417 1.1237478347216174 8.468685520645131 0.5338209229866097 -1.2167709715341237 0.1803574874475668
Ni 2.2305970682554705 2.02539062385362 11.093308040913941 -0.4944331652176065 -0.98074627243124 -1.8553003278744173
Ni 4.192160724419375 6.868440110472706 11.10342616981776 -1.219466516088416 -0.5272013607875631 0.06457454144727588
Ni 8.614519168698479 1.6810176147999374 0.7562883005495643 0.6372371198914316 0.9295304116790573 -1.2361077241895229
Ni 2.469655580621122 8.956743275544842 10.460908067535408 1.3573432086639527 -1.02685849340827 2.0306007125140515
Ni 8.910464151837441 4.4402446260557635 4.275028794518875 -1.6014977359628224 -0.9017288160857567 0.001655276215235859
Ni 4.290351838896763 0.964921100938999 0.29986147171511096 0.2609685135324151 -0.18455249936552087 0.12904803854031324
P 8.47747407345983 4.631999857066271 8.326900038579785 -0.06701760367112974 -1.5908482266687765 -0.535903002326619
Ni 7.562919582554492 4.140980274826346 1.400803510245016 1.5592629956633275 -1.5314475161129562 0.7996976724539195
P 5.406372769936746 5.361126948141801 13.053918864694854 -1.4021865902308883 -0.02711202572544363 -0.16968021023937876
Ni 7.233588888952038 0.42317828234164434 10.759334804117207 1.4615055397061798 -0.8463570241836713 1.1345296089347043
P 5.124208193718757 8.387320767664283 5.230628232010468 -0.3398062497669245 0.4434769858847137 -0.4607720255197354
P 7.114247090195809 5.54857523047296 3.6852959602865067 1.2628016885409412 -0.20876457783535016 -0.28616609584396524
P 2.979658656403146 8.577155703085273 12.571976794034525 -0.6834226173085585 -0.25222187768803656 0.22564515564077267
Ni 4.104366638919523 6.004563134601238 6.673843756416182 0.9914209785362669 1.1584228706125341 0.43961827426025585
Ni 4.933349100650024 6.066881298613475 9.057816662259452 0.3383263227872883 -0.6411012308325281 -1.1008155045117107
Ni 2.08382247536326 1.110214322947867 8.767634394741986 1.0882829192623387 0.13377963968802767 -0.7743057147433761
Ni 2.9363148416682963 7.457184449689708 8.631643633224629 0.3267116213664954 -0.0761398776873721 -0.5469250644687355
Ni 1.8698375368378952 3.950962454111117 12.097931710379472 -0.014591524660929707 1.334432108393734 1.9514572721136652
Ni 0.8347415196461143 8.373668380449276 1.2671747123027675 0.6032383943484836 0.6804036279765766 0.9133460886097109
Ni 5.544899236058739 4.44820928061991 10.79969941740889 -2.3238483977951465 0.3683647781309075 -0.1025438216021976
Ni 0.9026184821767722 3.7522667261842058 6.571285341112345 -0.16650284095266166 0.23549865139608472 0.6468844131732084
Ni 6.936281410370987 0.3708968632772916 4.029922265472711 -0.5577023575898976 -0.32177690306903933 -0.0878643652131519
Ni 0.5736078378392391 0.025842606502565386 12.201399980022153 0.19743758285830512 -0.7234665206043217 -0.6144743722736191
Ni 3.4800053886493054 2.836934972778349 5.738400107202765 -1.116246237244484 1.2369613304390699 0.19412985864131083
Ni 0.12340825327365333 1.3604928481151344 9.999885331256708 -0.3450050203590445 -0.7099291482395192 -0.5486333054090938
Ni 0.4794950654233999 8.023214435362117 6.400578378615904 0.7897469889991108 0.49010214194242047 0.09565429357121591
Ni 0.7299610480172632 2.847981244550437 2.506592923498749 0.3891709162429814 -1.709839909414352 0.5544830793216514
Ni 6.665931224160894 5.576849296962444 7.180076651857451 -0.6199672770673904 -0.5775929258662374 1.092490529585783
Ni 2.902782822969415 4.244493351366115 3.145456977602189 -0.6431611986853505 -1.3282560614900094 -0.16909605560113458
Ni 8.971922754966753 6.808846937344644 13.338439917929124 -0.5377012318776224 -1.4463918239931928 -1.0666460577188532
Ni 2.202716205148602 6.090473501570418 0.40985143095038473 -0.3530286619944695 -0.7110174962076916 -1.0401503254211697
Ni 7.137427801240713 7.287878388547145 5.706988643490597 -0.2542023984531751 -0.1351343539437092 -2.642632279674133
Ni 9.130447728013875 2.382519882180534 11.998612193636625 0.9350785951907961 1.6876721150680611 0.32258397235136704
Ni 7.348056794616776 5.649409037452115 9.84851665977319 -0.3352489694135452 1.3652966591830744 0.08130702371060836
Ni 5.653359359807696 7.994428290048762 7.32941072444255 -0.8855223815292234 0.13724008743280236 -0.05974703815164548
Ni 4.5169832955188145 0.38443860488928305 9.21530101798235 -1.8171145608333155 -0.17565802508936845 -0.7526698816411553
Ni 3.0057746764206 4.259901437405824 7.64823374346445 -0.506338915516257 0.6708653494688381 0.5692887768759163
Ni 3.0767616033798078 7.727498058840953 4.151739416686477 0.221658917299515 -1.2021005140061425 0.1750090786514599
P 5.325263141941361 3.980288111042481 6.441531882555039 -0.6358515523978147 -0.23395007596204223 -0.32260762650045083
Ni 1.680084899799314 5.6156026908118735 4.808992587125736 1.3947252488568367 0.08852282473275722 0.45623608532259485
P 2.1137607980303272 6.73448577670671 2.459295128702433 -0.17537211841783346 0.1388953636480382 0.9774730009966069
Ni 7.5484350672506935 8.710652823615668 13.206276945620209 0.37212938737966234 0.586865352307099 -0.5257057500786431
P 8.259959448755636 7.262832247500994 11.204351419444034 1.2139736112946447 0.531628029100349 -0.18687549107174267
P 3.7717714428148885 3.0671601254322143 9.838813680487293 0.00025968141928987533 0.3960481029787889 0.8199906183750006
P 1.552458397214018 3.0480943335077075 4.672359898225598 2.7350958342221925 0.7490471972869036 -1.2524668822738365
Ni 2.9791374333145626 3.36238271165893 0.9666621689401625 0.010765723156936297 1.0173050453918802 0.31814187741961336
Ni 5.5135252638318875 4.143632111592824 2.9049673878091107 0.8144072107499521 0.8178530032067075 0.14886481615592426
Ni 9.02695294000353 1.999548931777526 4.909302427736893 -0.2923082041859611 -2.0834391964713217 -0.024129031837719733
Ni 0.6592091286611544 8.015771003886556 9.560677152874938 -1.2330244572785087 1.6922065126033052 1.760290095645104
Ni 7.431863980702198 2.4744471753302064 3.2559919350142974 -0.004818504434565895 0.5172841016738511 -1.473888486751565
Ni 4.092936308029531 5.439301267164636 4.4947471870186595 1.145074474330086 0.11779791954779067 0.2656186107099167
Ni 8.828220635017772 5.870672810688226 6.287608303510992 0.30008861946232834 -1.1569015488720011 -0.13885602576967054
Ni 3.0416842039445995 0.849972206950411 4.5954712628212695 -0.4071141309849634 0.6548378636923303 0.4695176329228494
Ni 7.8800609712958565 7.504423721191868 8.279134057430214 0.13737352768687308 0.18397940047087025 -1.5929534459372374
Ni 7.851375412894333 3.3381778429662834 10.1643421888225 -0.046168785246578546 -0.6614905931221575 -0.45336159198827725
Ni 2.858204532498446 5.074856597068127 9.949108143737478 0.015297806699334943 0.16549265452059242 0.4720653390453676
Ni 7.650128435112776 0.3379665371964599 6.137778611778504 0.9333770391186571 0.6271380837842168 2.2531024374298356
Ni 1.7756607545690721 6.791692296744944 11.41055184542008 -0.25734120119247295 0.2585506481195418 0.46217533362516533
Ni 1.996604478540264 1.533602923377887 0.014636310098017111 -1.2264524604879459 -0.600577816797185 -0.5175741221104441
Ni 7.233378570863662 4.602537036164228 12.226707647039067 2.3780181989693303 -0.29774248782765494 1.391982396004377
Ni 5.5952567018276875 1.504771056740971 6.263878936583368 -0.2876105415999756 -1.6171927781005762 0.18504409428995872
Ni 0.8223638429319596 5.041598906310606 2.1424929921818827 -0.0281108993036032 1.0894576562967302 0.6409788463220508
Ni 7.521633227379839 8.01084224520679 2.318754181064388 0.57615825030224 0.5753977179871316 -0.2498112113640149
Ni 3.974207175009005 2.740600144037495 12.269963676832681 1.4046561348173034 0.9708356981857474 -0.897754147708725
Ni 8.201481875922436 2.35351427451409 7.625227687875546 1.2592142282999992 1.125189562480701 -0.09305490827515586
Ni 2.606088010124068 1.0458752764342791 2.214188599656269 -0.9946217448617514 -0.27247137196569204 0.5916473470767747
Ni 3.4522708337778285 7.961289474732497 1.2662621146845103 -1.7193164814462194 0.9763499431357573 0.3490390812191021
Ni 7.154893346840621 2.9617084647735026 5.521573131204914 -1.0902621544758966 1.8859080254579457 0.8193303590831825
Ni 7.025136230577431 1.9966319113343998 12.577905935273781 -2.0452189766478583 -0.0051933712754813795 -0.36784053019632135
Ni 6.375545953966822 0.9775218977121262 1.3904842075175312 0.514858522951494 0.9765762002139504 1.0652692319759847
P 8.750668125995352 0.6723951583758493 2.4406389998370237 0.022222558843626245 -0.7865840178900969 3.1325122783034183
Ni 5.784808165042604 2.1308514287770435 10.566237195046979 -1.5435849228064384 0.06885697087271367 -0.14787365588724855
P 0.17951197498761945 4.553404901866686 0.269613158474307 0.6392502936667185 -0.4659839087379781 -2.876204403471466
Ni 1.5154881349834275 1.1770040324042688 6.6258500830752824 -0.9265970400823461 0.42770506776243755 -1.42980280928626
P 9.03011685559388 0.331967899545392 8.110474495802789 -0.13879586195569646 0.09698895322223942 -1.2791109672239263
P 4.365810311300135 2.226152955605442 2.237931682980961 0.8017617540717998 0.1659269138445336 -0.5936479224465712
P 1.9627798433705992 6.3382190654124635 6.818587408115859 1.829858233652229 0.34873209150164464 -1.7294533127699054
Ni 4.1652034320484175 2.262327666806089 7.884131997945636 -0.9469738039664852 -0.5448977496260616 0.8075601059211318
