# total energy = -340895.5448102329 ev
CRYSTAL
PRIMVEC
9.00562806329125 0.00000000000000 0.00000000000000

0.00000000000000 9.00562806329125 0.00000000000000

0.00000000000000 0.00000000000000 13.18064697346818

PRIMCOORD
 96 1
Ni 6.203472966310055 2.1592344504232166 11.444781911793251 1.034085864394645 -0.2528217160555646 -0.43359546510494357
Ni 4.5930685165630925 0.14892427276607784 5.9729685086150095 -0.015549517698824832 0.2547677840383419 -0.624099554068209
Ni 2.698500473928702 1.659503134808199 4.658541234855866 0.26563763687331027 -0.47049825166856396 1.1467006970795994
Ni 3.4035871298686238 4.4887473192502965 4.983734469918457 0.17692275073440497 -2.412549657087297 0.8213674441178692
Ni 5.052139420760009 4.535189343986319 2.711971092621768 -0.32887751866956266 0.09660945839563362 -0.6964923060083231
Ni 7.154998638519371 6.166225687987738 2.681484339405003 0.38661138304592124 -0.23066549167349953 -0.9756621730401132
Ni 4.922476385633142 4.517124053774866 11.437678272252477 1.8609179311715112 0.6241661456400864 -0.5109242208940943
Ni 5.835827199813371 7.8909836048857604 12.307705710749639 -0.9664838489749548 0.407453259491937 -0.34289671576679015
Ni 1.8967023765227824 6.502216671287385 0.2842014165259565 0.9853380055669804 -0.29677189638426954 1.5002726331720484
Ni 2.536174025244038 1.5762190850198066 0.35799713642063674 1.373061647840474 -1.0590574467383183 0.16807172810167828
Ni 0.3787100813290821 0.0812568828758311 4.5056724969289625 1.560447502889732 -0.010382114565272441 1.3022349548358991
Ni 8.549547185435669 2.3861942928504516 1.4794878311717228 0.24395706657608304 0.5402147423280954 -0.41638192944013447
Ni 6.907668065056091 0.6603394904351029 4.7126353418913265 -0.9981349002213327 0.36060621723141123 -0.45410052703683085
Ni 0.8509904410006549 7.32609656909135 2.5530784899777954 0.17474991145280228 0.06929482974108066 0.12516772964930056
Ni 7.515259789874783 3.954884672677449 3.6941924486225783 0.7084224817870057 -0.728861466367648 0.35482380622167925
Ni 7.628001249574273 3.835352969299277 12.590483337453845 0.14041180029256464 -0.19241878948747507 -0.1869297413484458
Ni 7.95748116367009 8.905035353833918 6.74760833299467 0.27282438442973656 -0.5118277065449701 0.610249021338362
Ni 6.686543869716106 0.8187223745217634 0.5190060616965593 0.8775805009743273 -0.13646567116062303 -1.0012677894233593
Ni 1.8611391506778039 6.38055063402082 9.329169823910043 0.023966795228242598 0.8401202992453403 -0.3927846017361687
Ni 0.3084535733252797 4.884391583886266 1.4255134989916025 -0.8948734837268202 -0.8793617612444662 -0.3652421733415258
Ni 6.232281970989236 1.8767459043849064 6.868580036325389 0.6993089495215117 0.5768851011659355 0.2789850047144937
Ni 3.552585248786114 4.445781467007604 0.5144014839871296 -0.45123863210800347 -0.1925907962889651 -0.30602452533078905
Ni 5.720176922198478 5.439381434265727 4.759808623638899 1.1941984855502465 1.2793017430784936 0.9601111126793916
Ni 5.358420836558369 2.849011538387331 9.216224837012756 0.03439364698852142 -0.027652728720262053 -0.3085033258885848
P 0.26944299299727814 5.378278246785813 12.313848449759226 0.6753953761287077 0.46017064449031075 1.3149853125230322
P 4.095309433528487 6.265954014907791 12.520863527365272 -0.38505920806745303 0.15511619638227478 -0.3601349340219475
P 2.503312487865378 8.442272142066365 1.462379839240169 -0.1479011666910743 -0.17091793930122176 -0.8605729106727372
P 6.394914611033417 7.640465039032224 5.736956208699962 -0.7974713542265621 0.12137535248640388 -0.37056204289254246
P 4.45312105400777 1.1752885166180733 12.373503532221193 0.46052365695435526 -0.6343243171200107 0.9240562759383634
P 3.810803626768659 6.066308242875041 8.169272826484589 -0.225469806405173 0.4182992010675054 0.4821648893732147
P 4.74661447773222 1.108268631396921 3.8409193481027164 0.14228896271061944 -0.57257927470173 -0.3758289477184366
P 0.13714310992728296 5.492694753334421 3.5570484381324734 0.12271335457153704 0.5098014201435608 0.15259163018820815
Ni 1.4917012641651286 1.0260472457386138 2.5940306837502582 -0.14144281266024028 1.0131521995657713 -0.2778228660855925
Ni 1.8589237661354223 6.125790417275164 4.829718414956191 -0.9554959825048835 2.12555283781192 -0.673786379770375
Ni 5.78787222953621 5.5368853710151775 9.040183717110235 0.8724079556344524 0.09896433178105536 1.628889497712214
Ni 8.573340055195718 2.0896479611590615 10.065124171140482 -0.018658752751767864 1.183941840819245 1.229593834330405
Ni 1.99578229821092 5.239888757912735 7.100454250072858 1.8529655090936539 -0.9877887811003183 -0.3665606350426332
Ni 0.6777932984903455 0.03763992371275573 8.985998653229743 0.22444342202318765 0.4393123129840627 -0.0954527190833711
Ni 1.397700516793671 0.997121167892559 11.494302060255235 0.015386766868715436 0.2611770299987954 -0.9814111597087486
Ni 4.15208091383407 6.688894338681803 1.6005000598294372 0.05167891643153035 1.2748550201610496 0.30076070582868847
Ni 5.602356288182308 7.66846353717151 7.932825554726465 -0.6040431496379661 1.1655815931445022 0.16313958090738356
Ni 5.207603580740224 2.983699714061552 4.798349110173762 0.29266198798095405 -0.4577435231060568 0.3473077003502922
Ni 0.7916676662200454 7.274377246217784 6.812522702337737 -0.24758823557076717 0.9178254645373031 0.2896558541647785
Ni 4.98065274394121 4.5307315580168925 7.108415225420278 -0.01372532000589249 -0.7207334379438749 -1.0243686371068808
Ni 8.303324304243581 7.334669927157803 9.104426266588014 -0.3421284701421979 -1.6950164712482743 -0.5975318308820097
Ni 4.7506219822905935 0.3572334591474906 10.401968887995483 -0.32229909412109653 -0.3405189595632329 -0.7619001419901716
Ni 8.371884151890535 7.134276687982704 4.839512035646598 -1.152804753094808 -0.8907846583694271 -0.33496203430074567
Ni 7.190940100749635 6.060634697095772 6.955928326129946 0.369659328572615 -0.45981866046753067 0.23010087741928115
Ni 2.4344914770000132 5.144969436462729 2.5590888462525334 -0.519971161587711 -0.06907242931762943 0.0631717475624783
Ni 2.552942504991657 5.19901221141733 11.404462813684729 -1.5546800042783355 -0.01015997125213734 0.03999556655633112
Ni 1.1418776359179288 3.5471278380841498 3.993472889041883 -0.2632100012684241 -0.9204065950009181 -0.7765898827918626
Ni 3.534709076767304 2.6590648279486664 2.5985118843530595 1.0167273185115393 0.01645711711475875 0.43653475023892563
Ni 1.1130326087258633 3.1265920170451618 8.231656614297538 -0.6652212638091833 0.9020861994251755 -0.2939549957607647
Ni 3.6843646065449316 2.504798416521854 7.070007121620265 -0.23282984631467 0.09904866396474554 -0.0968827666616783
Ni 4.0284966777564195 6.7437746370609615 6.069398073917688 -0.060773165423314686 0.5196721422900534 -0.1308580951658585
Ni 0.8834863498735395 7.313452667068978 11.562761945428935 0.7399802019886289 0.1991280831868506 -1.4243592696731857
P 0.16186626108256774 5.539524020083951 8.044253993831324 -0.9676842970409593 0.16471515292461955 0.42702089721121944
P 8.42807927198997 1.6258851246589703 7.960570094149916 0.2666863898527988 0.04999278697835906 -0.5466167891996973
P 1.5492202116130591 3.235361994699163 10.382158307034791 1.5871715491481375 -1.1352675155419931 -0.37403611748407195
P 3.861352217973487 6.155472967891788 3.8156261406810383 0.7149517982650913 1.243250248771575 -0.5493704406854345
P 6.917105963431765 4.096219001978815 10.31481872201179 -0.5144877698756365 -0.5576100549864074 0.509631984445232
P 6.474641437674489 7.739490926951036 10.08964019284668 -1.5018006397808006 -0.585739723343088 0.43306067564739614
P 2.29986634072334 8.546566322494497 5.663750357453762 0.10152386497811547 -0.4735059281466361 -0.2744534353927274
P 6.753455687398605 4.015645646284963 1.4820715459083456 1.1752509979134664 0.5268342072561313 -0.04638450080181044
Ni 5.190411836466214 2.7899076003724934 0.43940171159929325 -0.38777943521209346 0.41214577987159984 -0.12534539287774543
Ni 1.454859239112759 1.1242716327457503 6.914976132357484 -0.17027593484184866 0.10191904353400513 -0.46208508790420416
Ni 6.9024177838032115 0.6177230565673877 9.113468817884781 -0.846408189136581 -0.004556509022430862 -0.025993595850284264
Ni 2.6615503813376797 1.5652412242183305 9.255780257848132 0.9972087888626374 -0.3773014184989051 -0.043977948242846836
Ni 6.179346888305827 2.263114371953181 2.574562316661964 0.6882236382416276 -1.5458490362502666 0.5874844739483367
Ni 4.120264029329054 6.934117595141354 10.302231555447209 0.15817246671009536 0.22848956706810328 -0.012700478285803935
Ni 8.437940434892033 7.008972376914831 0.4432714300458841 -1.6371229413656 -0.28720816395523435 0.14695654338961786
Ni 7.687465412717953 3.7982948091696023 8.091520033549573 -0.322839797115915 0.03476002918900465 0.5069017299982626
Ni 3.084571755765681 8.309556198972556 12.342226084846617 0.9016971915168729 0.2339469906382487 0.08560205154153645
Ni 0.09372427458507097 4.7904358646559135 10.227088593570658 -0.6676589267163986 -0.2367548924006891 -0.6649032183481323
Ni 8.504257881111943 2.318580036166709 5.853999657000654 0.3831853880835078 0.5428719774452844 -0.6270462954013588
Ni 3.4555676159606 2.857575890825562 11.390201500833856 -0.37944443298383684 -1.4155966929892072 0.39062487508068855
Ni 1.1577545584716633 3.212820907261842 12.529207241912085 -1.1379309213067692 1.174148765988223 0.35457852298009257
Ni 2.941589396499861 8.398801974643293 7.815767697420619 0.7499308854434374 -0.53179000859951 0.7764351023815531
Ni 5.671708631112716 7.870378727515968 3.5560461117114683 -0.5640067025413705 0.11413358332232601 0.3419063268290628
Ni 3.2447188424208475 8.400882274762358 3.5568638227539413 -0.37239781054970056 -0.44337414175826223 0.6717724346641398
Ni 3.2928989534035358 4.108745830834313 9.26546761212553 0.15630198916025986 0.6488019419108956 -0.7632193750222276
Ni 7.42892283211945 6.220592665558296 11.36738574173579 -0.526295561143842 -1.0521985148349555 -0.3132701511496089
Ni 0.5207441479432244 0.03344149983609607 0.4862814098668598 0.6548622891723626 -0.5789972624129318 0.2854024782050633
Ni 4.592789342088239 0.5222111647804357 1.545246027879104 -0.8757673590249885 -0.9608392490946678 0.3193230422119081
Ni 5.995596050083254 5.651779175859502 0.24278453233728686 0.5431457999319613 0.3119303492922628 0.5475141042029861
Ni 8.14145714259819 8.656173823573058 11.25407152408144 -0.9268808898713522 1.5623835435701803 0.19511022027670916
Ni -0.07111294324762552 4.829907533148834 5.727901049523683 -0.202459975773561 -0.5725319664035624 0.6439446138185942
Ni 7.94366652997898 8.869048863462549 2.4087768061775896 -0.44882308068797544 -0.4025820474425647 0.3020444576371185
P 8.498593340960895 1.7025770545895442 3.5340741799777184 -0.6915925547138606 1.1250000721777142 0.28642783414578415
P 1.8466310836136712 3.2053732527230228 1.5511113935394825 -1.2255374048728442 0.6719138453380106 0.026553839229128465
P 4.794569448009382 0.9284982808480574 8.173372188450816 -0.6435535490277626 -0.3502343870787839 0.13683591001584822
P 8.517144935096285 1.4619016403816305 12.516276960912284 -1.4869867146964195 1.3381802625822565 -0.7193188169845354
P 6.217116493064965 7.7301610961140135 1.3291496747749378 1.0252991193409504 0.30685653431378124 0.2718969875194608
P 1.8404712339104639 3.233885071670909 6.090460437201111 -0.31372137975441455 -0.22188003217138563 -0.5670483175811718
P 6.850275196403255 3.9111803589206295 6.02629713725168 -0.26974497417346444 0.3278099966369967 -0.6931935806523933
P 2.4087263746595515 8.549096904024616 10.1443926113051 0.4338502614282271 -0.98541308177929 0.5094468650176194
