# total energy = -340897.81101645884 ev
CRYSTAL
PRIMVEC
8.99373429010655 0.00000000000000 0.00000000000000

0.00000000000000 8.99373429010655 0.00000000000000

0.00000000000000 0.00000000000000 13.16323923417070

PRIMCOORD
 96 1
Ni 6.259729103497597 2.0896582208319603 11.410290618557791 0.4329511466527253 -0.38961108910419356 0.17692815005104368
Ni 4.8352834563514975 0.4093768039726493 5.982481950217056 -1.1687468782463613 -0.782722992272794 -0.19926049499965684
Ni 2.908861515498965 1.7537602271861388 4.838833283332648 -0.13274374222434557 -0.7545303318886618 -0.9259249537159862
Ni 3.522611940752745 4.267958688246688 4.761867602165709 -0.8564108088752476 0.16040906935009794 0.06994840416467953
Ni 5.118091435632661 4.523299802566023 2.6812858581246712 -0.6946657943225456 -0.4625378591709066 0.18357676571581286
Ni 7.125142205687153 5.929641062296223 2.572387023475916 1.2231087408266936 0.6609971984255069 -0.012532071028739707
Ni 5.15843732830416 4.548329365496202 11.616966635854057 0.029072491885924125 0.11111922197603444 -1.103549358503106
Ni 5.562264998130952 7.716561188340992 12.370957261512642 -0.1667905473964095 0.4152097635089043 0.1626595559471715
Ni 1.7536702898417973 6.615098532193306 0.4774000149917348 -0.06318151775449118 -0.6811857575582397 -0.925207358823671
Ni 2.628176057544257 1.6028003947092964 0.2340583411544138 0.25683263698717057 0.35834570333200866 1.2575913479845953
Ni 0.6593279732456111 -0.04236588542540449 4.533907012957634 -0.6132988639082793 0.22198956116605637 0.7707930736044275
Ni 8.594232750564265 2.180467957413353 1.4209317951026852 0.12787510127813462 0.8446647240829132 -0.23540043525532361
Ni 6.962292656288393 0.6621583014720314 4.867331729634071 -0.5519014346374043 -0.3319335318870671 -0.8145630196015262
Ni 0.9218757669670129 7.352269975086627 2.6604617654158904 -0.9098804986586136 0.5849784196970313 -0.30158885815693864
Ni 7.506458558225322 3.743830826628997 3.8735330683973337 0.6814163855118072 -0.1773310419164172 -0.7605114891727612
Ni 7.434050002296155 3.962009830266514 12.56087615281124 1.000254774777813 -0.5350275417002012 -0.2794208067003317
Ni 7.838282390172484 8.782183812768675 7.075451822938594 0.37713249702120855 0.011708032465547578 -0.1227568062149628
Ni 6.691077600692822 0.6904660806034499 0.3812794782269892 0.245214593132268 -0.013574396250325008 -0.005304442932048929
Ni 1.8291547029474358 6.579411393958685 9.138250255883031 0.10492363468828382 -1.071472018352587 -0.5337751573503388
Ni 0.20928150216183394 4.69119483698233 1.3335019039216376 -1.3099798888886407 0.4858312824812085 0.15433560946250838
Ni 6.307431870936213 1.9983538288566904 7.035567308843565 0.9515629659990643 0.6076190399146826 -0.0348333056291013
Ni 3.4477031266508904 4.245690201787787 0.3910035038971687 -0.5502204473905556 0.6488492502090631 0.09630246867817609
Ni 5.919945816576232 5.581421652475645 4.78001965637411 -0.06779407682583809 0.003414424998187668 0.13165230893237972
Ni 5.288792515192415 2.7821038223843617 9.318862430789194 -0.1479147935378291 0.2886376973129094 -0.43799410839327146
P 0.16715395069893385 5.430254964106818 12.370180202857533 0.2992285854548782 0.481041574402049 0.001776118063816296
P 3.98531259618534 6.189443068894884 12.476737069059642 -1.1474625149462883 -0.8615851539873355 1.1600287816470731
P 2.3652981937691226 8.500536025229517 1.4350429644298321 0.47347893156344256 0.02172222216844001 -0.44390918832612586
P 6.3288009839517025 7.670459305631651 5.832130993561404 -0.4043525090794262 -0.019148547903992827 -0.20209719311750357
P 4.605619453841599 1.0787264954982094 12.561863664852108 0.459055557049261 -0.3424128341518361 -0.40464561483981276
P 3.917733675647301 6.092949292151123 8.130222607398059 0.5882213521143611 1.4285146866024558 -0.09845988134081109
P 4.6846114233765475 0.9926654506980364 3.7208131620917326 1.1037172515395377 -0.08789341867887443 -0.09668684860078831
P 0.13213055006555163 5.595568796740529 3.602186704279024 0.4263680941185689 -0.7987612766825792 -0.7812682621041384
Ni 1.5303019014357884 1.1305483933076566 2.6400720700802784 0.21620097950873735 0.9444150421003734 -0.30308601152775544
Ni 1.898964069625139 6.621780876877863 4.867633919111057 -0.7912143175732567 -0.9599733015499466 -0.6857283826235997
Ni 5.829172054932576 5.326827018114343 8.953832831937786 0.01395183419440178 1.141115746792654 0.915169514971695
Ni 8.47878018163336 2.2253736734429554 10.271407731550028 0.5611252672285175 1.310892116290265 -0.22371194317380183
Ni 2.3785549583250276 5.239434900617918 6.979504865248427 -1.114268801803139 -0.24055472576275347 -0.9185636282549083
Ni 0.5536452980305004 0.08220722959514917 9.208976084099572 0.22496766995777384 -0.2982806197193121 -0.2628222789117022
Ni 1.431523716145758 1.072862580647158 11.415016826002924 0.03807649515674733 -0.019951760531578544 -1.0468164245874358
Ni 4.025415658027118 6.7819412996808195 1.5567767574895317 0.2346077641506992 0.0828417151875799 0.15424356396933436
Ni 5.670801385282012 7.7962276879585 8.038408270680375 -1.1538069691070774 -0.05285159658339285 -0.23969649152751624
Ni 5.344050019555698 2.8372174269966997 4.818943639631574 0.2866700320635773 -0.4668208028169767 -0.054127892192655166
Ni 0.815014013167588 7.4321793055338565 6.835367679713314 -0.4202247002249924 -0.012030191691656702 0.4359212850246428
Ni 4.925391681647029 4.561981854367209 6.844607842470937 0.5425914700903881 0.044491140433839504 -0.19560412919399214
Ni 8.30065927116545 6.983508875818501 9.09644378073943 -1.085890250660446 0.6189033545792503 -0.23642990496110247
Ni 4.676139325539598 0.2838638437037292 10.386822526796308 -0.6532545783656104 0.053179926457089056 0.025422296727846537
Ni 8.146884399810725 7.170596539517237 4.687337424283531 -0.5764397860984009 0.04023185093685329 0.38183195937940695
Ni 7.082161148826454 5.94669318278333 6.963471734872706 1.1154031725178983 0.10498174161972887 0.07142678848241893
Ni 2.1732729698660505 5.241710315429753 2.5741111223669386 1.3947494172265529 0.3459326743796365 0.29840249000915703
Ni 2.174415174139185 5.262458860769287 11.322860727376744 0.29083007697853785 -0.11851628577105393 0.583050606546699
Ni 1.0888984091432086 3.4625427884672018 3.771426301993233 -0.6434100814713628 -0.7144663739882404 -0.0943052357424892
Ni 3.8053479701584343 2.4899243718228377 2.3641442976412237 -0.5306186139992282 0.4869836509180968 0.45256249312574964
Ni 1.3342924531783975 3.343861468874446 8.208990632945598 -0.8687299925622329 0.1505010662077666 -0.14232778636835489
Ni 3.655755185315579 2.6625051418793246 7.027840791591206 -0.2501670520415369 -0.20316522937070172 0.2686075181349116
Ni 3.9999004334374963 6.958704156249175 5.8907602489640425 0.9734183713112591 0.4393537077449595 0.7763011479068501
Ni 0.5986085739604812 7.2859411836349315 11.309342245148803 0.4784748421161373 0.27074513330320465 -0.2135051778441291
P 0.25155025525534985 5.4886153068498755 7.778894962957048 0.048866900904031965 0.2317111593291945 0.5481532804488817
P 8.53696964342217 1.663436152264189 8.087349475350571 0.07336925692077041 0.02255680225459341 -0.5394986900976774
P 1.8316369736512552 3.230558402473298 10.37795020777704 -0.5344086771692795 -0.33415213680494066 0.03118233914007533
P 3.8960857568643537 6.130435177272569 3.8074534033894634 0.2181305924312824 0.2511875228862513 -0.8629961754022492
P 6.892465302141821 4.0299395064474846 10.292942329279105 0.36522391850908065 -0.4611430357059091 0.40946694748785606
P 6.28295991954095 7.754146004541214 10.143789338050079 0.18878916315468777 -1.1028291925076297 -0.03800836092297325
P 2.3791845197354164 8.729768328486577 5.699155931832488 1.2152254814238748 -1.0764920972749976 0.6489577507624694
P 6.994220413529548 3.967846763914263 1.550589967572295 0.17517491480536282 -0.8099077802177019 0.8870421606078595
Ni 5.384449874633803 2.8760074036110947 0.4748206119560268 -0.3848123821639695 -0.04643797974756519 -0.21937294947881572
Ni 1.4666802240487653 1.282065837319415 6.883137000786743 0.2839593180006335 -0.2994057344626908 0.9657629116485301
Ni 6.890261837205459 0.6691536281148962 9.233367091884926 -0.5308541270488019 0.28331294266588625 -0.39313041511136165
Ni 2.8618692530806453 1.617783956276554 9.233538872212618 -0.34635150708461 -0.6544259729658923 -0.054171600946397024
Ni 6.396865566149184 2.0020052850369465 2.5296326087229573 -0.223492370963828 -0.48450202214682364 0.7194044347198062
Ni 4.007329258080086 6.780826076610987 10.401197212542375 0.878721556557306 0.17480801838424734 -0.8616849127899935
Ni 8.047647534064554 7.159804058196283 0.08043726265851275 -0.03187088056666769 0.13655488844031966 1.600337139995818
Ni 7.6913787319254325 3.7535530535522894 8.194642928402834 0.21243225649492448 -0.21519542106235842 -0.5598975654690035
Ni 3.0251415079978092 8.342453155080845 12.331283200803373 0.7237084614117988 -0.23341940026955282 0.6511164489766851
Ni 0.09553054778586677 4.828915892372135 9.94859202401209 0.007492194611987097 -0.5904296726195897 0.8493667575442727
Ni 8.596409234297322 2.15878406369267 5.856325038562653 -0.44291185740986305 1.397173453287013 -0.4797696496681609
Ni 3.700328133171119 2.768523283388828 11.409014407641587 -0.32660723457814717 -0.47353395317109415 -0.0572731226898562
Ni 0.8951670738179823 3.3048376551647634 12.424084150188481 0.27795810611187616 -0.019325696911805426 0.28152756863068934
Ni 2.861581453578753 8.425501298845584 7.851332298836404 1.2984652033808217 -0.11327149243234685 0.4145075952355571
Ni 5.687169981952125 7.710481423863521 3.574846650972718 -0.8097380874090572 0.9677886838293075 0.1675780762947114
Ni 3.1063009675313826 8.277950091719276 3.5595770886504554 0.791010943313199 0.5649001608899175 0.17203431229385213
Ni 3.451453513909922 4.343245239194776 9.283637570504487 -0.08513848164155662 -0.35419208617495135 0.16064561084093623
Ni 7.219864216747391 6.105369639404653 11.27803955245082 -0.250523149829375 -0.6729440863747378 -0.7146306674802466
Ni 0.570595789318502 0.1648452590696931 0.40809969368300303 -0.5403744078344113 -1.0601617355460904 0.061040560152088426
Ni 4.508379197139804 0.2282366968552026 1.5196038543263928 0.1078400370041304 -0.07086371689009732 0.05828742288698348
Ni 5.841520452310634 5.469809408148114 0.5288288866064104 -0.0342136697672314 1.4722193265792582 -0.5566721165531703
Ni 7.725923665886919 8.753727637019095 11.401576589264565 0.42040210634312114 0.13208245449126282 -0.11664580822121846
Ni 8.947407708058046 4.80498356504292 5.607473803010984 0.9584159843651558 0.24357628619789667 1.1297818098370735
Ni 7.909126036310111 8.775717317710539 2.490472090249876 0.2831226810319511 0.11687515062320517 0.06541349240880348
P 8.524612252309678 1.5989510763714894 3.646151675686817 -0.2880926234427167 0.5914791969300265 -0.5493609276037377
P 1.8308185438177493 3.2908434043852597 1.6200791573041433 0.4495478746691419 -1.368172952289605 -0.5906435884026087
P 4.741083081888439 1.0153206677376054 8.144306795521905 -0.5566638890230542 -0.6144324632920902 0.46689510769833786
P 8.38706207787412 1.5716011299573054 12.349264374057526 -0.2437305523875738 0.6913668118562997 0.6740416903142907
P 6.311488045166005 7.718701697136314 1.4184711093615074 -0.2739117039566444 -0.5663561766101536 -0.27729707548910953
P 1.7863894957131559 3.344571973894742 5.867738087559561 0.10741349098967308 -0.3144369177642004 0.6341443398987207
P 6.981386354492047 3.905915908600856 5.976558676718739 -1.4631952687037768 -0.15341618297203255 0.6210368559824853
P 2.327011866283039 8.26150954517369 10.297022786591869 0.0035077560429423458 1.8385740162586721 -0.5387893227354785
