# total energy = -340888.4767919158 ev
CRYSTAL
PRIMVEC
9.11643151468502 0.00000000000000 0.00000000000000

0.00000000000000 9.11643151468502 0.00000000000000

0.00000000000000 0.00000000000000 13.34281902475987

PRIMCOORD
 96 1
Ni 6.16587114873306 2.374821309732745 11.490462493480827 0.17377932000941684 -0.9596681116047021 0.24771421962567017
Ni 4.571170238455821 0.5454479526946853 6.12550176641774 -0.845216225711009 -0.9568429834510813 -0.33278790946756237
Ni 2.521951398975993 1.2819526085498165 4.638457708292583 0.8657557404252574 1.572290518271247 0.8938555839852671
Ni 3.1127052816856833 4.158259702976893 5.146445331988604 0.2103128961590765 0.06300796829110439 -0.37918012357885666
Ni 5.300083641735648 4.387847915846461 2.9908459407776657 -0.3680973834021338 -0.8318770853999415 -0.727357885238928
Ni 7.326319957206414 6.234773138602349 2.6491766715110368 0.3662757568123628 -0.9485354920266503 -0.6038379756056955
Ni 5.194488014763435 4.687340926058938 11.467552900924394 0.635408551323125 -0.3278115392988935 -0.6422625981304809
Ni 5.581872541822938 8.072572813348293 12.699348726216357 0.25631558814143596 0.16937476318381797 -1.0425944160862883
Ni 2.042244769322378 6.4884743129966935 0.365165048373552 0.0478968236812788 -0.04149014882398661 -0.09644902155836937
Ni 2.820614813914839 1.8278901136202599 0.3103114795665242 -1.1661099548441465 -0.8752875911750925 1.108194313474285
Ni 0.323440052682529 0.1506180359651305 4.960139201323645 1.1676143073038148 -0.15124102969758468 -0.13221409497312067
Ni 8.568269663990362 2.322137451641369 1.2540116574052829 0.22701169697099613 0.9353177077847956 -0.036744920829517365
Ni 7.092155295684507 0.5439382716253078 5.093994854545633 -1.253483753574125 0.313404362734628 -1.1521257247499124
Ni 0.9846840076424604 7.431860885589157 2.9197560073295685 -0.13956025092554675 0.5197325632143437 -0.6598345455759733
Ni 7.846521775931132 3.864446229637738 3.473723265334237 0.1172675009656174 0.30596513284776333 0.06943624041495138
Ni 7.579228002053442 3.9692578434942107 12.586174609673048 0.6675352566543407 -0.010530981438310895 0.5521004380220879
Ni 7.94248133472501 8.490834694163722 7.043621237247603 0.5114986053403255 1.9768397167425118 0.8242033709047676
Ni 6.93682041802073 0.7026580803341321 0.30630754281730593 0.4686797104025864 0.2796668612728667 0.01405416410022096
Ni 1.7791263211075807 6.567532007644283 9.225651898533696 -0.2587635354612963 0.5290355857828244 0.9613516699547122
Ni 0.3408205294866837 4.934332406811606 1.2830365522644842 -1.0357429403820937 -0.8863201948401704 0.9070340303487541
Ni 6.200066883583509 2.000710307051343 6.908431850085699 2.330003875873581 0.028174662662003087 1.8689078913555235
Ni 3.6986639213851538 4.266234718591059 0.46137075082004764 -0.7461313091916891 0.3535022591967783 0.3985071060422427
Ni 6.112968496283802 5.68177951549025 4.8262981343921805 -0.04814262114349773 -0.41387176142377113 0.32873379400284675
Ni 5.534822638446991 2.9444615369069402 9.184903272664716 -0.4757006218051098 0.5048029384877047 0.21228570361473115
P 0.23378724125456282 5.4666226138092355 12.477457516528403 -0.5759258225764597 0.5226173409613064 1.4905718609445169
P 3.8645009282272076 5.964963229609031 12.465048229863934 0.2600532008069973 1.9426275896371767 0.9341301152345977
P 2.431689609918592 8.434467797714685 1.5535976552198596 0.44593624605848364 -0.2351998892087433 -1.2704774599186441
P 6.217616014371864 7.65645329395378 5.776600431979992 2.306430716539331 1.694991788657926 -0.2592337902294955
P 4.546437359583714 1.1280672435069998 12.67535792487473 2.3980694611932503 -1.7410728992867048 1.230753916076777
P 4.176556381154674 6.069346371181321 7.8801759947458265 0.580005134852156 1.4983828723485033 1.1662256544864045
P 4.8042409281883245 0.9621299559175832 3.7978862510409304 -0.10087697542273594 -0.2190507902527066 -0.14287157468696685
P 0.21560816504414335 5.601846643411137 3.7046069231310903 0.13456305482127148 -0.421655519134248 -0.24690046547512318
Ni 1.2660353190139897 1.013774540809026 2.5344281472341446 1.134219533893453 -0.5406965670605204 -0.08385190161964913
Ni 1.9873091526311448 6.385768594834824 4.945729769570879 1.0180763763402658 0.6687040801514612 -0.6893382114620451
Ni 6.181524061753113 5.798150764588091 9.186250681252 -1.0106613148231174 1.1663855771030363 0.22054331563783308
Ni 8.395896175706618 2.30980291971584 10.441049086702495 0.2299080446821847 1.4976287677912983 -0.3870852373585462
Ni 2.293466274327408 5.293884468262358 7.379445962229342 -0.45263756933805915 -1.4885939112825395 -1.5844019568228003
Ni 0.3571644680203781 0.4744519184918449 9.272325293285459 0.027184530834591897 -1.276321834514563 0.7554086207285571
Ni 1.5262729748500234 1.0850194535939557 11.405174629492583 0.7207005278234104 1.02878116435228 0.2740274035989022
Ni 4.069802967372008 6.686537905468272 1.7065330880922107 0.8812391807728371 0.6849634794331171 -0.21554509109229328
Ni 5.5940338615484775 8.041932486813405 7.777022659793459 0.2698527033959224 -0.034696008720288635 1.8367883851131592
Ni 5.037320734352406 2.662171233082839 5.110833815314034 -0.2060168398868839 1.1249607342993466 -1.7702724036687965
Ni 0.9536425581181245 7.3723579366771625 6.827720434749794 -0.4465859638273406 0.967481951222166 0.20253222377239313
Ni 5.498758035122975 4.536053744015955 7.167148885134461 -1.144640729226777 -0.5448404140255649 -0.8360240176887795
Ni 8.246742238652974 7.25560379745303 9.285201341246742 -0.22391814564733692 1.0201545990255334 0.4544841356284947
Ni 4.3101850352303614 0.6431168424095086 10.566938802011308 0.3426776577774485 -1.9050570875825705 0.7642745557596192
Ni 8.204232318203054 7.271147313294144 4.803668416285203 0.36858357900993294 -0.8063871686589531 -0.14802663652534506
Ni 7.334059807616447 6.228391636497492 6.925683785204599 0.32124777003844673 -1.422104669311054 0.5561784647462034
Ni 2.4112323374567386 5.301660784398704 2.644920209607098 -0.7947393000073797 -1.1648316023523553 0.4128155522451148
Ni 2.0439951241854244 5.233934814203024 11.409017205402865 1.9129228634838924 0.9453948895151396 -0.09044189613234102
Ni 1.196258151713177 3.026463838954342 3.6785220774559115 -0.09539178393844863 1.8162959215867622 0.4521110074106279
Ni 3.888896499130915 2.4640073598638996 2.4254840549431984 -1.0125492758744497 0.2089666665438272 0.8674984341479769
Ni 0.7151339169491259 2.9291276989921284 8.55496240881542 0.3488331358558831 0.5579622961195035 -0.788931435076351
Ni 3.7934201112106885 2.7717233913600623 7.2759462028769955 -0.41364678989715853 0.5200457235793883 -0.8243064721415352
Ni 4.226140652509406 7.163819564322042 5.8352154404562535 -1.6140478047136912 -0.9538905856909764 -0.5356967998530838
Ni 0.689704542704432 7.335491087374251 11.524019166477634 -0.5580317159048583 0.4588544967820485 0.8890530203903011
P 0.06859932434088792 5.801295933482628 8.015031720511962 0.19858198087539347 -1.229112266708296 0.07221791692514659
P 8.194623599319456 1.578829202899303 7.895533535382742 -0.7826363460962585 -0.46571805667110117 -0.18708452175875523
P 1.8177982238630088 3.460706824326646 10.335480809025018 0.8106647129883846 -1.7934971785246918 -0.10721217361214438
P 4.155862081471783 5.9731862508927165 3.824078670608733 -1.1669615042111643 0.9439738407978969 0.4730174185459917
P 7.069519196075425 4.218227589899384 10.324673279388865 -0.7383382955098317 -0.9242851041197178 0.5480159835400691
P 6.369185805793776 7.814915107648937 10.484093230042909 -0.46649067317106757 0.35847554404165355 -0.2857801732594562
P 2.4679456583057533 8.627180044849762 5.796801532714492 -0.46326213893144086 -0.5809782973987027 0.25009428982207255
P 6.825991959322536 4.338992959017998 1.4652147627107597 1.0047392929117276 -0.7400285387280611 -0.24607822668414392
Ni 5.505586242375172 2.7507920644561348 0.5619049349799514 0.0580591089262613 0.16915621941510867 -0.5532363513987439
Ni 1.1957476315447884 1.0233741432610453 7.168055970076509 0.5263842642029064 -0.15494598935299767 -1.5007071496063058
Ni 6.7097027581089 0.7551824008728873 9.565733997062532 -0.23059272945403514 -1.073247107975139 -1.012973507896062
Ni 2.8342712284192313 1.691891187334197 9.07651984091584 -2.3632973478193877 0.3166562940130224 1.3316344910439388
Ni 6.3863976286137305 1.9899164520625576 2.6135113678901534 0.5074750860032292 -0.45145383344260315 0.6767706592096796
Ni 3.9994605813133375 7.168478060858587 10.509377653025506 0.3890994395750977 -0.4972649782394468 -0.3666920184141749
Ni 8.748793242105164 7.132668717618766 0.7324916026743347 -1.3136586232918086 0.47360465850802946 -0.6310667294146616
Ni 7.583220999084766 3.9700874387678424 8.03053603569729 1.4460642654504452 -0.3349388943722941 0.23464247404337654
Ni 3.2327322198464494 8.418194967347302 12.642467663026299 -1.217173349178865 0.11465577437438317 0.24372283907808992
Ni 0.00541789528702287 4.8586660247111695 10.16454589364434 -0.3578409957814482 0.1157405227981297 -0.42873093792379063
Ni 8.693401803835012 2.5122423993450336 5.4690876969080255 0.09321328822989108 -0.32381784475846814 1.2554812436201281
Ni 3.7811493943062087 2.7096587251745476 11.648961684545455 -1.823281608875976 2.446401315529419 -1.6730934459229378
Ni 1.108494264908248 3.3870004750155576 12.680508708716506 -0.20524448049723362 -0.459135518357577 -0.10232939159854636
Ni 3.197178136690822 8.238829176042952 7.979632616693168 -0.6909528642473326 0.2846990243801355 0.34331554847176354
Ni 5.840542171427493 7.923564739199902 3.62448351763199 -1.0658652136887707 0.5122938475481114 -0.19224318314155922
Ni 3.2657519350232906 8.420337328768218 3.550764405316692 0.3945285810104689 -0.9521352935627668 0.5752573357545254
Ni 3.577725340066551 4.580970402402565 9.395786391221794 0.3921706223012536 -0.29190865475469724 0.450439790355792
Ni 7.541686536813731 6.478145396018406 11.73746491395139 -0.4969482183299763 -0.38534331496677504 -0.4106041464160928
Ni 0.7110023501578104 0.12390324486788697 0.4523190459058881 -0.2577016698556852 -0.07489289265414845 -1.466556728976842
Ni 4.752094939560072 0.08908850431326533 1.64012626554592 -0.3650873929312164 0.4213081630971583 -0.7005093975875161
Ni 6.001246627290928 5.8818851886353825 0.1764804407097968 -0.2153617714368936 -0.15471099052405612 0.9665676669380129
Ni 8.221644702517732 0.06456986158325019 11.46028072345433 -1.099484701515429 -2.3627252773660015 -0.7931228474498793
Ni 0.38100484824096287 4.905788859539743 5.816695409704803 -1.0603604818204577 -0.7548496629012935 0.5383555776321697
Ni 8.068543350590655 8.759322720578176 2.729847062904839 0.5478630029019727 0.08257046380406424 0.040678708666284785
P 8.512322123393929 1.5790024150992918 3.4203912289576386 -0.7069019313774213 0.9759092560539129 1.1304713797049304
P 1.7201430087955532 3.2919343265163574 1.6055284960628633 1.4374613542727825 -0.358990278894543 -0.3842601092049253
P 4.6844510172485965 0.9653115905384327 8.498161570223253 1.3666755418084722 -0.1869153431707426 -2.2568063686439843
P 8.758693686799269 1.711892638217132 12.4536672766815 -0.21164935558231293 1.0665367858344987 2.3073262317704066
P 6.619304222577823 7.956465940766225 1.453486473485192 -1.0025512841214732 -1.1367574698239584 -1.5541184753479105
P 1.6944346717445613 3.112796446001467 6.45873833647438 0.4356842293131722 -0.09253785942942128 -0.5748238477615326
P 6.971025269302759 3.847562598354604 5.669577171822607 -0.21038257305474736 0.08751058141815897 0.14616875738099985
P 2.0311500720915068 8.392012575854235 10.408012961948813 2.1441192879601974 0.6922579562120014 -1.3711292067044514
