# total energy = -340858.77188649506 ev
CRYSTAL
PRIMVEC
9.32415090456623 0.00000000000000 0.00000000000000

0.00000000000000 9.32415090456623 0.00000000000000

0.00000000000000 0.00000000000000 13.64683734845302

PRIMCOORD
 96 1
Ni 6.368973295589342 6.955275916473915 12.04453558182997 0.5466365866940391 -0.2741076220175344 1.2011762024196604
Ni 5.987876592014371 3.5145709207262037 0.3808598701371466 -0.516923890120955 -0.5494588866341826 -0.05051163559630655
Ni 4.60486255662434 0.19853821686121365 9.322700257582106 -0.9608446484113065 0.6380899548100302 0.4022411191633782
Ni 0.7023538026644016 2.0007390454664127 7.915697978668703 -1.7247026854587975 1.2289631427249414 -0.8470782186204121
Ni 0.6453431456212314 5.045587206454988 0.9334221178675698 0.5688475755734396 -0.8177303615859142 1.0728251899463717
Ni 1.5505597064249361 5.750455732669844 9.956473064108941 0.10161051115465079 -0.6383378091547781 -0.08240462765016131
Ni 1.9140803851849049 7.191223559945355 11.906155855421765 0.7441106792172345 0.21369569658838033 -0.34257172832720356
Ni 1.3395821395872258 7.212212224061308 0.5009232341333661 0.5571446853142147 0.0230414552004958 0.21776601000301204
Ni 1.8474033807010375 7.683883731377896 5.236414350360229 -1.451490321562023 -0.9643616604256293 0.586883350029228
Ni 4.528805456138407 6.724643039126907 10.774669187568632 -0.9747885121859083 0.18842663760894646 -1.0969966449862525
Ni 7.425241104140027 6.1957212440839955 7.073510814440309 -0.7469854296618684 1.2622399025002005 0.5947676378733111
Ni 7.926442197976039 4.683577040172489 13.335484814133327 -1.383888563252649 0.6100739292130783 -0.2822618756935526
Ni 3.06151041899622 4.890750353363238 11.813712491800615 0.5258659298055912 -0.47033961460351253 -0.26900038269795606
Ni 5.80158005312643 8.5311786655764 7.4777435341285265 -0.5449178042307197 -0.09339506522339398 1.3055923013439064
Ni 1.2211747448255659 9.1072899893136 8.048972732352127 -1.2493833582525065 0.30351101488031595 -0.03077584773027603
Ni 6.445794976465106 8.968882290452107 10.772145139867083 -0.6404615403660002 -0.6388432880362869 -0.44462035546053746
Ni 1.3505007205200477 3.2592197188250447 10.792315143516852 -0.3748989797049995 0.5170776420899998 -1.3072390929187099
Ni 6.240113527449636 2.878253553365409 3.7036973394716273 0.018597817606845393 1.2561343038230948 -0.440116554052913
Ni 2.4940705557778284 7.218403460388716 8.06543079145078 1.025574484489524 -2.699471400150364 2.1910357500060784
Ni 9.275395109414234 4.31655980475171 3.1427843820200807 -0.8850410710174307 -0.6664556504369167 -0.5274818681424593
Ni 7.3164096125534375 3.9597338664783055 6.8343910947661834 -0.7300696277431362 -1.385276701849427 0.7207048986987846
Ni 8.048196962980981 5.759537455836853 11.01230170514303 -0.1543520645227406 0.5096168149365804 -2.595489303439743
Ni 4.240801077100833 4.255990119235391 9.640071050494933 -0.32780099777593225 -0.5410362097881263 0.48903667679238355
Ni 1.8602054401551487 5.122306321668701 6.9962835329918915 -0.7688562615930308 0.5405266171415594 -2.466026031738882
P 8.782837503643744 7.650745698384514 6.014338532823379 2.602439509505331 -0.11275135826281872 0.7143956686513051
P 1.724408503600395 8.876778325930832 3.1525971186329773 -1.2603887082240746 -3.384554178770165 1.6848361882811627
P 3.0983128433701292 0.9815533858225024 3.0097828259637556 3.2733735074285755 3.469175354455671 -0.5824265998094549
P 0.1751532459137183 3.5920919129341287 6.122162083676545 2.363491980328697 1.373555299647441 3.528723903443265
P 2.889265375809186 8.231146131625641 10.090608436938478 -0.3211228144248083 0.0033378061239813486 -0.6259245230920898
P 1.987778475443678 5.106380671597599 3.793029233872213 0.323183810718895 -0.2821096663864045 0.5566397206533381
P 2.281200186267734 4.181191779147349 8.690797875765028 0.035734477287132 -1.3178425794661692 1.8860617774269905
P 8.228339562145898 3.728327084590371 11.384847229748324 0.25379744970527257 -1.8833664899830145 0.5972137854209586
Ni 0.7625626435333258 6.754256543006191 2.994143427331286 0.402942516105777 -1.550486277911962 -1.1626924445221654
Ni 6.259004257569103 5.785206843802744 1.6683255995912265 -1.5127913344643493 -2.407403851220299 -0.9599715017777338
Ni 0.580567335545735 7.941752454074838 10.076156002740465 -0.6115376582427984 -0.6338733456255211 1.1215200840489137
Ni 9.201342701413832 5.459029390180223 5.1064692510330065 0.15859232785633334 1.6447143805596127 1.0506743648809453
Ni 0.16642957014877544 2.9242868873238557 13.280952516451338 -0.4839515489599924 0.1584707146768045 -0.6564396609618114
Ni 8.184991583702953 0.9531054008301546 11.30450847907934 -0.10852857843072276 0.32157712835340746 0.8633394176742809
Ni 0.41278669590322276 9.319852661837542 12.774640855399886 0.41196220310588405 -0.2711148579377976 -0.34331811957492486
Ni 0.8014872446965691 0.8024485646745143 10.264714580684174 1.9253289504577291 1.3133413491617059 -0.3662271629626144
Ni 8.307855922688258 6.843143675399522 0.5570900555023943 0.044438689929349275 0.4380506726628198 -0.37809486093447786
Ni 3.836468588995894 3.0964293648488397 6.162379944596733 -0.8844111507429154 0.24426842716891478 -0.3616040623683062
Ni 8.535961955088387 2.53119932544008 9.66091052819336 -1.034942041747353 -2.3858256108288907 0.7183245713920661
Ni 3.5978076175556657 6.526495504196594 1.4801222718042568 -0.8744712659213844 0.11107602744292483 0.01230735661244332
Ni 0.27951753671045704 6.775049399949139 8.100585638326114 -0.5581661846001935 -0.8830633784657695 -1.8225619571011322
Ni 6.902762297504101 8.286550237435058 5.5098012577254 0.21353011754479354 0.8597933521942355 -2.220174062132931
Ni 6.096325793406044 2.017158875545575 11.557493211432464 -0.3262452232530381 1.113059611986386 -0.2757996650079766
Ni 5.575460064909639 1.3110222647817322 2.0840223630513526 -0.6800997235829126 -0.6577648075311382 -1.114506371735242
Ni 5.600644597018564 7.606381387472162 3.2925041409906237 -0.9423489035999643 0.8418923035440984 1.0145043427182914
Ni 3.670899637993232 3.069780941017922 3.7818113476892257 0.2875182389964855 0.48668308895854256 -0.8898698598646415
Ni 9.07644569748971 4.214189949874298 8.451855314961715 1.3406469789551945 2.285090560300658 -1.423833993297335
Ni 4.716174272402331 5.576252617752756 13.472512538632687 0.3461442761698103 -1.317162522680009 -0.4828284910991426
Ni 3.1577076858484165 8.917552838671421 0.7840790546012845 -0.14756615194915876 -2.2005951115597386 1.5057336562866197
Ni 5.1996315067036205 0.9471192958268483 4.3725970204205105 -1.0975008383161808 -1.3563533339468576 1.0226827647640255
Ni 2.9603713520634125 9.32405785398161 12.188072496209092 0.5746682960202748 -0.42283077038927175 -1.9594909410514192
Ni 3.8268367409142496 6.270799308704902 5.779107916571182 -0.5317205888141553 0.36129964375401 -0.42155216078716434
P 4.766086453216502 8.351791322650218 5.538555074873679 -1.0707965895521172 -0.6765436308005381 -1.2910817664325571
P 3.9586988857067054 2.053196719529654 11.170591291385438 0.11873405820881487 0.03091802973509514 -1.2588650724906965
P 4.886787589147653 3.9277147316163834 2.1785673903294276 0.11454598826939627 0.5581299320456194 0.556273595563171
P 2.514350584410525 4.206767925602285 0.10905993328842879 -0.18637232618307903 -0.07749022106767944 0.07376417836634394
P 6.198751593190031 1.838685299426752 6.109921338118382 0.9583715042804655 0.36342774584060633 -0.49378627566222705
P 6.525917406828674 5.908975625444312 9.294697034597014 -0.23049271354106113 -0.06409554492832832 0.3098449275181438
P 7.47707406007987 6.697575028496693 2.934520143151159 3.234479144356223 -0.8207660630884446 2.333241151863956
P 5.592411371601244 5.032132456424192 6.140326462425675 -0.5470464205379482 -0.6843880665456213 4.094035440838988
Ni 7.325230259489773 8.505844947049948 1.9588810663685274 -0.6153853141236627 1.1184589286250866 -1.1516117612279715
Ni 8.916695016770635 8.500875174516048 3.7631154923276537 -2.333927636408019 -0.29845185518985373 3.454139028947838
Ni 8.096626603770968 2.834616526238504 5.028504429232936 -1.2105231908521992 -2.17886286208897 -1.7161568527713151
Ni 2.3513923957146017 2.142223714189417 12.577566530260665 -0.8164558657488648 1.4220000254123897 -0.6345251202769072
Ni 1.5133283711006345 2.7031926165475357 4.65227493252981 0.8810887712379019 0.6045915659422685 1.643963875546833
Ni 0.6851367576665746 0.36509552787999733 5.541421318920434 -0.5175049594354055 0.4501952784451537 0.46542932178608876
Ni 1.3645522162209551 2.6180910894989755 2.239404678982188 2.4157486236405683 1.6342363638464241 -0.8414847836930347
Ni 9.290985090045899 1.5514827973833898 3.4817583006060557 -2.275526056540674 -1.4227577295140206 -0.5937965322092934
Ni 0.18427040085489094 8.907715859265677 1.7116959559968006 1.6111851384539155 1.222525614629714 -3.103424616908842
Ni 6.511129303191223 3.5588140176743157 9.15977097375458 1.3433371241928478 2.1435665007805214 1.9390789530539703
Ni 3.3198453492479367 7.170216247527209 3.5688523987437235 -0.3160518276598041 -0.23116325724552447 0.5870281031372083
Ni 0.7168407362214685 5.20238213127679 12.238061135062248 -0.001232072634888201 -0.21519387840046167 0.03286769726229823
Ni 5.7768244319678965 4.65786103145112 11.64978645622098 0.7793993272161996 -0.9240660461303762 -1.1091854737429605
Ni 7.732639717456226 1.554475849885043 0.8967865957982699 0.8550550661783015 -1.5382149167437766 -0.08491736676968602
Ni 7.084788375190307 8.883967246425458 13.11372386655368 2.5753781345121647 2.6690107696676613 -1.0943064997485992
Ni 5.643908658101649 5.26059280656595 4.273834679601944 0.1297391510700669 0.4608658707851224 -4.926329044951058
Ni 3.1854750078107936 8.785774611238825 6.897603244702966 2.042864617483069 1.8632136691842234 -1.3494884885062242
Ni 3.4043967513818636 1.7332011780834444 0.90963247876253 0.9824969365737595 2.3648531223422817 0.9311512351119319
Ni 7.880725885154839 8.073857026795777 8.828589248239108 -0.6135138081325627 -0.5259649172773007 0.1374979690798793
Ni 2.8440712154493335 2.084096956260116 8.573202614563785 1.6565964767091792 -0.01197748407685034 1.109948062940598
Ni 5.211920737847479 2.5178378169202396 7.845130005932687 -0.44119641738065307 -1.487683483653128 0.33769048897550225
Ni 5.716944733632643 7.852977211494654 0.5969573283413919 -4.10459958950808 -1.6213160562403304 0.8416133388510989
Ni 4.749097849920515 6.035392465997001 7.938160791072853 0.559500844251217 0.009056710885629565 0.7320488629566941
Ni 8.068393074253818 0.729543027258858 6.992571588440777 -0.7488456227990586 -0.13885988242441244 0.16724666109722164
P 1.058934515763995 1.3443001600415452 0.6672250634121335 0.7355401639394042 -1.5928495733695214 -0.1967909504132417
P 6.98319242485382 0.677173932631024 8.919368250889715 -0.7811515340206159 1.3930553173535813 0.5186380445985842
P 7.87478640090701 3.489778002963289 1.550143849286077 1.349723487335166 1.9811229174988976 0.7948948517486375
P 5.749989525115069 1.385093321084325 13.592359582323489 -0.5161350756710723 -1.1224911897129315 -0.7488949879797555
P 8.653492879647072 7.5112097772404685 12.063558714894995 0.5063494570392183 0.6179836709784583 0.46815597668863246
P 2.290393799247889 1.3692982091285608 6.52855147951315 0.9129555380395116 0.9955283158364209 -0.38619949231948325
P 7.236781362197931 0.6684968776215586 3.3697314224390413 -0.035777928930557736 1.5223643228647654 1.2246979396906843
P 3.8636857860436367 7.394070467027795 12.950657517705048 -0.23553824638476856 0.6971607928302573 -0.0015007529152425768
