# total energy = -381162.86036617146 ev
CRYSTAL
PRIMVEC
9.30664112331919 0.00000000000000 0.00000000000000

0.00000000000000 9.30664112331919 0.00000000000000

0.00000000000000 0.00000000000000 13.62121001368928

PRIMCOORD
 96 1
Ni 4.251041011677388 3.3804140386569554 6.049806277374016 0.3852816084909042 1.5484993293889204 1.1944607380726977
Ni 2.4547848164350268 8.237633815053504 7.429865757694112 1.4045720597439295 -0.3769687177498346 0.5668549706234431
Ni 7.607983701351911 3.840115578302962 9.1554687253116 -0.6919648504516147 1.0998328288834671 -0.5882648037577869
Ni 5.034576436808209 2.109657335997078 13.121434289240984 1.0056818593306551 -2.235117827926957 -0.8087896074528585
Ni 5.338382430536405 2.0463721761713294 7.52165902069313 -1.6034353193051676 -1.9433744951055303 1.325925870694936
Ni 4.153795918292205 1.6398580907024043 1.4269984556284996 -0.3121337235523205 -2.0576985971721076 0.9964497992094258
Ni 3.1248350593724403 4.1604408600739085 10.121539956654527 -1.6825563911080506 0.7598702560443364 -1.7373954504351177
Ni 8.510793039471967 4.993431776280322 5.546475204012847 1.1599192526524025 -1.0798268180751853 0.6574367347677581
Ni 0.02955696163096977 0.8768503239580026 9.339968232806534 1.3484459061743228 -0.2825274706501134 1.1813504259429848
Ni 1.9249670423585519 2.2837194454413385 1.4517755263643952 -0.5205422035998325 -0.03905325724771984 -0.5369810658821462
Ni 3.8296642202905624 3.7414372621805483 2.023580211992909 0.4977956539319362 1.373475338339125 -0.9705685605672899
Ni 7.277895753013728 8.995976162588988 3.718099928830689 -0.5366902741146047 0.44511657837066565 1.3946859109784688
Ni 5.133301286136377 0.5144562321928899 3.722826771871203 -0.5794628891954408 0.7138125424543255 -0.21465626072943675
Ni 1.4478806970427662 1.4249026000413292 12.540557489818625 -0.5519538851418946 0.6192280849085207 1.841526414018777
Ni 5.19929467853702 0.6992088803271268 9.612691906419135 -0.11856462251048612 1.1390516651747737 -0.5661036942797154
Ni 6.930869717781007 3.7620793922531233 1.2415552547208701 -0.19969835386802381 -0.49296609375377676 -0.7486795295348396
Ni 8.711360462913834 7.891826949811544 13.20363798919817 0.11808176933679664 -0.3270939444065786 -0.12422156368594735
Ni 5.445138911177752 7.170506420774124 13.357081235172732 0.05853681989362822 -3.626312437922716 -1.5705236561788116
Ni 2.2700759095141994 1.903301181759384 10.469956404075184 -0.099761373761054 0.17572281688903285 -0.8375553667316415
Ni 6.475030434212601 1.2895561177845851 1.7268965907374554 -0.45553571682146066 -0.2385335815676666 -0.9974340174995661
Ni 2.0107928870516476 7.9941069360593335 3.967314096232141 -0.47464826928119547 -0.19577150800979187 0.8517326866732878
Ni 1.5506260153480993 3.631879482552797 6.299700760243596 -0.06644193367331783 -1.1223358950819895 -0.016599299119577866
Ni 3.5598088534806505 5.336307049559767 12.1946603501575 0.47776624608488677 0.990313604404701 -0.5979789457217571
Ni 8.299104179854838 8.173995002864023 7.375626653066986 -0.8802842730587356 1.3782017972805167 -1.5903928842989126
P 1.919848389725587 4.820030438357771 2.0963311565331826 0.49430383872859385 1.026985763014754 -0.7695028940380941
Ni 9.14902387631464 4.021864973337821 1.7602692752402718 0.6351900075544158 0.6225669194737665 -2.0381782677509928
P 6.107799681041394 9.241643569047852 6.972057188858188 0.6108339473075545 1.9917042925591697 1.6030987619013553
Ni 2.8623226324305455 1.4018965831164394 3.5350168921189136 0.4166716927664114 -0.2582212898045811 1.1054473468567672
P 1.4278434986449964 1.480044448860088 5.455934614912733 1.2033279586553405 0.233151748430463 0.2443396467264824
P 1.2636650421029334 7.854935424289593 9.332313520459964 -0.8592981577253718 -0.6172691614099369 -0.2737715788343543
P 6.305081860157014 8.957334988530677 11.024503785017686 0.8030730166840556 -0.8641493151700859 -0.04345884251458322
Ni 8.524864680892044 0.3959156825263425 11.650779310637983 -0.8766111950825226 0.20247900193695453 0.40136334454411526
Ni 0.6247455138150979 6.4598885290601755 1.0078310608508851 0.6109432191919091 0.1489398923682338 0.26706562756908847
Ni 5.88857244209208 7.504410091984154 5.931315052905568 -0.4870672117708385 -1.0757439062550633 -0.782759244827368
Ni 7.020743951374721 6.904513310041812 11.53574829534942 0.5606586120047441 -0.09301299929362691 -0.10640510432981674
Ni 3.922563112258301 0.35207954137763064 11.724960685923142 -0.14273967709479288 0.2679338891066547 0.5480409232407336
Ni 6.807324056503535 1.8973821579874461 11.205815767918455 -1.4600145569829501 0.23465867199329263 -1.1193469876569948
Ni 7.488709788362677 4.517676280649107 3.5029806412853586 -0.4652966528629664 0.19294997940059672 1.2593173295367666
Ni 6.823675825005569 4.329924102071954 12.245100483866853 1.602972520736136 -1.38525793279635 -0.16060421608003952
Ni 2.0413931231556273 1.1172994967235883 7.740661038926593 -0.052434563650632274 1.6362366821059044 -0.2790107157461066
Ni 5.869949853149239 8.346977541934788 1.6383867107364558 0.01611541750462386 -0.5530026381213831 2.362309272874506
Ni 0.6492619985987699 3.3562074650236067 8.606806864232892 -0.2838351337179434 -0.5455754924193765 0.6102287096233878
Ni 3.557249527164168 8.665711388068939 2.436997963867532 -0.2483521103199852 -0.31335242645077005 -1.8759180041247694
Ni 2.9211126845804354 6.379628055775285 0.7551110817279095 1.4907569803721292 -0.7808859390640551 0.40460344874796766
Ni 9.042174329261783 5.885380264177341 7.8057842603796335 -0.8345363773996596 -0.1506303926967793 -0.36234119764464695
Ni 9.159866113255374 0.03421679685519804 5.124013258267833 0.21882221918166833 0.1199321922819741 0.7441950114009248
Ni 8.895101479154974 1.7451068954773146 0.9778664683375082 1.0632917965346396 -1.0457085362352379 -0.26497763469180813
Ni 4.515163487538379 7.263191259995392 10.938989712803144 1.6491670170143273 0.33972140336260204 1.0879540751680101
Ni 4.7905190792684404 3.480944376368387 11.344370249379896 0.4630032288430994 -1.1067799496252617 -0.48853608300688117
Ni 5.545669248889184 5.713933320896468 1.883650208969374 0.3068598767478909 -0.045679761425301973 -0.5540184809804072
Ni 5.379043145724449 5.186544580160363 4.881528723082558 -0.030514880759405512 0.7252220698428478 -0.5341248273802738
Ni 6.366561531599499 6.636137699174885 9.100671222215423 1.2777056022359672 -1.4843353931165018 -0.32387543746928094
Ni 6.524578991699702 5.254827406284115 6.9293415673040375 0.6079319431694111 0.6697646602054916 0.49382509931996244
Ni 8.437587000179416 7.885126168182935 9.512344909538376 0.04878976780919339 0.03819656567437938 2.1528240148230475
Ni 7.84323697636298 6.236035889458892 2.0400073642882663 0.08814050169267401 1.009636473103029 -1.340134043874518
Ni 1.945171760297037 5.2142690641487315 8.14626028157039 -0.43934753709737234 -0.3131014867822285 -1.0150756418407294
P 4.356075763705829 8.747498150502567 13.638099918043084 -1.7703459372192092 3.143887610019895 1.7333410778600857
Ni 1.0208175479127748 7.274126563347636 6.20298986806047 -1.6017910988335253 -0.639293488199828 -0.8808141774202766
P 5.8010155621449275 5.201072246996833 10.639921730084843 -0.846692038925587 0.830656325618963 -1.4644615370107101
Ni 0.30850398618114255 6.088069601801601 3.4794971936694306 0.6740612306983165 0.8348798767820073 0.7379688279855549
P 1.4257215844626034 4.368481516359905 11.506639913821921 -1.0670787743808976 0.5926410784486116 -1.198926230043219
P 3.670408976917297 7.383358610535108 5.655186079295872 -1.2719676713109256 -0.3514872856492785 -1.0308545019415407
P 6.588227110530333 6.938491856883549 3.6381847319324945 -0.8986314081073555 -0.36465416204853973 0.33203097669687975
Ni 4.718448450196294 7.963385713620394 8.491135552033152 1.0986012704692112 1.6274445377355713 -1.8825627631347965
Ni 5.227410041453725 4.200934055721236 8.591891110460434 -0.6904530417927787 0.04279292679581018 0.7751780900460005
Ni 6.494351021241756 0.0837178904724294 13.208188006056819 0.36609680803233724 -0.7648404555654182 -0.8310111378552204
Ni 7.907164294428137 2.348744947162295 2.9655007095493926 -1.1510440616499595 0.1510764790952624 1.6761157776890294
Ni 1.2425948065374195 8.92389622687569 11.240971604865774 0.7353920683973142 -0.9705181669453284 -0.6156483379770623
Ni 2.2758367203865726 8.467982490178079 13.437732587385959 -1.279090655508952 0.9979711209499588 0.8286945739069017
Ni 3.9664439252845365 1.1438327306446485 5.867077823690089 -0.9366063446892321 -1.4589871441597004 -0.6710944347605088
Ni 8.990103672022803 1.511379909614984 7.199054542504342 1.1282594596552762 0.14245351331294176 -1.8208640005734187
Ni 3.095016581125132 6.645165141091205 9.376854174343794 -1.4583132580211273 -0.7525426120346717 1.0887616586709703
Ni 9.1590471288341 5.646776598351968 10.13868930430319 0.6321663902367435 -0.8327463753787724 0.8794198681759112
Ni 8.778768464769408 3.0694977710895137 10.984266522002008 1.954008320670293 0.24277538756315606 0.503161803339856
Ni 1.714813778531313 6.725602440557961 11.966669047236437 -0.622653822760618 -0.6184562397395026 -0.22423721954965253
Ni 4.951747330565686 4.153935517909467 0.05574584982944861 -0.9886501006593489 2.3901070118130643 0.2077209670621842
Ni 8.403087281433233 8.616637469280532 1.9470023766114084 1.9229859041468496 0.06580995651627376 -1.549698234793028
Ni 0.8662798409388723 3.8846385495686064 3.679007382676563 1.1001033089360346 -0.692307321392698 1.9214005619376004
Ni 2.434487032085033 3.561102476600618 13.107499455445822 0.7726517240797209 -0.7683674948820702 1.390722812565663
Ni 0.5677255848120986 1.3867732912463158 3.1782644862194434 -0.07207727758222425 -0.6352370587422672 1.1719741269344073
Ni 3.055333063257927 9.010727188813076 9.655925907885388 -0.6086564800402614 0.8008451557948014 0.04361310870426037
Ni 7.324224212662637 1.5610587600781967 8.614625373463719 -1.2465065509253435 -0.6485538304558314 1.0824845674130066
Ni 6.638194466869222 1.7215052535187707 5.226377004285982 -1.5609673799489439 -3.321970956721305 -3.4637467272409315
Ni 3.889617602584308 6.233941895199952 3.2312509169476664 -1.9385721886208807 0.5616006642030393 0.9283898703167107
Ni 9.117790788612403 5.213394239880552 12.792304924941336 -0.15435129319179225 0.08535368297615623 -0.22969258623726893
Ni 3.2639600379364273 3.736374449394489 4.120620534581787 -0.4280755637279789 0.3347936270436815 0.5412946056558355
Ni 4.049515004196982 6.072062179022148 7.362604800768723 0.5552672657858437 -0.9656145589961241 -1.5588050821903026
Ni 8.16900664320717 7.204382594563201 5.230626416635457 -0.3893827751434713 -0.060579047134637604 -0.8112388403242995
P 3.547068061745143 2.4143660739169057 8.726577751859582 0.29765044233448096 0.2558088237083465 0.3098464701800406
Ni 8.897558432418798 2.6352964281968236 5.067921201387573 -0.6479725040310648 -0.3044972900529853 0.9163756194646541
P 5.607139613690517 3.3244811253403745 3.6525821057928525 -0.04913506696375409 -0.6278834465906735 -0.0596562782100521
Ni 7.0461138551519245 2.9938626984565935 6.658592762943644 2.9829895168485208 4.591103729686596 3.013998306525209
P 1.3836648731019334 9.283923639796143 1.849092789048055 0.37186584930563055 -0.6512573454299235 -0.5839096121128847
P 7.062903035788049 5.810387349783829 13.706887164117212 1.1208855357887082 0.016782361664661422 0.39340758003214826
P 7.44304210023548 1.9817561666610102 13.20959051687825 -0.5959647435052059 1.7578143804111017 -0.39529862640727403
Ni 2.121169651100674 5.557274630404288 5.192595758236643 0.8910767356885492 0.9102785054279806 -0.2602329209179712
