# total energy = -340865.3987929052 ev
CRYSTAL
PRIMVEC
9.28106855491643 0.00000000000000 0.00000000000000

0.00000000000000 9.28106855491643 0.00000000000000

0.00000000000000 0.00000000000000 13.58378197490784

PRIMCOORD
 96 1
Ni 6.936160259390475 4.49789358685569 12.84089865242133 0.06472340832031433 0.34454273601064533 -0.4862817397550657
Ni 0.4673259379228935 7.828451481648013 10.299658523078863 0.3903567090209664 -0.8618767170858255 -1.0475679580414798
Ni 7.860601103494053 8.322659106844252 9.073708241879046 -1.03118463158745 -0.1848160374395527 0.5593170103751852
Ni 4.5752605752242195 1.1063590709523727 0.10355445170593926 -1.720902594986417 -0.518505375675462 -0.3558422201838646
Ni 2.566094831219978 8.127877318829576 11.173408026362955 1.2915468789944338 -0.15961588402484125 2.0704034463332857
Ni 0.19523748848599237 3.4613652765180984 7.6426704740219895 -1.041210134144252 -0.039173584875668015 -0.7932529452698402
Ni 5.737640176621944 7.722350304701152 5.590392309867855 0.8999293009831727 -0.17007898833969418 -1.615344412037928
Ni 7.410320776276251 2.4725230969671568 11.578149862082553 1.858682099862457 -0.6955541104647698 1.0478708339938791
Ni 5.80159602077352 6.077550035308249 8.659403193009863 2.212019808456913 -1.396851294060904 1.720095011483457
Ni 2.2136462487709707 4.803853296375478 7.704965934989889 0.8625279775165791 0.7877672395649208 -0.5464337266546138
Ni 1.4500741677902012 5.461101454761493 4.4767531686568125 -0.04288342962708744 -0.18548760958528054 -0.3346185349183979
Ni 8.772252634981049 7.514686393383272 4.784941262762409 -0.6563571285503341 -0.754128468464553 3.001331252580502
Ni 4.7380969249034255 5.402389414404089 1.3367448945691784 0.34603731827830086 0.8750685331857511 0.2239744528065691
Ni 4.279213047035716 4.007676821184218 8.743677152676842 -0.38895237247427206 0.2092849691151944 -0.9181221698421156
Ni 7.362189154193813 0.43592437021103125 7.258004517925707 0.242313360325073 0.7368174879899311 -0.8655348826637028
Ni 0.7221126191596251 7.4472594295520125 0.19162529656264404 -0.07266631731647485 0.7509289876906486 -0.5145862431267137
Ni 0.8912498863536333 1.1499800936649556 6.140453406273526 -1.1960080279551595 -0.3600521445001541 -0.09932660021648054
Ni 8.796021451825075 1.8569098126000032 3.066130967536111 -0.7112846338261491 -1.3180549525872913 -0.3818908376418004
Ni 5.7079314758340765 7.854624095275563 1.3912646762118435 -2.791105002597961 -0.6056788854691763 0.487449791921238
Ni 1.575925458850334 0.39807802842010137 3.725569458126417 -0.8363595466513274 1.1038769170458536 -0.9648622542111319
Ni 2.6784421673765344 6.58326618564568 1.2646708996587308 -0.34332017645745394 -0.087432676992372 1.2717033619059452
Ni 4.975423131665862 0.4756278538412776 6.202463938433494 1.4130014214582052 3.305554977257126 -2.0823374787667106
Ni 7.619061291558953 8.40508427763371 2.968545171086866 0.24818447439386931 0.1609644276329357 -0.5517039739146176
Ni 4.790952610934949 3.105427012252085 1.4198178839512607 0.2922776080583418 0.32849879517390523 0.5462151828859044
P 7.793016361495536 6.157645657863481 9.678607460582496 -0.19776077052567875 0.6250477769140913 0.8879888407918449
P 0.4534525964865597 3.140592981413356 12.339820252094427 -0.651060141817453 0.24632582391857577 -0.10941818012452768
P 5.423262537825493 5.564520402864963 11.121124054161026 -0.23403929324173886 -0.724672625097281 0.36898801353720323
P 2.09212921677611 5.985491115247374 10.643422809580601 -3.0091628328097793 0.25952946709304336 1.0107235355196207
P 8.322835447148837 6.114219537592805 13.413577713156908 0.6132171028277503 0.14982846562077423 0.10726410989600237
P 4.073730186853464 6.221072481101309 7.523499696184945 -1.4649217644765802 -0.7586808637219257 -0.07029576020176925
P 6.697636794770608 2.250380718536163 5.720062760682505 0.6187686287735988 -0.39067346893043686 1.7827610230541102
P 3.6280161454174897 2.563032078561435 10.302307340075071 -0.4846251779882493 0.6534337842559521 -0.767177074118395
Ni 5.741835219657282 3.0277073432743893 10.27777469128014 -0.5168529276737034 0.8798584983752267 -0.4127641301818892
Ni 5.2405090147970945 1.5796378863152345 8.264956846757302 0.7734490231700357 0.14817138963332546 0.7794795456348317
Ni 8.734293064152439 3.1116174850498064 5.216049686444597 -0.3644353611695143 0.8215301949479786 0.1801803384397542
Ni 6.945311393091456 3.9006475373711322 7.721741466596908 -0.22051606194432344 -0.843240847152193 -0.023977336751203865
Ni 7.502017734659297 2.04596518125007 9.077906069234983 1.3382054593932373 -1.4233200297753938 0.2199869289137308
Ni 1.9897311862254867 1.7102689277364267 11.601867633048936 -0.2332255390911919 -0.5563643555047644 0.828918774102566
Ni 6.3554252310560635 0.04065664938185967 12.73203821376118 -0.1956568368087985 0.08391283676457162 -0.8636338089862481
Ni 7.728123129409073 8.42161386092118 0.6891694659429628 2.445895322427278 -0.9268700912380746 -0.9544102056398724
Ni 5.855667526799798 6.2116243532031366 3.6783251062080913 0.11844635176506699 0.9302132966786948 -0.6781837375071224
Ni 6.212069844498925 0.8205661955287908 1.858438404608676 0.5159959789900469 0.3843781228400283 -0.12113855388524944
Ni 4.685993005433544 3.4158601968670785 12.491536953409389 -0.017337205726866915 0.0036216559129873113 0.28746784537452424
Ni 3.7569765944794766 6.286485453032858 5.413652919332597 -0.002682946148801831 -0.9686600306906673 0.5582664576234837
Ni 9.244770402713606 5.443207554380672 11.492286983460598 0.6875206986373321 -0.23558246935914265 0.732524517041532
Ni 6.442184660910792 4.089489441441967 4.493189013150794 0.1675125131640986 -0.4488109965031174 0.39293655393300064
Ni 3.842260334416907 6.493351192445786 9.84234685824254 1.9652959777689702 -1.1989478273097738 0.20348327483175277
Ni 8.699182781403142 4.058063742951583 2.25162066930944 -0.6156267407105075 1.644133311245162 0.27909093416473874
Ni 1.4082072670547838 2.929727101406998 9.458129177762643 0.7770863628123068 -0.15006526422192865 0.7128152115380627
Ni 0.026242221642516602 6.9473253849911645 2.8127939892244234 1.6771123372743437 -1.6261705561191542 -3.0767807890690686
Ni 1.6352314876021221 4.918066127333148 13.265663465672871 -1.2626775042582512 0.08656107302069609 1.2422678302536476
Ni 5.623315972840327 2.0195512598373013 3.889403522686815 -0.29402801509054527 -1.330847219255953 -0.005356122105590776
Ni 6.023051600123507 5.571277020851083 6.38890111761394 0.2972097552526365 0.183818963633606 -0.7926777894926607
Ni 8.471638821010716 1.5826820768364531 0.3251919400017065 0.5152881542897447 -0.0266602829000057 -0.08760211269070074
Ni 7.831514234306557 7.384946334553654 11.667002172920618 1.03282833783846 1.2398414802003421 -1.0540941891957716
Ni 2.3690020571084016 7.549314060562132 8.571080831192411 -2.029364783224421 -2.29918251961735 0.8258871863650938
P 7.604610667651827 7.4047521350789 6.784283923694523 -0.8790933380744279 0.030275253944773668 0.3888932371015625
P 0.5006941640842869 9.149704416406161 11.921372134174415 0.9038633459302563 0.7753961195940775 0.9539942011483763
P 3.0104259934252764 1.1966824311734061 5.6889832460532235 0.41647500337457305 1.5595303903921014 -2.8798494564232207
P 6.74855273745172 2.9682713795613296 2.232264072507448 1.9680681411974685 0.6607354601236879 1.8057875658562705
P 0.34777185195009863 1.2850846101813533 8.16754739061264 -0.7077246843890327 -0.08803174402895161 1.5920612731402708
P 8.028245046740306 5.401581961430472 4.2571027571616336 1.3377244059917606 1.1414373917981309 -0.503979414145145
P 1.077420698863472 3.446617658413781 3.5964558714315027 0.8403720102448302 -0.5700220554975151 0.671900989822204
P 5.760443762325097 8.727944813187458 3.700004754496245 -1.9983338820605456 1.0514302692103634 -0.4084675596890643
Ni 7.179871841392542 5.862702576845785 1.5592956400213112 -0.22113132693081916 0.0005018793370830066 0.5185290298245456
Ni 8.063661604755458 0.4808614484599214 4.853635092466064 -0.37097367650866436 0.9752605667263204 0.7703066208863121
Ni 3.550881183765516 8.493718483358213 4.37688515742352 0.5136387916117799 0.15788244627350229 1.3186573620579805
Ni 4.319195890832696 3.7761884066103377 5.779830986653674 0.0038376285785353265 -0.8206372508200641 1.351399589486008
Ni 2.6094559840100175 4.065915527039848 11.476095231072433 -0.03895426977601033 -0.32866103178338235 -1.0440303772018666
Ni 5.488137207774632 8.219527871869312 7.733912660040586 0.412529902683896 -0.36621302189522736 2.349883131296011
Ni 2.1419407122864143 0.40123359176526696 9.459379337711448 -2.5242808016157174 2.0377481221921103 -0.004000636518960852
Ni 6.12639629967768 6.724375553586555 12.866055917137231 -1.2990185047811305 0.30353492613971594 1.2922022531902455
Ni 3.833192730333887 5.983161567013149 12.712395760044394 -0.5149675377255325 0.5059226539144447 -0.8431290041646771
Ni 8.511074081756623 4.121973181759848 9.738946472276393 -1.835924751561283 -2.5538171205119373 0.5162885705298011
Ni 1.8145231720194996 0.5579035994252725 0.43976858885093584 0.3238677241597971 -0.7037937247657428 -1.3698925060838731
Ni 4.254646058286736 0.6970769364432012 11.014355568377349 0.7417694326785677 -0.3907518875768561 0.5134156198573803
Ni 2.1423769225135403 4.551983655019292 1.9606285392212643 0.8766219937158 -0.3333936613723613 1.694729536135475
Ni 3.1314418477123764 8.687739223742584 6.938120421091943 -0.6016270839973058 -0.22096806188007748 -1.6554513073611425
Ni 3.346363554724138 8.94566940293522 2.1658255424887187 0.4919618208589785 0.15598702902300232 -0.8356915740500253
Ni 0.3314418116388668 8.066872854512598 7.306689291700415 0.3188072789177541 0.7314323124186178 0.25601682595409453
Ni 0.4626557041720485 5.741631036146712 9.005422779196529 2.0886911888988804 1.2397157532557552 -1.1746352187063382
Ni 1.1513444107583066 2.5606654060525607 1.522782987797147 -0.1386675639079483 -0.9533889634642096 -0.499086861939534
Ni 3.4428866688115556 2.211836440381832 3.1970794215055522 -2.0609932087629796 -0.46489941742454777 0.5884738344447994
Ni 4.200286839131928 4.4666906340132 3.605448298858359 -0.3237620518198682 0.25826859810274877 -0.8795252834055239
Ni 3.037554557125038 1.9334322237202684 7.604989335253248 -0.8177653285889078 0.9255426306759028 1.2908441965004545
Ni 9.016493237896864 5.694121245664645 6.603796837633447 -0.2690824008888011 -0.7887146910798546 -0.6291674555094197
Ni 1.8046852392375132 3.269145063454204 5.938177155314082 0.8358759221466896 0.8281698117516834 -1.9377856881638433
Ni 5.619436486139507 7.865594318434344 10.537781973639387 0.38748864344455203 1.0157739534593346 0.06656817483853697
P 2.9737100857974093 2.7628349247223887 0.40541656941134374 -0.7820223666613435 0.15074249279461135 -0.6820149383277545
P 7.629994390443086 0.32795862656992375 11.049306216745657 0.08108102374273134 0.06000826223283213 -1.0413137496016518
P 3.3177593011070785 6.506298283229627 3.345766782009155 -0.5794343499503505 -0.5556069085134496 -1.2043898242609516
P 0.2945820474467343 9.185714962815698 1.8681909515589703 -0.43286989979282875 0.11549395400496239 0.17780463911872602
P 3.9960940474937288 8.993995927459565 9.04639127248544 2.0102200919751705 -0.27741277513136736 0.7140390566428347
P 6.526373234746078 2.5439966067351567 0.06325883589504117 -1.34805227028033 -1.2514968050510833 -1.428726802613262
P 1.297873922797936 8.450691449040015 5.3781723219436754 0.9469316378746402 -1.5293649225523145 0.5122570807729049
P 3.320218784302575 8.103143270844678 0.12371664526781478 1.2056278104331108 1.8189287312239188 -2.077091914097055
