# total energy = -381163.1505200692 ev
CRYSTAL
PRIMVEC
9.29472493407327 0.00000000000000 0.00000000000000
0.00000000000000 9.29472493407327 0.00000000000000
0.00000000000000 0.00000000000000 13.60376946621909
PRIMCOORD
 96 1
Ni 9.02457395231809 6.592990203568705 6.530448786529497 2.202830942868793 -0.42475138445075233 2.6586201704619565
Ni 9.114314523529993 3.6168006247810864 10.460088481603586 1.2504691351175174 -2.248736447151656 0.214824667986501
Ni 9.13507893948933 3.1062320781999198 2.161503202510874 1.4600587799573241 -0.8312332811683555 -0.46060361826267127
Ni 2.344315574424311 6.168983432202087 5.604032378308261 0.40033978837560724 0.3200169829551392 -0.6817704264171162
Ni 0.6582914721518607 3.0187129462961084 8.264766421676399 2.2488912275619657 0.05510079762888574 -1.4558923072844605
Ni 7.368755847800631 5.674113676379792 12.832857998094289 -0.12133472905645554 -0.6499913342333064 0.1014593302887672
Ni 0.1382107038639863 7.075228427927822 13.602504924767562 -1.7597974722794012 -1.9462973251792806 -1.3608141979316886
Ni 4.055771903620637 8.245815406591577 11.623156027630321 -0.4379367727927748 -0.2209480072754195 -0.01666846179461645
Ni 4.3624327701141 4.364551967445671 6.658501285289653 -0.15358767555289032 0.24910210111213232 -0.011707261134599193
Ni 7.462028414565154 2.0428132803826973 12.485526202812432 0.005591378044848435 0.3049194651920684 0.7642123350631161
Ni 2.96435739368635 3.956281165738479 4.64147064296855 0.31886204341508956 -0.3312624739619714 0.07110154393251625
Ni 5.037071804839497 4.224675648836871 9.250685801289078 0.7037626144174911 0.09858535117508184 -1.7837254438499086
Ni 7.844329754235467 2.6058133714699596 4.688307692413804 0.007726936330612499 -0.2094646892261683 0.6251416221794782
Ni 6.749597027426747 8.884530328656798 8.546513706908712 1.218422648204934 -1.2919811383183748 0.5680155665904476
Ni 0.4536067530425814 6.31236386218809 9.47871236363859 -0.041682210230134666 0.04690026409596439 -0.9467922840832984
Ni 1.4499771216009536 1.6597776574264456 9.990336790995487 1.1409380835642093 -0.010875252151607078 0.7363181797560093
Ni 4.854672118722208 1.2985288701947617 12.008537639211523 1.0857462688834139 0.7513087396275705 0.3176037455279563
Ni 8.662748892127821 1.4851669509751921 9.00516470728394 -2.724201298796876 -0.6416751010581271 0.7551090872102674
Ni 1.4969061888250768 7.399400556582158 1.7225774678245023 0.6536327876406356 3.6481627010285878 1.7065051886141644
Ni 0.06826324983444797 8.8314946270167 8.342131066366434 0.08262214297760609 -1.493995284803769 0.34528192816951503
Ni 0.5740161993213744 2.366678683107464 12.870268337304108 0.13225960349907542 0.5460079519711049 0.6989245695988995
Ni 4.1053220833338075 6.01720986541605 10.679557390518113 -1.9312077778360093 -0.7245651529851392 1.5268434416820413
Ni 8.394391587929983 7.269934330128443 11.23664603641731 -0.5887240027823926 0.492660646698216 -0.35897896604063334
Ni 5.845657123535352 3.9624528632304217 4.339521272647777 -1.3862773751997997 1.3637012896714968 1.0126544339937464
P 0.9064225249758792 4.288679126140359 3.925313000522132 1.2369327911939794 0.024451448174144984 -2.448682655364428
Ni 8.343818988451579 8.530550016483396 6.197864002152335 -1.37224172304234 3.061121228154941 -0.7263284155331491
P 4.317901741975701 3.1615078085983868 2.8347266505976827 0.22267090350379715 0.15289553458187216 0.40641376248382916
Ni 5.880168437974482 6.594272875637814 3.244716976455491 0.6008691227853586 -0.1548518869772946 -0.10364502508617635
P 2.342372976870371 7.564428401415652 3.7765156047254314 1.2398075416386132 0.906456560578729 0.7122004607721992
P 0.6724705753505931 4.975633671674226 11.752786770718988 -0.42901735881595787 1.524025255506956 0.9193606702349071
P 7.784099935338196 6.9701143813368915 8.66422768289735 0.1866510337657624 -0.24338319635048405 -0.00034607048550908137
Ni 6.308943403337134 5.35246971296312 7.6907688118053015 0.43588966045575894 0.20328350011612087 0.08301269354780541
Ni 5.211180596133274 2.036762414317555 0.4707425083078604 -0.02974920623797457 0.5754483687194089 2.225750270669128
Ni 4.708308081966758 6.329912303249517 5.207863308731355 -0.6175375845799752 -0.843137231694793 -0.12386289479494796
Ni 2.625499599313234 2.2820223265463007 1.7314195398487264 -0.3865972419785342 -0.290552397837119 -0.1307717060996393
Ni 7.543784816883115 8.876899359318115 13.03588082034881 -0.3077991007327086 -0.5325551689003086 -0.031169483624268895
Ni 1.5760600681042671 7.144074457028452 11.266709824877683 0.4773782666178488 -0.5785072101503907 2.1146608734897647
Ni 3.834687571477045 8.693226295856855 5.759455054183662 0.29637568938711534 0.1453370055083239 -0.2472915302659547
Ni 6.534777340026483 2.029112855528596 10.46823716713248 0.0747990473887615 -0.05318738265625679 -1.6302041027585796
Ni 6.888320800118376 3.2479952260118283 6.9201422211024335 -0.04308603255619676 0.07426168682805276 -0.24300627262703955
Ni 6.75279441287438 2.7865493017874634 2.6928659081718207 -1.0377160049480643 -1.3858168906236132 -1.9240454557596154
Ni 2.601100945824757 1.2709978943346205 12.129039103269188 -1.2435952908158194 -1.4275168414655608 0.08763373725958457
Ni 1.4142760823440992 8.885236727767321 5.465953659541241 0.2580618814085814 0.5600302343921258 -0.8493790988394467
Ni 1.8394539890781636 7.799101621711682 7.356306492950167 1.6856383724674842 -1.0156921923788056 1.507473521795862
Ni 3.2362652828870826 1.578718359493869 4.336514429065483 0.34654202582886123 -0.23711998904959164 -0.29881129541180146
Ni 2.1228966321757343 2.582483611372406 6.304843500078555 -0.3065636856637107 2.2747539542613406 -2.086237070931433
Ni 2.2081850300463137 4.5119477186914905 10.164791346064415 -1.604203822040076 2.188376972226992 -0.32254900534837355
Ni 5.421929193922889 3.93722697920462 11.308705251998308 -1.1706705776316353 -0.25551134707258577 2.1718527493197244
Ni 3.239100174054315 3.3895074162449985 12.96499088119023 0.8924836433384049 -0.5797307981448467 0.13593602390939816
Ni 8.689573468877438 4.719545404659166 8.049472703294072 -1.2489102752708299 1.719277657788484 0.025202981628188854
Ni 4.982232926522538 4.95050073489981 1.2478763360801683 0.05150948073320161 -2.32517971501206 1.265519858803053
Ni 2.271928255045925 4.64903561975875 0.9548350303321018 1.252595694542217 -0.12805713538195362 0.23141959623070466
Ni 3.825522972490516 5.7356261673461715 13.073521668742064 -0.23588663086312278 1.2557825769106306 -0.8517473419613074
Ni 0.6924375038930493 9.1949462641062 13.507318574097027 0.6441037651042778 1.6317709330250671 0.6234868601848745
Ni 2.125666460266998 1.1761359295714198 7.720656000488043 -0.4705334757818735 -4.434171820251821 2.5303930851610423
Ni 6.357406100209104 1.145974546497092 7.132578740977196 0.982957678260262 -1.3557540097999619 -0.13330475693413818
P 7.79359914442971 5.6899611827408805 1.7033420341504433 -1.0461019150189146 2.436367585442501 -4.004043487759872
Ni 8.962141283563001 1.4865053913951314 6.438867859740176 0.7454797916506194 0.22046026900572355 0.4576972432491536
P 3.2876093445519774 2.9932268099664303 10.889858912028568 1.4768691666464435 -2.0105808177486986 -0.21768579158437992
Ni 7.767053409434246 8.17397647599636 2.293037505307899 0.4556151639091444 -0.6060036157984466 -0.03468341031479833
P 6.140253436799084 0.29918883695464904 1.804757709608778 0.10312437669601596 0.30648629545855605 0.5336545726120745
P 6.146601734068658 7.3993354935061895 12.137609769319367 -0.4110435479463566 -0.20757852794704898 0.35229589759350294
P 7.413091686711121 3.2978893105551226 9.043364168658014 -1.024682568802874 0.5144872556550042 -0.5328624157280824
Ni 0.6594746906619876 5.599170307588329 2.0645759498219056 -1.7422818319931415 -2.149258923179608 2.508672919875131
Ni 3.2359120833318205 3.193407305273608 8.510886095980453 -1.9568601882967913 0.18364952793527728 1.4313053619737155
Ni 0.8671885606938935 2.078997645346752 4.287160368052733 1.3320903476344348 1.5989991379106847 0.017412281939176464
Ni 9.115671553400212 0.2362719130198477 3.9168789669314865 -1.8553237249131853 -1.5816105101205922 -0.2741176493198634
Ni 4.361475413424838 8.946739924008561 3.130295192110899 -1.3148516151586451 -0.25311250782310607 0.05442074084272563
Ni 8.05902861020893 1.23612408561509 1.0464670781096852 -1.023504489334373 0.09638911485471142 0.06369753815896127
Ni 6.311443684399382 0.04415645071531827 4.115207952991081 2.210614443468954 -1.3522925336139227 -0.1412880322499309
Ni 7.424654324783376 5.02492359908352 10.548131836005208 -1.3742422984121365 1.448519411859157 -1.2350435445910666
Ni 6.155831396131156 6.855631251806385 0.8553638113727349 0.15201878840387367 1.5679106440359964 -0.32526409028669145
Ni 2.993607893697107 -0.16719072737321455 0.9658037354680075 -3.0201812954074696 2.961590482347454 0.00927062666864855
Ni 6.183920055499605 9.094814190189489 10.745917080644203 0.17825998148858976 -0.894029647669286 0.4720398851240709
Ni 7.558665671829802 5.1862056696862116 5.838941684622809 -2.057941052200217 -0.05272098454279953 -2.6419745914854755
Ni 2.475259662175043 8.527780188392132 9.700249348896426 -0.6497473365433003 -0.11150231634706605 -0.9864227539907271
Ni 6.018381000783497 7.415461841621431 6.563098367523393 0.887191027480898 1.3705026288640463 0.48840110009091375
Ni 4.890679883908632 8.90877097181792 0.16084521852118272 2.8107410316613333 -0.40101753116892225 -0.7539649463034951
Ni 4.373149588198753 8.873562552993405 8.248509947409218 0.09360718123420007 -0.6482149590591739 -1.1587424587354818
Ni 3.763499271641521 7.216182934652684 1.654490817767685 1.9825110560956758 -1.7862638940010465 -0.8403072184451658
Ni 9.140042322713272 0.6634862940317502 11.43429464859677 -0.3567572757989662 -0.6434998129716917 -0.8804454812269481
Ni 5.482791054129575 1.7058144310372756 5.2140935629916685 -0.6495131090453071 1.6320648101164021 -1.1125453913541292
Ni 5.43071270917874 6.718199445909003 9.225682061194085 1.328664095561705 2.3174635773147245 -1.1653738480090703
Ni 3.964953144292669 1.0352371911973886 9.972107046581412 -0.20841799312920878 0.8882302673786896 -0.8430919802791544
Ni 4.283845869068356 1.9790700553830862 7.171132331379046 0.5919623072140322 -1.6544334076195895 -1.3898504372630387
Ni 1.8902868408604432 4.995171183915285 7.5855711126881245 0.627036782319662 0.522748467222532 0.766509615737725
Ni 3.382815214145302 5.658340527819814 3.2335884020472037 -0.10943489229507604 -0.2617550139894524 -0.18867757727748796
Ni 0.38581474577265373 4.45486881161616 5.84339014007408 0.3406603702371036 -1.7390227016258955 1.0957249773626807
P 7.475626597442732 7.257925545249543 4.6897223495798785 -0.7298096892135302 0.10347276117437017 -0.39645742260206557
Ni 9.24450573854451 4.522738894577252 13.829184681444511 -0.1519406268677706 -0.38891020638242696 -1.5731947752530713
P 6.231899426664375 3.725214298796173 13.201370613021686 0.4234740604002255 0.47232784867813493 1.15264457336786
Ni 0.3624877740926415 6.671372620661403 4.30294002292031 -0.5723455614243691 0.3935579895670835 -0.6762662087694353
P 0.568110330968392 1.0336106142981567 2.0599648366807117 1.7474230098744488 -0.23775145198600342 -0.07322116137868034
P 2.34687162383739 7.393191680189662 13.347094243215095 0.7603896188829162 0.42138503908168073 -0.659562008640877
P 3.280721953224373 6.367788308188772 8.603704150685704 -0.31161076116931496 0.797979404211232 0.16866950958667726
Ni 8.14978230646093 4.737400571650162 3.327645443613413 -1.829704224572868 -0.5822705338475649 4.618072030745324
