# total energy = -340891.46018831385 ev
CRYSTAL
PRIMVEC
9.05254368602020 0.00000000000000 0.00000000000000

0.00000000000000 9.05254368602020 0.00000000000000

0.00000000000000 0.00000000000000 13.24931272962595

PRIMCOORD
 96 1
Ni 6.569322176415101 1.998765391275243 11.376640994365745 -0.33202506315960884 0.7428541811023142 0.4631772925271184
Ni 4.809308567008611 0.24921833264590706 6.109165096503214 -0.4337620725897949 0.3793819551770176 -0.958978541736845
Ni 2.8593816478339944 1.613815032126579 4.892216286514373 -0.35911034941217507 -0.10601841041435935 0.9109117681366055
Ni 3.488723523442457 4.291258661002576 5.11302864295925 -0.8356360382217415 0.14424865754015156 -1.4742011328959772
Ni 4.999258086950677 4.721752366423392 2.564378266004892 0.029696241512852082 -0.3542625344015705 0.1287338497340041
Ni 7.144203950418861 6.147030075391536 2.6088959591002117 0.25402036434935604 -0.19925252457985684 0.5573907398867497
Ni 5.1306557556329 4.627886543029249 11.609643505867288 0.7821136408235692 0.6888088213211363 -0.18232823802069245
Ni 5.666285701086463 7.822791662584767 12.536923597902634 -1.519112391586371 0.2560358521174881 -0.5817539992224625
Ni 1.718181805963117 6.62884264982782 0.43092098547329827 1.209131195600679 -0.14751113034150723 -0.8044992076076208
Ni 2.3250462160987615 1.6974967441002937 0.08047258530834468 1.1747198080003445 0.28071715691425203 0.7735881198510614
Ni 0.5535485500274238 8.82553285185526 4.268941425549439 0.16397493232448535 0.4315167281990439 0.3776104650988916
Ni 8.755773951761203 2.729486701370252 1.3394523546972241 0.25228101306074613 -2.6271979473969336 0.6801670864857382
Ni 6.874447207114585 0.9154022497289075 4.8504007776492735 -0.004925462326075388 -1.7531298304512386 -0.13264732585579736
Ni 0.4282278537865631 7.015594465129963 2.383246828671393 0.6954306975130281 1.214426382561347 1.0721065666127925
Ni 7.534160366114633 3.843474597525748 3.814503742611265 0.7947673250318377 -0.3941678552369405 0.17852686199673126
Ni 7.584682611303437 4.008864566993486 12.645593950911858 -0.38283314695041165 0.30367325148979313 -0.2829033659322934
Ni 8.06107271219231 8.684693380318365 6.963878189455512 0.04065428318625257 -0.4542532505646112 -0.8065401492970498
Ni 6.5617633026052715 0.6979891233625817 0.33431857818369387 0.6118289642309721 0.09267309945570493 0.5977519173126157
Ni 1.758547097361948 6.402139803337366 9.292935587572398 0.7507130150251007 -0.05080422713606089 -0.4542509365717661
Ni 9.027811936023655 4.962658653641532 1.359697462946685 0.5066232795258953 0.5830493209951184 0.12258505652378889
Ni 6.6251039493685875 2.022908524749269 7.046779572180835 -0.4098850088618812 -0.7702978791355638 0.7683659522201735
Ni 3.7179158193912363 4.1699998410233565 0.2913135651046881 -2.042127996427361 0.9513680763794391 0.014979504127967752
Ni 5.932828791453626 5.472144853510923 4.85185823715033 0.2045798503300412 1.050429595859991 -0.0027140564970533905
Ni 5.547570645826478 3.00275583154664 9.288775038586774 -0.4560833617948145 -0.45580696820497624 -0.9071949814066504
P 0.10143556025615207 5.8250944714407344 12.517393640588473 -0.06776682313232844 -1.440367215065668 -0.508518439666079
P 3.976718985078875 6.274969672462557 12.657862863096838 -0.8701014189884628 -0.6962814755490977 -0.2759441610056409
P 2.2120342632342163 8.471469771076814 1.5505404689307032 -1.2536860993929182 1.1008836387454846 -0.5324685227237732
P 6.571549102112367 7.622965817700758 5.606101676236307 -0.9432305348739692 0.630559707871256 1.7981413621649225
P 4.589295550153444 1.3345259605327828 12.718756607356205 -0.43662088219482864 0.3471020120973893 -1.6761378891762166
P 3.9859706845203657 6.1729927701060126 8.154885125579892 -0.02015050680594594 0.4520924954678666 0.25462637336447114
P 4.758532850602232 1.1106475076095956 3.8947681194194588 1.0151669160029548 -1.5256543064699466 -0.07482810085448403
P 0.27147763182074125 5.249741965175762 3.742745135661412 0.09333438718878764 1.043259303363797 -1.8041901394621638
Ni 1.77337516359009 1.3064902333602824 2.695374001756389 -0.7504983279111332 -0.49534976349460497 -1.8118216878654925
Ni 1.7486888775069747 6.588685566929139 4.678530997555098 0.6810461466565818 0.06475066201382397 0.6590233625285876
Ni 5.970369689285192 5.60050992012573 9.358082216760936 -0.4696844975180169 0.607617754363102 -0.4337667005754852
Ni 8.703386882614526 2.0582043917965986 10.124554736840562 0.20000200115137168 1.3520961013324002 0.38663400875374054
Ni 2.156822800520273 5.149385468103001 6.93182856450184 0.3833987896458946 0.19035265098706572 1.195967404525211
Ni 0.4760542515255863 -0.07394479620143794 9.166960392437584 0.7051204139969662 -0.9856565652486637 0.5392716616885358
Ni 1.2658081029394825 0.8569481659387007 11.43203712896678 0.2516444079180118 0.5295305231413718 -0.8367552394278492
Ni 3.841845139698479 7.109958178415772 1.6173437135769635 1.7237331224566765 -0.6383781754744102 -0.07757043948631158
Ni 5.868112158080619 8.05955188488686 7.807753577347777 -0.9741115407235419 -1.3886361052399634 0.36854192713872014
Ni 5.38735873123206 2.8589652308336926 4.983119212425932 -0.6895683251949802 0.32994709758465757 -0.1472457924952625
Ni 1.0898266575945 7.466782284957086 7.280192163902238 -0.65520116056902 -0.618079316016058 -1.3358729546053187
Ni 4.8688018827908754 4.57786218773211 6.941738383854678 0.9193077055097846 0.09142200065742319 1.0002838282435353
Ni 8.211335881496906 6.86873505217566 9.308754907312128 0.22877367396742537 1.0509525582429966 -1.480582868052605
Ni 4.915277641041963 0.5771295205510424 10.565849937147467 -0.6250878861234074 -1.5382802227640733 0.09954977197088016
Ni 8.355986473840913 6.879996416270782 4.807804939535781 -0.22556750832530184 0.24246556963222116 0.25321560905987356
Ni 7.027000669920842 5.926482958470765 7.20971901812723 1.0172993889649256 -0.06493758121364944 -1.1365358407314556
Ni 2.369820096174702 5.457271524565358 2.602827133947986 -0.12260074025307272 -1.8523433021286226 -0.1735638615645011
Ni 2.3944701720838784 5.235810100752618 11.285684658447629 0.3935302216529416 -0.4285905556911845 0.9698170271132459
Ni 1.1784057955935048 3.2723858392421286 3.764951024829686 -0.339543483023841 0.6348822465060099 0.12492707439340421
Ni 3.813338680264768 2.7184335457752815 2.947164162006335 -0.5477341906335922 1.0538576477049333 -1.2679732054395518
Ni 1.1333965493869589 3.0727500977713005 8.126161405102545 -0.24108745833777187 0.4671141656876794 0.6728947211940411
Ni 3.554001414511524 2.640979983719126 7.233607775129333 0.16237159239310744 -0.5028383585621662 -0.5782848097269395
Ni 3.7415882206040516 6.896834147152554 6.0793279131772335 0.8247394459138958 -0.23122907748645338 -0.5947241862298854
Ni 0.8700381438177563 7.439072449350039 11.40011876589364 0.10660127950102286 0.5243075841795357 -0.3221432852695226
P 0.1833004267524627 5.387485466840847 7.997933937148707 0.3022835702311181 0.9712776708191724 0.2265722954407324
P 8.642626210744385 1.4526163902923144 7.978059983182123 -0.9142346618622512 1.272334567732041 -0.3217239383439169
P 1.777711331919321 2.9922277234737895 10.281373758136867 0.27912898649152573 0.7276597327500629 1.270137302970406
P 4.07892220102254 6.126625642376743 3.9019359233507425 -1.1257971141577126 0.7020798273984296 -0.13252571267626853
P 7.010497883148007 4.02101308035012 10.478338094025325 0.25180253076243087 0.2756595398856866 0.6912847936654546
P 6.277938906725579 7.851470120344691 10.392084554447571 -1.2439822418415931 1.1631051065795517 -2.6554518000363045
P 2.354349299359137 8.55408328291932 5.593700596916445 -0.17352195258297212 -0.23341142984975283 1.0407486211268013
P 6.994719299853959 4.07379846141013 1.7370907587942177 0.062229695364183144 0.598346356363505 -0.3708916583178193
Ni 5.565078264926128 2.984424430989871 0.6801148762517962 -0.1815345384748035 -0.9101599775722454 -0.5413887080315386
Ni 1.3781592201296353 0.8871755138888772 6.891100266109267 0.26370853817139744 0.774241437164344 -0.104462121670833
Ni 7.017640339957534 0.5163244912178268 9.138965401710767 -0.30491432298574583 0.5061226857403929 1.0089273628511464
Ni 2.8801572351316658 1.3435151362132132 9.175029829699957 -0.7133381739210681 0.18986722671021494 0.9817986249551542
Ni 6.465507607731136 1.7248173203374932 2.615533283983285 -0.1280612491470117 0.7762744084339728 -0.465929658461275
Ni 4.038765118123861 6.805611666455981 10.372158095728775 0.7120551934435866 0.740094616079306 0.04634336315122987
Ni 7.8834618090200586 7.237372727964671 0.39332305661777794 0.5745489968335911 0.2527497251670486 0.1503344587229153
Ni 7.762266356845233 3.795115910229817 8.426271326711436 -0.028062562564171025 -0.18554083142071914 -1.0019995253830614
Ni 3.1984537166015694 8.38519903166644 12.359156990982445 -0.41307369100250796 0.30963229728670544 0.151047682739856
Ni 9.127136443139147 4.819981515777218 10.247296363442596 0.11890632212062101 -0.6482951774778061 0.7060262136406873
Ni 8.625761322232158 2.3096116294571365 5.585512571334422 0.7320840870700037 -0.06861374451365602 0.6559730057380381
Ni 3.9750533170776676 2.752453004191251 11.061903972994076 -1.8953208341314132 -0.40061901017892293 0.8467444894300773
Ni 0.9303479990223522 3.7751641043892645 12.49716211115424 0.5419319821295183 -1.32346301097674 0.10460507500660049
Ni 3.2175636358980335 8.433177512136009 7.921710615752138 0.7763980784960306 -0.8265016800206412 0.17495225727159547
Ni 5.667335796130702 7.917743791197088 3.6496686940591467 -0.750853654368023 0.32421379464530614 0.1212892205305008
Ni 3.199295603145658 8.592167333359976 3.559746158606994 0.29078431134226695 -1.0619111141370292 0.3683033287653528
Ni 3.4194534606965825 4.280920656342907 9.10610647936955 -0.2798982605573825 -0.10558929329674073 0.3875071553873133
Ni 7.3125088388887125 6.513712401787825 11.387956673721778 1.0389817590343655 -4.183971343869188 1.9669000890312964
Ni 0.37819716170898526 0.11208044613995685 0.3458134979007236 0.5097227443868254 -0.33690244585656814 0.7224630190404718
Ni 4.270148129595967 0.5071569804307453 1.3679651509113748 0.10426826049247204 -0.1579642073540312 1.3049991478445977
Ni 5.826126461398004 5.725253969346608 0.5500768996009937 0.09029508614183158 -0.3336062916037997 -0.5506230821456131
Ni 7.915236236651792 8.811537619627721 11.551174938007506 0.2068012834613922 1.103105843207784 -0.2309028044952862
Ni 0.10083175560571431 4.73574759865093 5.817189790469786 -1.1540072580433416 -0.2887883639581607 0.5630924182572173
Ni 7.962083149185758 8.786625019957484 2.375468883309232 -0.570199975836276 0.09811612484814716 0.09147445116191343
P 8.54152740510587 1.5468352628823647 3.476858354696898 0.49965713262070727 0.3938125287800508 -0.16874792823309645
P 2.0295711967541 3.3733216990979185 1.5267974578787062 -0.39050403323210814 0.06367285556861293 0.12703409343407798
P 4.9180839295222585 1.0668784598604706 8.360077318241704 -0.17193866725625226 -0.05404613111212628 -1.3595561571548715
P 8.272033185562654 1.7324576670386846 12.637048349862182 1.3536865857479718 0.11131745402976957 -0.3703936356354783
P 6.075207195382941 7.79307216232409 1.4580207587527545 0.07520116792318662 0.38262951558003777 0.7478166673139122
P 1.6633686551625064 3.1461933830636797 6.0367574221855 1.3675273482858061 -0.44061560517651865 -0.9509253324150655
P 6.93339737028776 3.892593698474404 6.059214972062651 0.5051960601610654 0.8929839800135911 0.7377633968429681
P 2.4817366912775833 8.370135599307693 10.109927637077782 -0.3868180997400887 0.8176493718363338 0.7195345325397673
