# total energy = -340894.4157480104 ev
CRYSTAL
PRIMVEC
9.03030562041502 0.00000000000000 0.00000000000000
0.00000000000000 9.03030562041502 0.00000000000000
0.00000000000000 0.00000000000000 13.21676507276459
PRIMCOORD
 96 1
Ni 6.222368017002676 2.0734755004513947 11.334552101343027 1.1728066501380319 -0.10036841121743359 0.4160893379003802
Ni 4.730904726136944 0.43419694750647414 5.9073918697105166 -1.294186630610126 -0.7631437845892857 -0.04467446008923919
Ni 2.6624771663716267 1.6293018716032774 4.524032170152784 0.6800292753562934 -0.17852171979040868 2.093095488614163
Ni 3.381316562496552 4.274458912329293 4.895423344006899 -1.0002707156174129 0.18791704496237957 -0.4162996541389734
Ni 5.206061332612847 4.4655401733622115 2.8393971025675024 0.1130164389987473 0.23665693337024402 -0.4460668580990769
Ni 7.285876107414199 6.2336558986799515 2.567013293450573 0.3553693943125041 -0.996927767287109 0.30787751937912783
Ni 4.872346398705877 4.437428832833125 11.270874000194645 0.20545968183183322 0.4106221441382219 0.5951268209849429
Ni 5.694853700154899 7.643295592843448 12.421023355208265 -0.679252545091269 1.5222779337985461 0.04439909494066547
Ni 1.9814025071861945 6.487696448556041 0.5967857891248812 0.3996599886997633 0.6415524594373337 -1.3488806797188961
Ni 2.956323302194461 1.645159087783514 0.3762603144944232 -0.6388389171609126 -1.05759757436334 0.1919441638439017
Ni 0.679411276941469 0.006317601617137513 4.648917680908023 -0.31062679998949083 0.009215862171313162 -0.2075114221545394
Ni 8.62429378334676 2.5338765879987633 1.3806894382681558 0.7945703785296832 -0.47237927074136066 -0.12281722713925301
Ni 7.001728519528481 0.5738903529612298 4.750580858446236 -0.8122495409770011 0.29215676620976133 -0.7949115639191858
Ni 0.8928262891457774 7.318692237026375 2.5882254806985094 -0.24653382616432382 0.7990726372754109 0.10124335762321919
Ni 7.378861161518924 3.934359552545655 4.064974792040279 1.4004829772762202 -0.12913262783431956 -1.4601971053074012
Ni 7.68333596672908 3.922195731250223 12.437966917121123 0.3431579398479767 -0.4700719627644227 0.30996962602146616
Ni 8.229488833802375 8.964835628092148 6.740338204134684 -0.5322890597231155 -0.41972744887359975 0.49762030469633656
Ni 6.802149741168909 0.8527371516113003 0.5256504618252256 0.7282356598581909 -0.18903033263121638 -2.080098305023547
Ni 1.97621911191999 6.534581793890773 9.162654399940598 -0.7365881455879444 -0.0065406293319951875 0.5104408534997725
Ni 0.003173249297115669 4.943703871516941 1.2290787388537998 0.2268101224831513 -0.05671982128954748 0.43718061135304065
Ni 6.535087490989914 1.72396656250158 6.849270777473062 -0.1764481250908316 1.0030215388896724 1.5996493699001741
Ni 3.3867166850909602 4.1411445145679995 0.347982816347047 0.7556546753010922 1.2909133591754929 -0.4931787239852152
Ni 6.080068465426271 5.67467096771593 4.896348950304434 -0.906233903044962 0.7056127802523526 0.18048527127468272
Ni 5.289979960154383 2.8899866791534485 9.266088420356342 -0.0941774519153733 -1.293042489703354 -1.054756505370119
P 0.3031807624546737 5.7581200193796915 12.360728006440931 -0.392979234245478 -0.1035259830098088 0.38587604754179344
P 3.9939415071909856 6.0092347503250325 12.578408031858181 0.4281961484662432 1.0204924419809263 0.8873980012853815
P 2.611194062335429 8.599207595107183 1.4048364747521833 -0.7292309338919248 -0.6768243952657504 -0.9048097690039256
P 6.115647868473043 7.75873901633328 5.9008756013758585 0.8658020202821605 -0.3122604789381719 -0.11428219308504835
P 4.918870531826935 0.9008415881671772 12.49801032036942 -0.19302402717164177 0.6103318108601553 1.389001458999182
P 3.8811800843876747 6.030284392076815 8.343228238674204 0.22547494861149558 1.196986846928661 -0.9815055191947676
P 4.812195534824011 1.1868349704647643 3.739816072444683 -0.166215648729546 -0.7208169987966166 0.6672244102821412
P 0.09786141898930707 5.663816540695062 3.737000423239103 -0.3762444379893004 -1.1791027675593886 -0.45773246736246326
Ni 1.519944873913833 1.1270633794072555 2.4773107553376006 -0.5783480588647072 0.37873609406290254 -0.30362131520593516
Ni 1.7805233648574008 6.4034617603275406 4.845384616046803 0.43083949962636126 0.008998346843868375 -0.32885669273395624
Ni 5.801917000287521 5.382143256473002 9.066806739042516 0.4997298948401716 0.18976875345913768 0.8074423493963447
Ni 8.584072803354292 2.2911058591892655 10.316028476991782 0.05069778346518365 0.6577727779509381 -0.38581254129370973
Ni 2.3997494627567053 5.181110598953397 7.029508447851523 -2.080844439160952 -0.4779734769996865 -0.7787974319661425
Ni 0.4521555157397523 -0.31905062106238874 8.966293119374317 0.472357930585122 0.564593428282776 0.5757407031488471
Ni 1.588466830847566 1.144970474900085 11.356372931171 -0.8812875175122693 -0.202959798228115 0.5121483231091825
Ni 4.2611933937821584 6.815550714296171 1.6386807467312923 -0.5603585642658221 0.6341777642398175 0.1695115458719984
Ni 5.434871209363891 7.586287275220537 8.087285003462593 -0.7736228297437386 1.3627700361064787 0.009149527709751984
Ni 5.244449160620925 2.9283112950241343 5.023057679708187 0.29723700894614613 -0.7300768268319878 -0.2950531139209499
Ni 0.7888107170660198 7.233229427271387 6.984742515180517 -0.104678094336381 -0.10533244009092828 0.00596058845880909
Ni 4.894750586258932 4.651591554319737 6.913292933254965 0.5022423768493801 -0.8226241993431059 -0.19313972681389963
Ni 7.930197423858423 6.846931025358996 9.1854270239516 1.3047273822404497 0.5309243181651049 0.7648736227961989
Ni 4.672370286911265 0.28035395661162027 10.448394692692183 -0.47304878600455946 -0.4191767185764523 -1.036787579596524
Ni 8.037775451395529 7.284359016116773 4.918182422559887 0.44389144771431294 -0.3676631240781926 -0.5312832441664205
Ni 7.1250463692763795 6.225086138910564 7.15246327932468 0.3511355587368147 -0.6897465026440572 -1.4487734368514922
Ni 2.2290044493535666 5.124282887437322 2.5849881162334665 0.5405405010986304 0.028878116486930915 0.3104987590520588
Ni 2.326080231778135 5.492746436299618 11.37211365641233 -0.6086209988166357 -1.0005234550581672 0.07784940417931109
Ni 1.0597605136946684 3.2593622888552676 3.701209711047332 -0.795505745859759 0.6202734954538994 0.06790797669588304
Ni 3.62959577756456 2.6615380146160774 2.6040863090008823 0.02681326353810221 0.8927312405728366 -0.3802000802029388
Ni 1.160665145584169 3.246331558247021 8.255005767606757 -1.6033227049867032 0.21177302564437075 -0.1680827838452718
Ni 3.608239105431155 2.5030019740350795 7.061505528769194 -0.1982215122121812 0.12368934533156117 -0.7741725315996216
Ni 3.9243810651429434 6.674885647986635 5.956967343006576 1.125759833161874 1.529376235406224 -0.0043999288399085516
Ni 0.8372266991561896 7.720911067256394 11.443286007963884 0.00201960153319007 -1.2160325507062026 0.4053187296474374
P 0.2370175212762244 5.3803913772366885 8.151915801824536 0.5136614173195992 0.6621973893811951 -0.6055870970863183
P 8.491123870470936 1.5360820295596662 8.23075307655023 0.56516498451553 0.5168452143642196 -1.1761477986961228
P 1.868839751100404 3.2707856251126706 10.362882216257814 -0.23449180739812517 0.3849183116142145 0.6877839796010478
P 4.030676789321511 6.087735194661477 3.7765585788194813 -0.4044874919953937 0.2222361299592237 -0.2256312716837017
P 6.806484287732983 3.9527362239162596 10.393650272618466 0.9681900330327841 0.515024616215713 0.13969009163519167
P 6.327300165074629 7.753564651372417 10.207597988630408 -0.44172323641840056 -0.22863432017608365 0.8612956477713747
P 2.421593771378569 8.36400426217413 5.788519639282396 -0.38681604285755966 0.7637197116974137 0.08476335769032499
P 6.9660859043443155 4.002565448792424 1.413863167971867 -0.09794103272286357 0.7501751402437596 0.6066345645142261
Ni 5.323157301980231 2.8631486116775586 0.4833597358484125 -0.201612283061285 0.1478389459945712 -0.7969977570242532
Ni 1.3843006573743497 1.149404354822919 6.9340039385564305 0.07345076089098318 0.08461783325139621 -0.11672319842637317
Ni 6.825294413759995 0.5282033291453582 9.143146231310663 -0.5027095462937858 0.3499896180578295 0.01520370432363188
Ni 2.7347015484955057 1.6041795621423334 9.254299356732595 0.03475103032794015 -0.8023034855078828 -0.11413512598422279
Ni 6.43158213116197 2.1940571676807217 2.5206480937035307 0.3386137721207201 -0.5397977093953349 1.3632032669891556
Ni 4.254881210348226 6.7385493006464685 10.416608017888976 0.10351801259000881 1.1574147410629938 0.1946145115872132
Ni 8.449683799257322 7.272637679783092 0.5445003211957413 -1.3773867575783891 -1.1863815606089891 -0.9596136042176828
Ni 7.546671325685971 3.9036384537727824 8.263571012223473 0.928776307121852 -0.8233160832038079 -0.041339225068419125
Ni 3.2948875100699895 8.489281688181205 12.327091022073184 -0.6386519979610872 -0.840867718934326 1.0255495447888596
Ni 0.16971736465523993 4.871055065041996 10.345977484657928 -0.6077694494496179 -0.7321180256317328 -0.29584552791525826
Ni 8.552620249848733 2.3779864268829187 5.64229009882123 0.6617217352963571 -0.2877396109786722 -0.006810852274246334
Ni 3.5856994632979715 2.52984004151097 11.538143044365968 0.32113541283029856 0.25303794583142875 -0.7136112250767969
Ni 1.1226385297897634 3.3657121948658864 12.57540816442363 -0.1361090591521527 0.32336610193303017 -1.0724912036457206
Ni 2.946877602806917 8.582284802896611 7.960259310341343 0.12641420046189197 -1.160769773578156 -0.157583941196477
Ni 5.717275948318639 7.783084719534828 3.4956357129713265 -1.039280778332023 0.7313335820572244 0.5918090694656195
Ni 3.0203391367626256 8.42278251964404 3.5356300322997147 1.0616681448882879 -0.7322362963771519 0.6065386623663103
Ni 3.3557878892952258 4.078961831984224 8.885009534931523 -0.2279046410989107 -0.14509712158337593 1.7767233015004629
Ni 7.005421914413286 6.036831363449635 11.416350413190305 1.2529484498959453 -0.6574711875501192 -0.5278405370334587
Ni 0.5560582090027372 0.1375450958139366 0.43289297141511535 1.1625448632007074 0.9311072692478739 -0.5024935736282379
Ni 4.717070298353276 0.5795288756166624 1.6171236018192985 -0.4653431898301857 -1.3358994369678798 0.40807160980222623
Ni 5.957897464456783 5.66038502466517 0.44354782868792914 0.2486087064154815 -0.9384626811716805 -0.23367779613726208
Ni 7.951788883930716 8.97269199373953 11.431060780592128 -0.8973988212518351 -0.2358938299519744 -0.24059714896491466
Ni -0.17746175451638505 4.913813560835515 5.958421222166609 0.7185269172108593 -0.18860147262391389 -0.1037301286008149
Ni 7.940880275077797 8.89807458070007 2.349861540895819 0.7515784483491895 -0.6714055382430243 0.9837416076141381
P 8.503468297873205 1.5927562258849306 3.432393775570956 0.31055660887318776 1.0107520747647107 1.222477792110914
P 1.8297927108023728 3.2375631317601137 1.3773057828565758 -1.4070495747501444 -0.12438071497163095 2.3146333069547813
P 4.58657335585863 0.9221838118120355 8.262830527185445 1.8754091828091506 0.903798554130592 -0.8623449149714956
P 8.604372929762706 1.698492071132305 12.439500262968163 -0.39854181593492005 0.14884296177905335 0.5988860309170589
P 6.324554952250716 7.865359831504153 1.3277032186444908 0.09755562435898682 -0.7106446862493051 0.1346083062369101
P 1.601425319013078 3.2301311904637955 5.996340377327447 0.977905203438019 -0.3570771210322302 -0.7511770991457128
P 6.857063027952519 3.9084425762146306 6.164563226448615 -0.38531888948674287 -0.07041145984402712 0.12946481436275767
P 2.466176388851136 8.433528583000806 10.272281162763331 -0.041632073718489586 0.40884345497124425 -1.0056348081428035
