# total energy = -340888.7090752274 ev
CRYSTAL
PRIMVEC
9.10704020095801 0.00000000000000 0.00000000000000

0.00000000000000 9.10704020095801 0.00000000000000

0.00000000000000 0.00000000000000 13.32907388783279

PRIMCOORD
 96 1
Ni 6.560183602495972 2.068727946714446 11.554227668274727 -0.9695383195305625 -0.736749353756157 0.8348084001141235
Ni 4.101829151890895 0.15304199033684598 6.2032176771272525 2.3051179112651785 1.1111120013417122 -1.270623241467889
Ni 2.823155162718464 1.765946178842819 4.715453328977523 0.2755217287562416 -0.23038961230429356 0.3151056616964509
Ni 3.189886567369186 4.504733720495841 5.144569780888877 -0.9738814269906068 -2.297282988601792 0.7893068161378988
Ni 5.104496071586818 4.608262554290308 2.4170412731222113 0.5349959171313173 0.8791560729915633 0.41211209842018703
Ni 7.849640327348614 6.531851600214604 2.4816338669444 -1.0086039180734565 -0.5137015265289153 0.12465890833368207
Ni 4.895753601547851 4.513403622833309 11.399623820531499 0.6316961354685443 -0.6313305245990095 -0.9094264418403306
Ni 5.53667977466126 7.9721026978653455 12.624739305873417 0.2640862332257904 0.12684743134456863 -0.22194045309567584
Ni 1.7367125795746767 6.466426622911696 0.2998784434334078 1.4502060555329606 0.6540192244457769 0.890820139593053
Ni 2.8904652973573546 1.6191406896831766 0.4484352164370575 -0.5597834084886424 0.28823197723405847 0.4370821381019634
Ni 0.34197937989966776 0.3363430326762867 4.554438124883899 1.5001348220426034 -0.5977370049142803 1.372373620634514
Ni 8.685693945296668 2.4669697107009223 1.559555146601681 0.35189506261065845 -0.1601784413965306 -0.820631337282793
Ni 6.895350005569316 0.6306042536708815 4.84287903644165 -0.6083034675762169 0.17747502369344917 -0.6835372885095519
Ni 1.0245238163450026 7.48224410875815 2.5762696759147734 -0.3553650234371299 -0.07318208061062881 0.547877915300308
Ni 7.655742332950479 4.1518176959353905 3.654432138044668 0.5213022216943086 -0.9460271237824996 -0.17866647289838908
Ni 7.725784579670504 3.9874902612954037 12.65265056289429 1.0857717228047108 -0.8669824137435068 -0.007171320937458617
Ni 7.974169996006737 9.177164480531735 6.949126167662292 -0.6634582583714896 -0.6030255070067292 0.5264534268779449
Ni 7.160911299855617 0.6532270524067045 0.45808048278749036 -0.8238853254437167 0.15673496293262038 -1.1010947263150264
Ni 1.610252218379218 6.418213951719937 9.43179914790155 0.47220597838829 0.5168562701078131 -0.16294340573617747
Ni 0.22303779115149205 4.831813071809027 1.51035709365266 -0.24734629476329015 -0.1782378700014027 -0.03175518092440982
Ni 6.131487895845113 1.9818103543732781 6.58605579320029 0.014721622480890777 0.3269340217899466 0.726902285758748
Ni 3.491821380495661 4.463242045023674 0.5131471124867889 -0.2666305969141989 -0.07700968188683512 -0.16951463119579194
Ni 6.39250477703646 5.860307557711945 4.671786892288773 -0.9086499686856222 -0.44678316743981117 1.0545510742275321
Ni 5.505251378687938 2.855284800792609 9.52828823956696 -1.039144509864475 -0.4372281767615244 -1.3119292993055276
P 0.19157387772111686 5.524212236531015 12.543471721316035 -0.04126877684179989 -0.341264836590322 -0.3871862817127848
P 4.070145758790002 6.1642914548992715 12.475066920436637 -0.6308091048779007 0.6123195307141455 0.9229864399129524
P 2.710765178740849 8.41938587370819 1.6002617952025353 -0.9262273154477533 1.3277480115053393 -0.4513653874938549
P 6.183461774668567 7.881851928785193 5.7453903700592805 0.3871382020836687 -0.8398161377413601 1.2384589980305187
P 4.80147752066816 1.1532791516886143 12.762414987161934 0.9220932386747217 -0.7553656833057636 -0.16585826539012727
P 4.1934459770116135 6.159537579878097 8.085002676098105 -1.0157857805338764 -1.2134994998717037 -0.2054761368920655
P 4.941917188678758 1.3760100355829923 3.998908668386493 -0.2927720311962571 -1.2640358180583586 1.2178644617086187
P 0.26193304944255386 5.700925245938811 3.7200383454489576 1.2253381443778446 0.4829655308976392 -0.9731910857918014
Ni 1.432437257098696 1.0016560382259043 2.5747105506204724 0.6407726438485157 0.7883873896474228 -0.38629488024676695
Ni 1.9546440532465277 6.6742857100444315 4.961400790633357 -1.5577133917880204 -0.37657533896615786 -0.23050505483623526
Ni 6.116042355546431 5.488357818986255 8.865806612837424 0.09499711960319122 0.20730779078416559 2.3252259948689633
Ni 8.476814869653644 2.2142311291154138 10.29027156688337 1.223006153810558 0.36854321269030077 -0.5323214556229477
Ni 2.1288253054591406 4.965722991945713 7.135839617991071 0.7637940165787749 1.550142264308982 0.1895412108293639
Ni 0.3858306895059081 -0.14951028011996575 9.39698384365165 1.9744737876134963 1.892514732141186 0.08568278418080083
Ni 1.4532650581972135 1.1125342535186244 11.449474848267913 -0.1507679467159081 -0.307701913033212 0.5661479172540895
Ni 4.15586122181547 6.835689784757603 1.7049089735422138 0.7572621289975281 -0.008462786055372522 -0.08472839068733148
Ni 5.813916294574277 7.7515119684345235 7.984768769473487 -1.5352116111410785 1.3366867087558656 0.13949185958145655
Ni 5.227932895412487 3.4827871965473753 4.7648371655480615 0.7592387931079246 -0.7209653514490229 -0.9477844727932385
Ni 0.7114775033845521 7.737213915209917 7.293936015678015 0.11933132547318158 -1.3285825915914926 -0.12397062401740584
Ni 5.331698512253987 4.309050746204697 7.047561433833497 -0.612766645553893 1.0267751896658444 -0.011909349843076263
Ni 8.012437779223164 7.3976852398470285 9.306719414011091 -0.795927663888526 -1.7257429537978535 0.04745639370975052
Ni 4.554221377325462 0.3573402247238346 10.252390832878435 0.3828660570708761 -1.150261160737348 0.7173982029230548
Ni 8.332322568722695 7.508499705857854 5.124389490353588 0.23332606922479815 -0.8881775597638834 -1.1273048090514908
Ni 7.491861143283743 6.502945854396199 7.134520007855882 1.2418489975486742 -1.692563638832408 -0.8984987391842332
Ni 2.4655763335395435 5.181578060435902 2.667827305273735 -0.8907234661141886 0.24200894171077672 0.23867833467564703
Ni 2.318452097970436 5.085817531992127 11.64673151911779 0.11069858949884807 1.1373135994377446 -1.1663117864423076
Ni 0.9672132119230652 3.34078111761026 3.956589162953742 0.005109553312423458 -0.5453412649213834 -0.9240709312263828
Ni 3.9733561347956665 2.5863265804854305 2.6062072493958213 -2.282710747214572 0.5669601287427397 -0.7456667108504449
Ni 1.159226048985218 3.339670058697265 8.415203920816001 -0.7486818435276849 -0.3137910566500854 0.8147597089933645
Ni 3.6488267547582067 2.731583872799096 7.234701093646933 -0.8111318824327902 -0.49792446620031666 -0.12253209179866639
Ni 4.10194754341441 6.686971817141167 5.960708123173513 0.9967737582077477 0.865068998770878 0.5826212323187644
Ni 0.7433639834834761 7.486050851591197 11.558493405937405 -0.44065108640014433 -0.2633480695081852 0.11675070923019892
P 0.23285791267511752 5.562844301358259 8.039471117561966 -0.8318413470659995 0.13463735970263266 -0.0009384526538693515
P 8.811243602465083 1.6870518889799169 8.12619017642524 -1.3042694687674248 -0.8234747202688593 1.4674003079240598
P 1.828684579265944 3.190760843235149 10.595094222479606 -1.039846935248138 0.249235541366203 -0.9105371584060061
P 4.0477242256441555 5.853340671905052 3.9640132221822126 1.9484056297715349 1.8650229544788204 -1.8317369387321811
P 7.016154894756826 4.06020087081467 10.430160258957605 -0.5277196951848782 -0.013872387106718044 0.1171641426185337
P 6.202996376048681 7.930820484319399 10.450953453303097 0.19930394664308257 -0.021706538439156164 -0.5793813852252281
P 2.123597864343903 8.66239813628486 5.938476016465293 -0.4571161739347031 -1.1245935807679148 -1.3902461300395605
P 7.023904986026978 4.081620629530767 1.5588748506934786 0.43542891876925655 0.6390325212289575 -1.1123900967231874
Ni 5.443696893499973 3.063499062495891 0.2509144414193373 -0.15503649218427493 -0.7484041643862659 -0.27074204797941115
Ni 1.60056232753146 1.0205258256662753 7.389478885859327 -0.03109106497784968 0.8481927918408295 -1.2785851766274432
Ni 6.845297712242927 0.5935313141379366 9.196327514668814 0.032996252420362526 0.6668824535616903 -0.22632495531661667
Ni 2.686312775614693 1.4841925669556593 9.349066240564653 0.18492556643422348 0.03676060455880121 -0.18176773753153214
Ni 6.2107646813993735 2.2123915069807834 2.367070032454229 2.3704612125576787 -0.5410971449330487 0.9420696817966485
Ni 3.9370554722776556 6.735758231869963 10.142105485907322 0.7275861991996502 0.7627748312856413 1.111333630434215
Ni 8.14248631428518 7.1613211166677875 13.408381907065037 -0.4044358128218518 0.4854201630857188 0.3695127756924217
Ni 7.631362786146486 3.6616950026603514 8.01838467651977 0.6905456015065848 0.09165494260383569 0.7481740506533309
Ni 3.1760347591178326 8.568868832707345 12.64683844979369 -0.09346371367780032 -0.7671688465882788 0.04289037160562291
Ni -0.019886133134553036 4.718066138831115 10.377084428261428 0.46967678420853304 0.2383294359766605 0.05030543312277143
Ni 8.604595751688318 2.164789007487145 6.000775457547381 0.3173774884497631 1.626152044176393 -0.8383572938076466
Ni 3.5744040216680952 2.340655062149791 11.391719820280775 1.6674455036085412 0.84240292463193 0.7922355597489195
Ni 1.295913616404391 3.404512185422864 12.83201918524495 -1.2714254256542104 -1.012027856153341 0.7840085438534369
Ni 3.192126899275716 8.283927756725529 8.058424689772826 -0.30447826388959176 -0.9118232242072812 1.6105850429760715
Ni 6.0589321060104435 7.874265764239909 3.594224584112701 -1.480065047875922 0.5829117669759897 -1.4532934362090326
Ni 3.0918219577369883 8.442362936310534 3.8544081711193012 0.8476952833791208 0.4930149447138412 -0.32238548318731575
Ni 3.3925910697088457 4.33020640075295 9.414764429075674 0.10940043951271482 0.018362304557271603 -0.797133254160853
Ni 7.072873541561185 6.169546217135321 11.386588003088377 0.34595041499144935 -0.4758114363513612 -0.7159619846971605
Ni 0.7024879439335917 -0.22620704116560839 0.5199509822728416 0.23657157274528934 0.5346827567662727 -0.55340064489075
Ni 4.7428919306083595 0.41193966325725906 1.6279599474810797 -0.046646496213945475 -1.3763665438439907 0.02833175706515766
Ni 5.981066911698102 5.350950795385717 13.348001319367931 -0.5120375085629311 2.3884833601667124 1.843623919977754
Ni 7.969425228025833 -0.12016375355247001 11.360609260012895 -0.17281721320646365 0.06119816877587525 0.6100423046441946
Ni 0.09777591645562456 4.899605879582251 5.602090180699734 -0.6759245091593005 -0.32806787828407374 2.3047420159829985
Ni 7.9828672194650165 -0.11327245617982104 2.508051569360919 0.44382279925990664 -1.0553776838938855 -0.3817874792947167
P 8.232718869284792 1.6822889069184719 3.4889380915460366 0.5001232736238483 1.9667828467271415 0.713943668715551
P 1.9928754083018738 3.214940035153192 1.8331078687253013 -0.7324175591500225 -0.616527398147906 -0.6248387462270787
P 4.897401975836802 1.051252979538771 8.121164911604005 -0.7345055520273028 -0.14034469450005504 0.6610463064958872
P 8.88436402879652 1.5378239271083352 12.683107237670754 -1.2429910815729173 0.33099662189509443 0.5580288876913809
P 6.300642061828437 7.678027260492268 1.334226934822171 0.4289857342470741 0.22813861148658773 0.3222751828616966
P 1.6271457780809016 2.979395545598292 6.100610475808155 0.5194016622374861 0.6202562690627189 0.1530217757470913
P 7.14087581126063 4.014492635697286 5.917629090582206 -0.7530185232298257 0.13999271047727502 -0.7422836533108248
P 2.4005065308071836 8.391154048869799 10.55813238883796 0.20705942221878532 0.49250175252284856 -1.8995513272729931
