# total energy = -381170.9682166377 ev
CRYSTAL
PRIMVEC
9.22367481565887 0.00000000000000 0.00000000000000
0.00000000000000 9.22367481565887 0.00000000000000
0.00000000000000 0.00000000000000 13.49978043605525
PRIMCOORD
 96 1
Ni 5.59269209968429 2.7933160727257262 0.3734887226449409 -0.33537829590255785 0.17759329443886834 -0.2221669672841851
Ni 7.508237176111802 3.334367602929656 12.601019023918107 0.20624463962697384 0.9565881871277978 -0.3994396451588411
Ni -0.0688787126775237 3.7781647078199887 10.421465630883183 1.1179848172021454 1.610831611769239 -0.8484015654175259
Ni 6.608329360698201 7.8482494940495 10.74024966165669 0.32504400385608534 0.9579950947776533 2.054736686330306
Ni 2.307578919286368 7.165577663554888 12.756319878422097 0.7604251001065421 -1.3692227337103582 2.569934080678458
Ni 4.684040240720111 8.399816013333238 9.526403011753466 0.4069639785603443 -2.817227153606309 -1.1560631121311058
Ni 0.5618029533896775 8.174905931120914 5.556198631005112 -1.255102777234787 -0.1268083505765171 2.324206038244881
Ni 2.9555881805161377 4.829654392126195 12.138394554370137 2.3460210772374435 0.5142273171253983 0.19578024976054023
Ni 8.926736874001845 1.4086303660344344 12.727120491641438 0.44531095376965885 -1.295172648672479 -0.7970270676002918
Ni 5.562650591409784 2.7022507330898065 2.5881640239413493 0.46059564784287127 -0.2809416142202323 0.4445766467067956
Ni 2.369663473230394 4.553848073297748 10.05153171244119 -0.6457479855759201 -0.2455202972981449 -2.000962320822328
Ni 1.169082312182063 3.229761908934825 12.349221007787758 -0.03675032014615606 -0.31576592098826906 0.2870700957154734
Ni 0.5964987278831926 2.4016511768521274 1.1578598672580256 2.0761953704247142 0.6188840713055406 0.35019144965599047
Ni 3.0628410691301826 2.4517449537753193 10.958784339963781 0.32659000818696654 -1.182562443973215 1.5059216039277097
Ni 3.908513677711087 6.881350129787962 4.239713696905936 -0.35340455727664943 -0.21225176505300222 -0.04522519038638663
Ni 9.457310309824493 8.085602313339596 12.117159810633703 -0.5374274093909454 0.20414970477115807 -0.25356245087633106
Ni 6.80438778866347 7.067161055237735 8.646352845453828 0.1772960749134237 -0.6726468668492931 -0.863130129876952
Ni 3.4076589215508464 8.286632301931196 7.495510349855381 -0.0281090995313903 1.6308759320146233 -0.4149120297628274
Ni 8.388443222512707 2.445915591408268 8.338989568608936 -1.8939303815417896 -0.8535381153131429 1.1939843126569114
Ni 6.626195618459244 0.949521961255959 13.044149257132588 -0.8080236758211117 -1.3805350733993837 -1.2139458433805028
Ni 7.985340970096159 8.024255653366081 2.964511163354564 -0.4854862404369638 1.4787208751432017 -0.05281585824945097
Ni 3.3012361636536274 3.205688118146843 7.197745228831933 1.6934195590747996 0.047229365300608984 1.5428609001562201
Ni 1.987923251260193 1.915249918839307 5.928914409715941 -0.18447099539530812 -0.12053640152487627 -2.1103218797947787
Ni 4.2662538982903575 1.2500753991204818 6.13910627431892 -0.2538110765520274 -0.6965766381920132 0.3372246050826773
P 0.7380120335481504 5.9219311656525 9.386181020536903 -1.3248874021280923 -1.9190893973059209 0.5947586390122467
Ni 4.281251593241031 1.1276311183885026 8.7351546953352 -1.2757788175268996 1.4042642986955236 -1.5653716796642267
P 4.771001045145054 5.6307489812134905 9.900455300918384 0.534125341600906 -1.9593081356166515 -2.316287040508121
Ni 5.1621770862631875 7.084151063908792 6.684753961591682 0.09875812930752025 -0.39096914579398473 -0.7947953500562956
P 9.006300291372396 4.41284575920737 0.4224341520765226 1.1235330007138844 -1.0701304167230279 -0.08188192237747188
P 0.682641392368328 9.369224217094517 0.6629322444159292 0.3195657543503335 -1.0874812492966497 -0.3288476938728917
P 1.7735927238500993 2.5808579512658087 3.550631412542493 -1.6875085929070033 -0.10469069274187132 0.9282654289237047
Ni 4.170050971884741 8.321636147157399 13.890598499117457 1.948510273670199 -2.492538990427746 -3.450963973653966
Ni 6.9888059392439 4.297153208305583 1.4987050830149402 -0.15869542909310086 -1.2743310293367793 -0.640453055725568
Ni 2.67527148479293 4.935698979363526 5.9192212500457915 -1.2192173761920873 0.619880630890855 -0.7352452584068047
Ni 1.1524151321231035 7.476655314173851 3.3440709086419 0.6236964050925194 -1.3146263865217165 -0.816024434638401
Ni 2.4570024483152237 9.284458647231853 9.67020286635955 -0.22665894161726768 0.22606295990448164 0.4517045160008285
Ni 5.649823540351249 5.014939568121976 11.76990506337542 0.81465043710901 -1.2191142749553199 0.11634370359976737
Ni 5.617642139562255 9.017534727073455 4.855844093874623 0.8947590696361429 -0.7744201288340533 -0.30976033822413745
Ni 8.637962068641635 6.5358866201431 4.538477741891964 -0.8881994141407542 -1.8244573743516321 0.18708760708254873
Ni 3.041949446090037 2.9226781094312635 1.81160256463868 1.8481945700675717 -0.6012553024801839 3.055241629445712
Ni 4.773223950731223 5.280323134616929 0.4923007203070704 -0.28079788955351637 0.6709435110049412 -1.04718074990539
Ni 2.1263798311523012 4.44847681430851 0.6974149520254587 -1.971555585525437 3.2765056252996536 0.4964504527579514
Ni 3.7726766214142997 3.0839909550600075 4.295940295091553 -1.4583037449394303 0.4163852718742442 0.14531617957271747
Ni 6.489334734278369 0.9735773046946786 9.472066344499822 1.0030493068038142 0.6323065153590336 2.7061410988610555
Ni 7.671542335460931 5.76195575284531 10.66150530659341 1.013775692082383 0.6444192394621675 -0.0031015217434591747
Ni 4.681263914656056 3.2936911978051335 9.317386243298527 -0.42427110238022414 1.489212775813461 0.8156310558547244
Ni 5.87695652814974 2.487163864359937 4.893886217524414 1.6877441059565772 -0.7755102765744386 1.333611926485284
Ni 0.5619311624670541 4.102985633639753 4.970726806143771 -0.9206233389974144 -0.7708732920230594 -0.03165156546701001
Ni 0.7985359417445422 3.422269222167001 7.367194277853045 1.517815012931186 0.9442368646512964 -0.4186866663139112
Ni 0.6598478476191855 1.5769993227562082 10.332138031547823 1.6881662810956604 -0.8840283134822001 0.26568571650242634
Ni 4.874767384748425 4.909134796425063 5.3752209110622 1.1471208153361536 -0.0493078450961925 -0.29140497564540135
Ni 5.797881965534655 9.236218828909575 1.76578488327461 0.7896860538541883 -0.12983711010051185 0.07983815247456573
Ni 7.794327892154271 1.4306841720781378 1.455262497868458 -0.41371363857935206 -0.6226090855656117 -0.9817047796897672
Ni 0.4190011003787115 6.91088433595774 0.7902254109016411 1.623644704373507 0.9584735770759686 0.6314004586049964
Ni 8.783124259990778 5.402075639751552 2.323460242266731 1.1148863807824798 0.18433292715554705 1.6615707899953192
Ni 0.1988052382705033 1.0064689284302897 4.5889672144568445 0.0722351433163272 0.7329641756821119 -1.5255566045498177
P 6.075874295250747 6.736003464946191 4.306915545535468 0.9589985963415033 -0.42123514376737775 0.205717049258278
Ni 0.7271004264591915 5.5692916371444 11.855034046018565 -0.5750750445403902 0.189711417858641 -0.18150522789876483
P 6.963274807864154 1.0929593254490293 3.311118408653721 -0.26350747790418494 -0.3894133712710906 2.380180496727972
Ni 7.881150341459742 4.988117122293834 8.460001412670657 1.3002757742269992 -0.2776457170777799 -0.88804694772329
P 7.932277169941652 1.9748256332835896 10.844292711499005 -1.5728016535797105 -1.2716375416650163 0.28095472684635486
P 8.618804496432194 8.423115015452181 7.562279608144701 -1.2656980362521297 0.6243201547194474 -0.39072746209682385
P 7.8464877721949 3.617230032851132 6.100064304339084 -0.1691878439839925 -0.14933635647570412 0.34593010327647516
Ni 1.5587456706606462 0.40400063832564803 2.71229439239595 -0.8829517925885697 2.0946000981841473 -0.6529727854591334
Ni 5.55974513390089 4.773519108319428 7.684696217852785 -0.031091322088165806 0.051280909662163296 0.6965912934800326
Ni 2.1003137266439342 4.979751249403144 3.438880137810709 0.4296845600863116 0.09781787688143799 -1.0164835779318493
Ni 1.0133590133799537 0.9278647732214064 7.732674083815533 -0.4074082651866145 -0.8694797262440639 0.4835483999843027
Ni 7.959855957089571 5.976692121939186 13.004297448520115 -1.9627189610704132 0.3754527953259405 -0.21753615338039306
Ni 7.008895102591112 4.442564438869776 4.005506150665151 -0.07643735432313287 1.0566514083999867 0.2864568876115066
Ni 3.470130869829392 5.851379278396839 8.219719154317625 -0.6360248447508854 0.3755744085054693 -0.438623000226522
Ni 4.547050225094398 0.027127749458442464 11.513814349071614 0.3429206270261901 1.0760380404567147 1.306529468446195
Ni 2.6070993055921723 8.80288137105126 4.867926185274308 1.4182379872667963 1.0133851415121837 0.07750924723107296
Ni 4.215062504086027 0.8597590044779949 3.2597646777758786 -0.06633060490643415 2.4432707403202376 1.8238719341618075
Ni 4.330247752883086 6.891154895921153 11.374280443982558 -0.34772473328305276 1.552211488133185 2.247088112914956
Ni 7.655262549736491 8.224252590398963 0.4033365337521864 0.21313005389289746 0.41080006447698286 0.004257746835089441
Ni 6.174484600735161 9.019554711817733 7.6740179697320015 -0.1057569292228566 0.27979438798966655 -2.3046643686675274
Ni 2.093128484106065 7.134650682515767 10.597003227528491 -0.2508036571842713 0.19692233378478344 -1.5172110607986
Ni 6.969353209446253 3.6176082035110197 9.959570753998559 -2.964143330676295 -0.6463005156452805 0.24928310677468682
Ni 8.781915958614064 8.78372379884182 9.770061135021592 -0.6452422495840952 -0.28554568865114693 -0.3615873501977579
Ni 8.010761417380328 1.175096148041743 6.345085686717735 -0.6726327257819061 -0.16690830392119643 0.4885214277188619
Ni 3.3673053450384236 8.41160386951218 2.355522657652978 -0.63029179892185 -2.969905944191685 1.2922246217877487
Ni 1.3015158325398601 7.643179535969343 8.380987726308138 -0.05465599678198328 0.252136774173398 -1.4297850686744473
Ni 0.1727391337621362 5.67788195858 6.834520611316827 1.498354333103413 1.3770787394196669 -0.4482600090956538
Ni 6.622875095591936 6.47828477206994 1.8607693622614156 -1.1913779853823159 0.9738307762583293 0.29685931389175324
Ni 7.079234845330252 5.790207868241321 6.249669539758179 0.18507057665251997 -0.31285954597475146 -0.6665029587350844
Ni 3.1614513746145962 0.9838155835355447 0.7796421666295602 -0.5865568199277447 0.7355784733765074 -0.1913381548287866
Ni 5.994161761691078 2.266229185913753 7.53671158206643 0.3929519805519684 0.9513945587420002 -0.9229604717710234
Ni 5.4039019273285716 2.198988597850768 11.515798361484832 0.11686229510739873 1.1116784153681434 -0.635500596816299
P 3.666392218636552 3.003403709805371 13.223007376645203 -1.1344679024588333 0.02479160512238311 -2.0178112740588667
Ni 2.379108516052959 0.12362767818718912 12.259190564445483 -1.3657532871045188 1.0098347051567642 -0.5091812700610585
P 2.9472223076254473 6.531652953487283 1.3817027703154936 -0.26990849633452224 -1.013695473663751 0.27399886435381204
Ni 4.535419171384189 4.875191673781471 2.652369100683137 0.058312362587647965 0.6202457275397577 1.6921898004327567
P 5.980067986854283 7.083523854033857 13.014827195479333 -0.46115306300823805 -0.0283672382887834 -0.04661872829980358
P 2.2877111241303085 6.991443910188483 6.205538868484195 0.18699401892747794 -0.0024101521033893973 0.016148327625088315
P 2.2688948278822307 2.351013203125681 9.019945795622105 0.1280656200223859 0.30266460771962067 -1.4916753784213406
Ni 8.580756838577624 2.9451008624602233 3.028730075608299 0.22168874209618591 0.04447545670455566 1.3224877915476643
