# total energy = -340873.14890646446 ev
CRYSTAL
PRIMVEC
9.19844077115274 0.00000000000000 0.00000000000000
0.00000000000000 9.19844077115274 0.00000000000000
0.00000000000000 0.00000000000000 13.46284786122287
PRIMCOORD
 96 1
Ni 8.34486230224759 3.1733976925138143 10.004283101753533 0.6054462006330799 0.9909538090918611 -1.563064885907921
Ni 6.119731873478979 8.558321319829034 4.0366327296656195 -0.18721667646124532 2.1285597429590437 -0.286967508699338
Ni 6.121718736695285 1.0199599114669045 12.258623179334084 -1.2164117884224923 -0.13531021739994117 1.539336946163362
Ni 6.36511867913356 1.6935709308802813 2.72046462703446 -0.10630997351284917 -0.001737808626713136 1.7080712475497035
Ni 0.8410704741610167 2.946573340426386 3.6810522824089236 -1.3439878704029693 0.29711385310472055 0.1318060609014246
Ni 1.4498398445726215 4.44479698369238 2.1119436145248938 -0.08810759157220954 0.7675786804321878 -0.9522080557822309
Ni 1.2148564754811966 3.0897378732901974 11.164928566284276 -0.21790202136024409 -0.5445974447768234 1.6291039277158652
Ni 0.6558672270788682 6.011466225071945 7.089791163361913 0.8392859762695031 0.5051173844043301 0.7043837929412579
Ni 5.49039294971412 9.104331568239662 0.9888001932019236 -0.3569557649630175 -0.2610975829111116 -0.674108024775852
Ni 2.3797930126527103 3.4291787362907367 9.209422834721014 1.122954245392279 0.5068266537859529 0.710154376876448
Ni 1.6672725885866784 6.927649327250138 12.249455093372548 0.9632391167854119 0.3249568434589178 0.4015296949186504
Ni 1.4364745100666385 5.2428813042309885 4.554158166400627 0.44351786642497815 0.4147472220501889 0.9337465066429339
Ni 4.955448425605416 0.8350924074745485 6.97440132254271 0.14758106434749424 -0.9989885064708797 -0.41255921325993467
Ni 7.321269006658273 8.134319190404888 1.935001487139802 1.5006112474583897 0.07177208763697962 1.503920514337281
Ni 3.3512219503731826 7.783472260792224 1.0465268482323415 -0.36442122010212724 0.47660102213219213 -0.917063389560298
Ni 8.660975919338167 1.063716894429713 3.2648209957863297 0.14893732126507253 -1.0024312136038414 -0.00748422419218711
Ni 1.0551991382338837 1.6721569606600968 8.956590811069775 -0.5408467194851395 -1.3114736998253478 -0.9528546882272945
Ni 8.04156211321402 0.02505195356300381 5.909665240870559 -0.7411166295859172 0.41399466015488057 1.4972582718257568
Ni 0.6671086416003835 1.7325631215002826 5.723635973803113 0.5103246396368823 -0.5127720727361105 1.5124450068685245
Ni 5.368154869707231 3.792958673691021 3.883291041882731 -0.8468136521051158 -0.5974654964204484 0.30142764998872607
Ni 2.936225094508127 6.02192485228 8.61130893815093 -0.6834280166251973 0.041150763206696875 -1.2021483365249424
Ni 4.438247693831224 3.08990344522489 6.322866561088286 1.333912231334522 -1.2902171044394166 -0.3358909738729183
Ni 8.400844013055169 5.48397243802439 1.0977713620195617 -1.2064716464906446 0.20207688140252938 1.4189380986576143
Ni 7.039079239297954 1.2703414704846991 10.237095638812328 -0.12311984598133634 0.1834700649346195 -1.3811361973184924
P 8.379282867781924 1.429943617087115 7.749484941820334 0.41478296038413076 -0.15875919245150075 -0.09445564527742442
P 8.063141655368897 7.312696059817546 7.503612458490656 -0.17104109514264737 0.7337388490646074 0.01826717374030402
P 6.664150791628398 4.539090200499559 9.561718518762234 -1.019734223658663 0.5446221273671716 -0.3770016278702991
P 3.0762713559352366 4.231356362992567 3.510559181880091 0.9422478592457255 1.3245253908029835 -0.08445173998717714
P 7.1023461152319864 8.228906757318187 12.454965738244686 -1.6081404380903208 -0.5235018004487888 0.09382392523069649
P 4.81459270138648 7.503315348852292 2.7759045496779633 -1.1342192767831367 0.3716604181630438 -0.6147422812230251
P 3.47873073696777 3.3009340744308506 11.446974837967861 0.3183228830821679 0.391861575701267 0.2480605472214954
P 0.6007648872133209 2.1295954224512403 13.117391453625528 0.20060595328395775 -0.13273448625296494 0.06438299426176008
Ni 4.137329900969059 0.6802430952418791 2.775298372428174 -1.3829812209470311 -0.03735915737474856 1.0214031267206538
Ni 4.483614403936873 4.968022694201204 10.027843068216145 0.5540791590150135 -0.9734736500292268 -0.5995241787216901
Ni 3.5910712946563934 1.2693940310806275 0.12460943804931154 1.024654543778416 1.0883058020804741 -0.10129349413486427
Ni 2.2991962742208987 4.271921486992143 13.413048658184891 1.2282195796906976 -1.1754818829773497 -0.9157876081716679
Ni 7.62406328144695 1.2657882422806652 0.8207547977742901 1.3708697823954779 0.9459502477979774 -0.2709978727439591
Ni 1.061518467074634 7.290113887613701 9.553331380425996 2.314964722152271 -0.24857425363312027 -0.4083012093145291
Ni 8.604083562889782 8.86145593692791 9.32385695753941 -1.1938405879901954 0.7938399281215619 -2.0170471421993326
Ni 2.8208214560276987 2.4855842804801775 4.592177161982271 2.9833103905230494 0.1964507934650036 1.2832792396690027
Ni 2.8166361654563135 0.3117388386383787 5.711155529303651 -0.29478186253743427 0.7192126304239742 1.6307862005142948
Ni 1.8624083120621926 1.8614884679805694 1.5462615805846762 -1.1368050352324421 -0.11950436071593613 0.4330925573265961
Ni 8.078916981368732 6.291319588464942 9.599899406902242 -0.34912727005753424 -0.4338692875916205 -0.34069765123294227
Ni 7.77357473847396 4.306636402632598 3.788795459377595 1.1738602882135267 0.1792298016010268 0.22395516953285946
Ni 2.359850792963123 7.556969854133364 3.2103239133264903 2.1412332246616543 -0.9430438727844598 -0.19316260963203508
Ni 6.818794978630866 2.929197485724526 8.048897869764964 -0.06999622668347945 -0.1397811086871012 -0.7481028310957631
Ni 6.227555996726833 6.606780116257569 0.4767855423599212 -0.5766891831050456 -0.09640017059830495 -1.6058087046333505
Ni 5.900772188289427 8.258810888411752 10.63765554181631 0.25664443223576444 -0.08243959465315479 -1.1354621480513025
Ni 3.6683381975127296 7.121488070570562 10.65554834889204 -0.1413178570466018 -0.8342959792540793 -1.7278841685105726
Ni 3.1171400284817485 8.94495938265765 8.675728378719237 -0.16870936168567718 -0.5402031723638697 -0.8053751824546711
Ni 7.430445300706113 5.230196654345407 6.855982435162723 -0.0836230734382947 -0.19038967487258823 0.09322228709095558
Ni 9.450662063411556 4.969880779246083 12.686808759641451 0.24758386469539295 -0.484762732007378 -2.8226789207495
Ni 2.2572881778621525 5.092091263930522 10.957115551675832 0.03605715073387338 1.2301412221934427 0.21923590968031922
Ni 8.767438673345218 8.479941405633934 0.18119640626259845 -1.1734915920201983 -0.9718759665248038 -0.5447056882199135
Ni 3.7538009111363273 5.068947986836885 5.523968178537443 0.9735289287471944 2.1432525690845283 -1.6713168136384893
Ni 0.04348930833505626 1.1458405740370192 11.119423879566384 0.43391016813188493 -1.3874649677499975 0.9980767932898876
P 4.659258631322794 7.251186086079413 8.313321768532816 0.8972599816811258 0.21019179720017997 0.48074718309008174
P 2.6191732364542935 1.8742375069518649 7.238663328752197 0.4173347802717071 0.5297873763471844 0.5634641997743393
P 5.2727486415612885 0.6898940993462682 9.178310028504194 -0.6800087065310031 0.02583084502017487 0.08757254500434596
P 8.649634241811754 3.1345342800652407 2.026629915642519 0.036501694470459714 -0.38060091518578326 -0.14889695494544034
P 0.8722909021353847 5.07918585146535 9.258952759140088 -0.6263251009646181 -0.3288860033099949 -0.19160015024092164
P 4.1810592886094184 6.599081021294383 12.756923874763167 0.33229785720502125 -0.9096508991463108 0.08797723664193237
P 5.560080337337881 2.217090991495225 0.7744139727862023 -0.6726720636602738 -0.9840164585420794 -1.6933249424784644
P 9.161739037373756 3.917643538955025 5.486056804713348 -0.26045275023826114 0.580851027792219 0.3287713321090015
Ni 8.939670279188318 7.894442250799229 11.305965499787291 -0.9796193579156481 -0.16006865529154368 1.2547739331404584
Ni 6.639894503195998 3.859086264718902 1.6710890216813323 -0.45320963979144524 0.3214660566968399 -1.2969569942664114
Ni 7.615067206328676 2.3863055087506018 5.300458024676102 -1.5960194864570705 -0.25532622764497315 0.2233825848588411
Ni 6.454205578438753 5.972501629774392 2.67969897702509 -0.20126389858293078 0.559286928468198 1.5786951362460102
Ni 0.13726189339203662 6.407569483500464 3.020996085382344 -0.5525017872255645 1.5074750644577586 -0.7316320871342497
Ni 1.0123528009118818 8.255711013856683 4.831533469837731 -1.054874776115538 0.08894011477583393 0.7349544666392633
Ni 8.431428828769134 6.451216085173478 5.203821964993028 -0.16493935312028365 -0.3543828620295187 -0.03751753732948377
Ni 4.0063257068643034 5.641900468398251 1.9783252235401663 -0.4458560276398515 -0.15733145886603872 -0.020386019855519726
Ni 4.159332571401483 7.880111080007541 5.113795904880499 -0.9496454372613775 -1.6573449248394294 -0.6395482845231114
Ni 5.326173185821956 5.17838183722758 7.54249334797678 -1.8331775278334492 -0.1314317082811414 0.7611151841950311
Ni 3.2261231552724476 1.2636174102480346 10.445891046899945 0.9163141700990993 1.3923338658065247 0.6024580645390334
Ni 2.4968983626841412 4.191113184421559 7.159596291028124 -1.1987310833132774 -0.45911700641481573 -1.3056666062252673
Ni 5.706068791532276 3.257866974529259 11.206824704669959 0.21450405142228865 -0.4456218001418583 -0.34562362777964994
Ni 0.9218401432801736 8.73986174777816 1.838351629795505 0.6880490603369763 0.07078247003020066 2.225951845156973
Ni 7.810810026898062 2.776714932313874 12.191254718640092 0.9079781394295783 -0.5021477602530449 1.1275305519090517
Ni 4.76141651502785 4.447317356476027 -0.25597421103406276 0.7347801458449281 0.4121866604118643 -0.29201998352158093
Ni 6.119695079715714 7.6547676768915265 6.140068706279583 1.2323762821715485 -1.6618243007670217 2.270984717026895
Ni 1.5794918678773906 -0.02283972854670037 13.157457102288783 1.3120961639006952 1.3961763794810664 -0.8476055518787919
Ni 0.8107312568168437 8.63981030702002 7.321957969875409 0.24802300911534056 -0.23490421234519543 0.14277824364221217
Ni -0.07951868116814956 3.8327235333395855 7.6109656215687185 0.8216808615932302 -2.083264361456354 1.0355429085561456
Ni 3.9287000648161348 3.292471508879918 1.7393322540969467 -0.15706766368169078 -0.9866006743294881 0.06576573354189964
Ni 6.279987109379346 5.924182220166734 11.47715860166224 -1.1292300510986615 1.4514741236121067 -0.9640585273629139
Ni 3.959275682089285 8.65347919007294 12.14943952653359 -0.03998425370242146 1.878297045879907 1.4027157232614809
Ni 4.56683269800131 2.6913993937433354 8.64619126541424 -0.36835835037300435 0.08806336859783542 0.6187729996489731
P 2.3235905392655423 6.840098567561255 5.962668496541842 0.8752528812824153 0.36401472869232787 -0.24585196960595077
P 7.312668464495098 4.741971011142339 12.744873917293905 -0.2100907528459414 -0.23070662932408006 1.9637584580785212
P 6.168639983298877 5.506389038293544 4.933971905987682 -0.4154879568709554 0.49084493364571596 1.1912226907513743
P 5.2918538031366 1.5052420536087778 4.660999896169307 -0.21698130931818763 0.3594206815637423 0.9381261237678682
P 1.8967368931883648 8.908892296217212 11.005366892821451 -0.3213120476174789 -1.0433505775260223 -0.5130404959061486
P 1.8450692511235982 0.841113706832853 3.8570524894544334 -1.1193256475007562 -1.3035757851345098 -2.5482645661248244
P 8.179262772232992 8.196951373922602 4.119941168450056 0.32667614014286966 -0.11571841131094263 -3.2474619297691363
P 1.2898053712518431 6.201110479380169 0.7876017773844319 -0.017068525446512536 0.8007435972199306 0.8269685923547306
