# total energy = -340870.99086453696 ev
CRYSTAL
PRIMVEC
9.16247592777678 0.00000000000000 0.00000000000000
0.00000000000000 9.16247592777678 0.00000000000000
0.00000000000000 0.00000000000000 13.41020967756092
PRIMCOORD
 96 1
Ni 3.770459585699854 3.8400852394289964 2.372843012087244 -0.31281275189721613 2.4596193568815896 1.8349492750218912
Ni 6.331179164403241 7.309181833050258 10.855524511537196 1.95848538260504 0.25486060086246426 -0.2837965671705241
Ni 2.620990344623942 8.922070775970171 12.430969164538057 0.18414009441845058 -0.4999738925301776 -0.6825934365390438
Ni 2.415558474343497 6.7375624542898915 6.436350643062271 1.763733574109014 -1.2953171446701433 0.6898226072976313
Ni 2.3731728612166365 8.561133366133072 4.790381497454674 0.1646878992311099 2.11037690140243 1.1061047779351079
Ni 4.584637186748888 6.012022644289117 3.414266505840509 2.058014842860946 -0.9499585976264221 -0.6660445310414271
Ni 0.1538535451669487 1.6682486218028565 9.462712740242727 -0.7057613900150749 0.43965144149103635 1.09234063427148
Ni 8.821860777965746 2.2907380662961074 7.294430246985787 -1.0080727281603348 -2.4966663823325583 -0.45956952057120204
Ni 3.066506568722617 2.4332328901934135 0.9316112210932075 -0.5996833300073736 -2.150106358781568 -0.91983863831259
Ni 5.849287911313291 8.68562392505107 8.888367524926972 0.7773293320610484 -0.3567066250666889 -0.694102722730224
Ni 7.080660523712377 8.686017911511177 5.679558544299193 0.7312024557959987 1.3515836804723562 -0.7632875092560016
Ni 6.8963756476162805 2.5763507624462374 11.532391417505867 -2.649645477767172 0.3238582110781003 -2.011415140724536
Ni 5.127458904018176 6.299577785312332 9.177921001925752 1.1484778435846803 0.7997660637980097 -0.9282006371240402
Ni 0.8652034288707994 8.324851439778667 6.944718702518991 -0.46008554097567217 0.6787113278758182 -1.733658094879872
Ni 1.5507123820295388 3.4715796245675166 7.0837015494358555 0.3049698588140296 -0.18918279904868063 -0.784582671189352
Ni 6.272933305638119 5.0363747319269265 1.9710730287741718 -0.5857968018332685 1.3029738898844527 -0.6405903526343807
Ni 0.3063437139324109 0.7335688875587224 4.753114959566459 -0.9351040491120928 0.7955414841937009 -0.4994964386731269
Ni 7.83350451164615 8.188733699049605 13.209123575667167 -1.4048065443522386 -0.3108692550176001 -0.9810522337074331
Ni 7.299377983926665 2.4731812847531005 4.744545295935342 0.9237276889543511 1.8171765244195028 1.080298101284649
Ni 3.263078324888563 4.7607949467958015 13.33771434251302 0.577216259253109 -0.7790108335285294 0.12433777754883747
Ni 8.889159162837512 3.281614013465225 11.275330828494935 2.1112636748827573 1.0164282992138818 -0.10486064266083231
Ni 7.599641478907285 1.3527387670636768 0.47387775174088914 0.14876608579453088 0.4125466148544443 1.6750456845533026
Ni 7.785355701230747 6.9121351060205605 8.62956331676817 -0.36166319774101585 0.2943907977466027 0.5836653573125626
Ni 2.0261807395721623 4.234291598955596 11.448925844055989 -1.0468315940960873 -0.398141752283024 -1.7331199629882152
P 0.970260376582123 2.7450685921301994 13.368865844041343 0.43736624500128546 -0.3440737667940268 0.05291330305926371
P 7.857748422656455 5.787880998391497 0.5657434830192813 -1.052267420399678 0.3202735790506355 -3.01783953464817
P 8.114526807412242 1.6999507881277456 2.820381394598608 0.5527498986806287 -0.5855564036876882 -0.42340258373234185
P 5.280279838160612 3.5376685626315125 12.923646484159121 -0.1327951642875713 0.8334297745990421 0.9247939254353363
P 4.120209612565077 1.3022352003634488 8.246071556461317 0.6424356333732355 0.558698917175212 0.5137460066136055
P 7.050461003421385 6.919859073133821 3.330921877071408 -1.1308027949024204 0.3201023435800939 0.5104123142546823
P 4.489594825104935 5.789942555450197 7.327445396095172 -1.386018465111458 -1.4615189094426184 -2.646460652281287
P 4.886421652715037 8.59752672007598 11.596263952669865 -0.9819834872724506 1.4925672941079906 0.2342961464475513
Ni 7.545143072751087 3.7447863284621836 13.248616595178778 -0.4451749424124269 1.2185622591065917 0.2798146997046407
Ni 5.438479145607299 1.1844424112672707 6.502543117102992 0.7285354504867969 0.45943093811080876 -0.16076619557920055
Ni 5.319614346840597 4.021053299279542 8.969176896637663 0.3539221203430163 -1.5944482853152089 -0.5201207997916978
Ni 0.9665862237797298 5.5081964240946055 5.103067477147226 0.060396755920502435 -1.734064843399988 0.6182837187173803
Ni 0.47901606817874975 8.475418404870258 9.13905744450273 0.36290529767823304 -0.3983361276820172 2.339315897303126
Ni 6.807646231809857 1.7190637126808437 9.01268033181413 1.3924832469001953 0.9430598136240597 -1.2566405540355519
Ni 3.3603105182526454 8.731683690980324 9.645896286745689 -1.3070516594982522 0.07352326600013143 1.5496876932700667
Ni 8.821109454948797 6.260463176051942 2.223747540611774 1.2006403845208484 0.595067171391601 2.4250678441589657
Ni 7.8962949584162265 5.1353294707445 4.240468940151041 -0.7375214560354911 0.03615639531589903 -0.7926199396715317
Ni 3.3181264795937464 2.168519801380588 12.068651885843002 -0.09135078109985557 0.10476576895418087 -0.31832159753058725
Ni 1.0944302488465447 2.4572110894050416 2.33577713241941 -0.6598114056475217 0.0993505114758805 0.36073785771326905
Ni 5.7638569868007865 2.5279545651837907 2.004209122564334 0.13874006901709654 0.014892600841116287 -1.055196421121015
Ni 3.6574129590765927 2.562277199592182 4.738805921083922 0.3370220021535679 -2.026403129492936 -1.2549420832872065
Ni 3.687841541262997 4.669655799849654 5.2479647022036024 -0.5146134968202234 2.8526320154681644 0.10401912059614345
Ni 5.082471147759446 8.272203853737391 2.8495354763989447 -0.23879377720758876 -0.7773563286442419 0.2024746310615803
Ni 8.07423023877153 3.7277990982985005 2.008299251768794 1.8639302356352738 -0.8550177851824629 1.4678610496105624
Ni 0.5334265145671089 5.767806013877673 7.657256043088654 0.1317412691017602 -0.30632328751813054 -0.9534079896276031
Ni 0.7090601809973217 5.955499330977487 9.947049458128086 0.818835421724635 0.7792915979937417 1.0089569305375012
Ni 3.8890861600953284 8.456699466777266 7.457323490793236 0.1049316051080838 -0.7672493221172271 -1.5193412197677254
Ni 7.227681610663006 0.42124574190850145 11.103667262835986 -0.6783094644517093 -0.5597319864254167 -0.3411658491186124
Ni 6.20342676409459 6.9730930576273495 6.807947677264218 0.723834702577018 -0.5738838524457666 2.0649061706641403
Ni 7.963895704989936 4.1774109490871245 8.725299277831427 -0.7303740463574325 0.47227077018795444 1.3198233573416238
Ni 0.6091644559133997 7.3704696337864375 0.31487672766026326 1.9252366478542393 0.059805916414038936 -0.9361157782060588
Ni 2.013444898187308 1.008779424914445 8.001254783883896 -0.4228778215771233 0.5337731004678098 -1.0131447433666034
P 2.213846569244527 6.985608999592609 8.691210286556354 0.5149449120177132 0.8346405070776916 -0.5010038764565887
P 8.372487151548349 6.998161591461135 6.347387584122527 -0.6170637302673502 -1.5322504716302254 0.9923527463219166
P 5.564069201623269 3.9591607751394764 3.731739879147152 0.03486878685272705 -0.7129841330157591 1.5261975805679262
P 1.676449037658572 0.906499623623085 10.738010261705837 0.47693320866063027 -1.0845018549533516 0.7220889235305047
P 4.36069711531923 6.02757136574962 1.216665006218534 0.37577624010363025 1.2568228452496872 0.11182678956602031
P 8.133905443764016 0.266170838715221 7.765034246117461 -0.7132127040867975 -0.641398964578605 0.3228667936991085
P 1.2608941094796624 8.034181056977861 2.6113569175505353 0.6792278625009205 -0.44450594136986027 -0.020831077812738318
P 4.505079409234723 0.16967072716887252 4.719266941405359 -0.7476438891814736 0.6775520174603944 0.6745834217503737
Ni 2.828767808713397 4.61298588692496 8.508026740053394 0.8200448686517038 2.393571059102265 1.462606228969526
Ni 0.7058267432816995 3.241473206913393 4.850365477882175 1.1183756248826608 -1.6635317703764319 -2.0128102212998495
Ni 3.2688964970320034 7.987883066677381 1.256868117605918 -1.1434258829830695 -0.4184701794277309 0.07847829601256162
Ni 5.593379961760067 8.311510874989928 0.228887808370537 -1.0523157571391102 -0.7578673666816947 0.4072308590684857
Ni 8.41201407222048 4.158013987783717 6.256586532534005 -0.6334159463731285 2.545188498302662 0.8463338842552198
Ni 4.026358372777262 3.2370019187149692 6.992512008872716 0.6699358956760333 -1.148775577330757 0.9880741735512208
Ni 0.7376333618308961 0.46804033839823395 1.2199561675317996 0.36512467392705505 -0.6781955645816642 0.8117864852976535
Ni 6.16088538887885 0.9620049858715088 3.662998404334296 -0.18151088432571966 -0.6389407328460995 0.21938143411924796
Ni 1.9577187202717077 5.960318793256936 1.483906938356697 1.2627075861652381 -0.6819234070552127 1.5461789087858597
Ni 4.569793975926252 7.335065827231706 5.386746890900086 -0.8406304061125394 -0.18099666369346248 -0.8664504524994369
Ni 8.281146430134239 5.95180685322346 11.592106937391945 -1.2125011405141763 -0.661827407636286 0.8462297545771877
Ni 0.0990802647362586 7.507778496371638 4.5189055852417335 -0.6800593572632804 0.877215918546057 -1.5196818909365957
Ni 4.988482470834384 1.2730618773638975 10.279529134326896 -0.960055576851108 0.777136499323952 1.4591735491388935
Ni 3.0171757989268935 0.8232777720299241 2.906488509826366 -0.6705812425695161 0.2977034070596034 0.4828138358111233
Ni 6.115686895676342 4.720709115098868 5.887484440496875 -1.2026954672776642 -0.2513793271820832 -0.5608313901371825
Ni 5.484914573045027 1.5118634845678247 13.105194528728846 -1.1357732515338181 -1.4937618286367242 -0.8056441198453416
Ni 2.5709907140936186 6.592044013373161 3.92306336916544 -1.1709803955625704 -0.866666939385617 -1.4536626466229932
Ni 4.330955718819059 4.419446910254256 11.253392196400046 0.9917395382179501 -0.5520071069773332 -1.462321607849572
Ni 2.7459756772360273 2.5035457296087893 9.853111174820015 0.37258910062490025 0.6935383655863218 -1.5425616237482465
Ni 0.640380094772436 4.892267312285927 13.18907516233321 -0.9208303128018981 -0.35769032913619686 0.780565579610159
Ni 0.09841415274440327 0.901833174689771 12.47476671518823 1.4455256193381558 -0.02237065438571631 -2.241737904346636
Ni 7.346848771131651 8.640159720049885 2.102572881691747 1.3885805694116793 0.675847633174778 0.15296084060216883
Ni 3.881847804200339 6.749739384649943 10.892040642656044 -2.0646876268954313 0.2290780925817216 1.9061446642197948
Ni 5.800479402639105 5.977800797114706 12.64932745570034 0.165687801250534 -1.3059887654513764 1.6986761794880485
P 4.420262370601919 0.6345463464201073 1.3517492196755012 0.7685785824516119 0.7733718900751971 -0.13763655154027263
P 2.0058033933563952 6.332242011597948 12.170140965471404 0.31746542017787904 0.554306187424155 0.17152831919171105
P 8.69610579738508 8.053742942845965 11.189680004562835 0.07988443233146887 -0.5218555230946175 -0.8739146220869659
P 6.451509959300574 5.008823167146886 10.548175674007721 0.5425320776073624 0.12186334786641594 -0.10283409914910677
P 2.037102410745361 1.576174902323431 5.743539196677826 -0.635612439803815 0.06762695512035449 0.8790737976904022
P 1.672738234952913 4.367074198487473 2.9970339283396092 -0.2263002727262683 1.1550372419697528 1.2168907849414397
P 0.8405783588665299 3.882260115612079 9.363289798910934 1.0800507611605337 -0.9312689916367186 -0.18440697492659208
P 6.699419067466044 3.134620413942047 7.2198284526407335 -0.7089894100340692 -0.7965809812018088 -0.08569486836565887
