# total energy = -340895.05934268184 ev
CRYSTAL
PRIMVEC
9.04103069789019 0.00000000000000 0.00000000000000

0.00000000000000 9.04103069789019 0.00000000000000

0.00000000000000 0.00000000000000 13.23246230775698

PRIMCOORD
 96 1
Ni 6.267296731222452 1.896681667579671 11.465082022831025 0.43371116474720145 0.4705543017174799 -0.9703585014390126
Ni 4.89247239699375 0.21177258272979332 6.16540160286249 -1.9527183982142757 0.8777141983387141 -2.155934792537887
Ni 2.778344899916597 1.4056813720265036 4.862652365417867 0.7104207431639572 0.3279660625988868 0.25894634089606366
Ni 3.3869237997945216 4.1465602406995945 4.965957894567885 -0.524506073343587 1.544191703152502 -0.303716960243535
Ni 5.230932422484071 4.4989344124456485 2.8289023436216367 0.0450315863183418 0.5163718742722269 -1.6472109217292212
Ni 7.3770018810436815 6.398039076254388 2.8537660821647752 -0.3120385927353529 -0.30276308097069793 -1.1820145418895451
Ni 4.8612356359063185 4.51575072955784 11.688617890611717 0.47951845288930317 -0.46603764479404897 -0.45509425840866785
Ni 5.617987988016344 7.729258519390564 12.34227446548409 0.059400196335188025 0.6511670997089625 1.2511826162447743
Ni 1.7977818326924333 6.51862834380407 0.3533487948561046 -0.11147969063924672 0.08367115306741074 -0.5735231266722381
Ni 2.6199098778337784 1.6769574983444087 0.19972179290246 0.6723792150102033 -0.5925243503650892 -0.16884717281512213
Ni 0.8782990648114171 9.190207712119662 4.451492507921716 -0.8011367188932913 -0.2501729655788078 0.1346579285279229
Ni 8.809697852818157 2.352195917613832 1.3406203068637337 -1.5469288995780068 0.0035036422778842885 0.043716209941027935
Ni 6.823039847657556 0.8535212160599807 4.832137982683805 0.052380827594561405 0.8606276751700727 -1.1469565218441473
Ni 0.8199102803092909 7.459383752832008 2.422360644609845 -0.42209363511293113 0.48709626523656113 0.4679045227994587
Ni 7.581076026127759 3.978559808130379 3.771145906303697 1.0781517443656077 -0.18695519526974252 -0.7888874692122929
Ni 7.363178145095003 3.8744704216181964 12.488387466818413 0.9603224573592493 -0.5576463075409815 0.31733043726191157
Ni 8.167847959944067 9.004116177108783 6.717380034111833 -0.6360940074259239 -0.7486684737912461 0.22322754733821554
Ni 6.677217063408882 0.8267335461827161 0.35018353000611635 0.739467009797636 -1.4159247657525873 0.9243676365311951
Ni 2.089969863032112 6.464436405755427 9.268148629625458 -0.6096535538462081 -0.6282513714530534 -1.1934189270717446
Ni 9.061282614259529 4.7944766651770605 1.4444420788670342 -0.26576850602421975 0.2870819227900153 0.2023741009279741
Ni 6.46665145827827 2.075576542148989 7.00588746085131 -0.19745995145580833 0.16721143698391203 -0.21924619409296434
Ni 3.319938803297626 4.488256955182477 0.6141644486477702 1.1307138347330399 -0.4456667944471809 -0.33931748305596404
Ni 5.955589115589644 5.7044292825914305 4.843504366486733 0.4557442332878409 0.585979607268036 -0.26221421301405806
Ni 5.190302030493647 2.7289718312339746 9.183897976790307 0.1567143941073301 0.5923690557341476 0.2615997193585108
P 0.041157484080553204 5.564220978410858 12.523175544766955 -0.018142732347297786 -0.16339129190687346 -0.9642539312031715
P 4.005465915509885 6.182555150419995 12.705360450409996 -0.648187191145032 0.4254728359978091 -0.823238435888337
P 2.3501707267358047 8.607178765015421 1.2199071771933863 0.6285393350071175 -0.13037189955805933 0.20480585029791823
P 6.482021210477585 7.902692611413772 5.451853624184738 0.45704495437713544 -2.0796578750520185 1.2759366832610026
P 4.758583773276308 0.8270743930403127 12.553452148393463 -1.0190726788152644 0.27799050201170833 0.48346946711725125
P 4.066022739175185 6.090689237421621 8.164826447482298 -0.45548866563360907 0.4275562008893992 0.3014690447496227
P 4.68270240256522 1.0603411221693124 3.8975295704325212 -0.021275878659640778 0.9564992269584172 -0.18089741911143686
P 0.3329314352139208 5.703886820749102 3.5653548694886488 -0.6402823344756586 -1.0546012107391773 0.48108836847958436
Ni 1.6369238143805465 1.3153885983708824 2.3686903740329086 0.018708117932464557 -1.104847251378923 1.4305175759650977
Ni 1.8507622726265418 6.53334714179259 5.010247191684816 0.46787392667183936 -0.11609507792407103 -1.3777158587830336
Ni 5.966546844804685 5.721227517642211 9.094870043330383 0.5119603754680925 0.4831681338267485 0.8875471252687361
Ni 8.321988492441784 2.3947339670831123 10.253742126334151 0.7956594978288039 -0.32975709306103856 0.21998255803835662
Ni 2.322107367425997 5.318567133112281 7.022296027478684 -0.5490318263990931 -0.653659527113513 0.575148578090803
Ni 0.5680913561726478 9.224473218493427 9.096483867311312 -0.07632088334992662 -0.6692568673311378 0.9177241630727486
Ni 1.2889707066494718 0.8470604955178452 11.501629485354854 -0.4527450414502009 1.238441514529022 -0.3833324551843334
Ni 3.988685762520516 6.941169954855349 1.504769260352415 0.8233487362139561 0.22192451225607587 0.32310976294785
Ni 5.929469577881514 7.913261576308478 7.677778890553566 -0.03631503238095036 -0.861708052718445 1.2135658343332647
Ni 5.3880655361453 3.202070885990293 4.725616558911847 0.4692834054248563 -2.1349491914251555 0.6676548129513404
Ni 0.8506054836574636 7.400996776536023 7.057375226615943 -0.11229293056916145 0.05104102573721532 0.38325789319265613
Ni 5.244168491436892 4.49793085803734 7.248901325183887 -0.42896336564957094 -0.6249487894423817 -1.1363862025274687
Ni 8.124451012557767 7.290198945240375 8.970180668355766 0.3141970338392524 -0.2266337448062871 0.050885988216589774
Ni 4.712411229463425 0.24816363542241787 10.351067013672493 -0.8760504374830461 -0.5598104050718359 -0.1719476661173168
Ni 8.476346009676432 7.3739369716345236 4.764043651719346 -0.17748479388546207 -0.2519434272156693 0.6492778531060496
Ni 7.326923611966032 6.0760789318015656 6.856149006204092 0.5421052744825888 0.0010063297773272991 0.08781320026024232
Ni 2.317288498059977 5.312518683570316 2.7126021410386336 -0.34219994681008165 -0.3559476354134773 -0.15379362091610932
Ni 2.368307034330996 5.159426910634435 11.332505252668948 0.13195672754667598 0.01327897649709326 1.2278840507281499
Ni 1.159430818701365 3.225749345407943 3.9675026275775775 -0.17944320316341356 0.31389390077653684 -0.27067957017259187
Ni 3.4856337730369447 2.8563780359355886 2.8447548868606245 0.4943812289337486 -0.32184503730281344 -0.30456542428675937
Ni 1.0343119947682378 3.0847002253717615 8.411122205960963 0.15938139941653195 0.9554826127684447 -0.17660547660430229
Ni 3.7907052721319308 2.503280581733096 6.852245089145466 1.0728347030280685 -0.3436924721952081 0.770430548058686
Ni 4.1494081653718204 6.836366326917433 5.955627087918607 0.18959931776080893 0.053726800099494564 0.3445849021024904
Ni 0.77237073265374 7.084217142677441 11.009302870597192 -0.8048663611390525 0.3343390560047661 1.2997450985345098
P 0.16919656093155042 5.506421669110729 8.116276112593873 0.5342143017702864 0.1658700924646692 0.22347694434486032
P 8.418772726143938 1.707715084804449 7.991586737619256 -0.2334425401980044 -0.047081526868835044 1.1405583316272874
P 1.8226898722860287 3.1228804980410003 10.641228949031072 -0.3339384781322378 -0.3354795973671126 -1.1574011142162388
P 4.024479203083508 6.018279622501437 3.825531322409437 -0.2614871050400464 1.0450796444019872 -0.10028973546069823
P 6.555958759586994 3.9065208754691203 10.372225737832528 0.8950346918950327 0.5267668443533057 0.2864219206085132
P 6.350998593493779 7.701122831835113 10.210327096886438 -0.19772528930205302 0.2307390252239123 -0.6634063220876316
P 2.5988894814435395 8.397743288722994 5.897165975170838 -1.026234486671026 0.998725739727796 0.1506368204546825
P 6.92486897649337 3.785868320704499 1.4826178310209202 0.11778789224546167 0.3302088358864765 0.10088160340842625
Ni 5.160701695963908 2.7341704238896254 0.43411503445736244 -0.559620657658533 1.0306223313260767 0.07220788962281759
Ni 1.3836845443200725 0.9900832725570331 7.043957432945942 1.4898635220235825 0.14437978380137717 -0.8342970076953438
Ni 6.8417819043100145 0.6204967865538878 9.241379945912675 0.421183721704152 0.00520596968097168 -0.4457567830578259
Ni 2.897324864000704 1.6272860756485057 9.236562884752795 -0.5553392566743597 -0.8845271074954895 -0.2286646591933868
Ni 6.262369369487966 2.0782526872378106 2.6029706027039925 0.6721069351854231 -0.4590794683086609 0.44599409587961253
Ni 4.160212197064868 6.810988153727152 10.544075841276136 0.19022152472584014 -0.14649168793805736 -0.5964450255757341
Ni 8.194419549187472 7.1773849640974055 0.3889776886602573 -1.116800309975741 -0.5013046955264592 0.0996266479554026
Ni 7.576962357156766 3.9243588290510307 8.358575735500718 0.3512646281155112 -0.027714178085816787 -0.3813989856070464
Ni 3.04146601653816 8.334410868631112 12.206404047836008 0.9504018558114278 -0.3018678228499382 2.139207709591193
Ni 0.06154048780605619 4.680424062827439 10.41102351289895 -0.00597318686429939 0.5370831386776492 -0.5124931080431109
Ni 8.716439621091139 2.2395627570849714 5.852214874606265 0.32843760291866664 1.190084720492189 -0.5330202814621853
Ni 3.74314945062111 2.431422469685947 11.408671415847257 -0.03173666898164857 0.24020171329870887 -0.2090088326356723
Ni 0.8670692005721413 3.4293623979260417 12.595239792314189 -0.016248600648378467 -0.14237123801178062 -0.19891108208003808
Ni 3.2402782817516487 8.2188845782765 8.120537150365365 0.5343117465800992 0.8039163385209576 -0.2553740501637731
Ni 5.485790037040826 8.08986907010931 3.448194864885555 0.4051261540206571 -0.6977475185716628 0.5834532413017565
Ni 3.058092472005536 8.207854520815815 3.405268051095939 -0.43291643676004793 0.28411152730778166 0.5978128524575381
Ni 3.2712709350100315 4.218346024501099 9.25123828579393 0.3822186532948643 -0.051796415846001115 -0.3514080956719109
Ni 7.04202265237497 6.01143556225739 11.321906452372913 0.8551512254365337 -0.4309647123503158 0.502137990061032
Ni 0.35878064610395655 0.059140094153751446 0.5774949322094168 0.29613426280027066 0.6925448913248008 -0.7063272898208739
Ni 4.481964397811464 0.603551182702608 1.6804437197844413 -0.47564997107283247 -0.6658051613371114 -0.3585331367524664
Ni 6.036397848035218 5.506204684373798 0.5330329514060109 -0.3578983313819449 1.2855515806429474 0.16362963316992465
Ni 8.059635863430188 8.618353478967395 11.431193527437676 -0.6873839159491516 -0.5517633663976433 -0.38607273693363187
Ni 0.10302344899200666 4.795471178554663 5.626058916127125 0.07852766119325831 0.14864344417373757 0.8056119810558254
Ni 7.830201627217241 9.025118491437611 2.4725121460362094 0.3531721295508692 -0.10304415827738382 0.5742823734357657
P 8.51340519453819 1.770722027790934 3.642209055103646 0.0713473413947352 -0.26492287019447275 -0.5563823532268933
P 1.8231148007291862 3.285826994445853 1.4540752970837223 -0.8904522147306728 0.18032740554057974 0.7654914588858559
P 4.807043697857677 0.9394082954528219 8.137593958894323 0.08642377611188341 -0.4522475329884921 0.7380942978198257
P 8.36011451892679 1.4431202801778933 12.33646560325582 0.12915731042466788 1.5752532004439967 0.5131338269509034
P 6.254991888432295 7.799471163849316 1.394674821245653 0.1500673211044577 -0.4193168436987424 -0.2594937287591015
P 1.9711164733778817 3.2896332683728597 6.262844927703075 -2.574449194939992 -0.8550026156738114 -0.38799206544353176
P 6.980543643577711 3.997573095704002 5.909326161469706 0.6033098710163673 0.24540948275189348 0.8547064245896313
P 2.385774305653982 8.486761277049144 10.26229042086618 0.029042924199569334 0.04620375224957204 -2.1657389231125026
