# total energy = -381171.870131017 ev
CRYSTAL
PRIMVEC
9.20970967756831 0.00000000000000 0.00000000000000

0.00000000000000 9.20970967756831 0.00000000000000

0.00000000000000 0.00000000000000 13.47934104483672

PRIMCOORD
 96 1
Ni 7.727222683345685 2.6592299822826355 6.23309004396301 -1.2417772637704743 -0.44058963703458953 -0.6850688946627298
Ni 0.656732422154026 2.8226286508021388 1.6270241447035052 0.07391304523938239 -0.46730262754940166 -1.1393270303233474
Ni 7.724625545225829 3.6146360511330915 2.276607069260209 -1.6657591170450536 1.402144424139043 -2.2491635073867458
Ni 7.890943691702759 4.403337165701531 7.865883150788069 0.5386152590514595 -0.38955092529021945 -0.8179841294679332
Ni 3.112135873489018 7.4942446584590945 0.4348760426345957 1.0642793572588896 -2.452030231680422 -0.8295319822065326
Ni 1.6806707033849453 5.659421835038107 12.914314428565389 0.315507782230876 -1.2693857695163624 -0.8094485811930964
Ni 5.173554393012691 8.449190241827306 11.553102765574408 0.31945262581123696 -0.9956887526736852 1.3376061352463415
Ni 2.801151607910273 3.3957212528742367 12.087275134687232 0.3985654700840039 0.2816463535967408 -0.3538552716608228
Ni 4.116482339392379 0.9204257496772634 6.668041606216693 0.21320718698773602 -0.15235457447673761 -2.905659989728422
Ni 2.7956534112522786 5.775160256145345 10.281623145595445 -0.6420682227314877 -0.2920750051292325 0.9398775592413361
Ni 0.6670675583175131 3.4292998542394777 5.922243003057975 0.5870545854997696 -0.2806063423680006 -3.026647619858103
Ni 5.952935281420509 8.76022976566392 0.3545590857925408 -0.30728488010045146 1.3666413461364268 0.04407770704550473
Ni 2.611956542675454 0.5065920516392951 3.7978042823762994 -1.215485934174113 1.5025195202246961 -0.5549906150856894
Ni 7.331941945387332 5.969245677201597 9.336370781628473 -0.7772671113645453 1.366793298333259 1.2031065866731536
Ni 4.232174711951391 9.023231443992826 1.874275377597734 -0.4962025984132036 -0.11846949169351854 -1.8522003487928556
Ni 7.518788534662706 7.055374364751513 6.666639888408743 0.49247475593965506 0.8734435959878184 0.23057755994538354
Ni 7.705266735552285 2.077553930821508 0.04064336963383054 0.6743499655833289 -0.22445370643583282 -0.27500596546208766
Ni 0.6340516702115742 3.4261869723795075 12.45051713473297 -1.201549269488363 -0.0254804036592916 0.9069885218227992
Ni 6.8853539149973395 4.4762043884118405 0.23705976820120211 -0.8985565890053622 -0.9802019698919956 0.8889105812751659
Ni 0.07596629000581252 0.47548257342984673 2.709293963912216 0.4401263242449258 -0.09614640271628602 -0.5487482337204034
Ni 6.3887571612356355 8.27577140921417 2.9741900795150755 0.8012945846273942 0.6732585322913631 0.009033828067494119
Ni 0.7254782997982507 0.36737715967628815 9.23460256908156 0.5803874578922391 -0.26561218295201355 -0.15942639372185446
Ni 1.997705748200377 5.00448254335194 1.8624537942975632 0.3226011987425476 0.7399544909570159 0.2480196666812309
Ni 8.330532342762641 0.3777804476911473 4.8221533166573805 -0.6140064314982651 -0.7334884236166981 1.1948294342660262
P 6.155613361575436 8.278736935719822 5.293269566744589 -0.12789438455184426 -0.7371278201414982 -0.26101016540362787
Ni 0.8966895650095081 8.032837688201463 6.87054101800451 -1.1337896454448861 0.6886409282847044 -0.7999959204206287
P 2.9329978111864095 2.398374166300986 4.94159404104186 0.2199398777258793 -0.4993293169676432 0.7572235624501088
Ni 4.7028092942241715 1.3898464922188485 3.248211175434084 0.8105922078792364 1.7165939403087338 0.40409822697677494
P 5.85337832015933 1.3645658392436464 11.87227998885324 2.3050520910242493 -0.2361188014785869 2.190929820555833
P 8.78801545966253 0.6071528712517661 7.077637916847052 -0.4596196570828472 -0.38917785822151685 0.5946907618887888
P 2.1136928314680263 1.908288677258214 0.2064936628608019 -0.5331645203495334 -0.05938811215032998 -0.6906175923951009
Ni 0.33648779352735253 2.4567637254495405 7.867298683160488 -0.5892122552727207 -0.8097612273375087 2.426588137458234
Ni 6.0404183133372475 6.534362670721226 13.533662797328907 -2.125782951544855 1.409156079570186 -0.10592533647992079
Ni 0.6707855181011521 4.937454276556486 9.977852845581538 -0.8003481615537249 -0.6173817757284012 1.4080376496950264
Ni 1.8506727337198294 9.051707866214803 1.3030947112479143 -0.13506673393056737 1.824677460782238 0.8082879852260917
Ni 1.7355329437395097 1.3075116879936002 11.431317249114342 0.2279000131132204 -0.49557499213153366 0.5652668002007168
Ni 1.5352493880922522 1.0380632129132754 6.2564900742287275 0.8477904141960882 0.3951168494137712 -0.8740249224125851
Ni 4.6767826547677345 6.341760012917799 2.0366075617403605 -0.17048342286696447 -0.08425119394059684 0.2964245403471798
Ni 4.019504096831767 3.9988006695500715 3.9649080170859397 -1.1031431242036227 0.21958223727614443 -0.8820110259418552
Ni 6.947261583230239 1.6013106353749935 9.303037158539787 1.0998171451541834 -0.7194034062785416 0.27294265517515576
Ni 8.62349320656635 1.6199879265348152 11.212034983440654 -0.7780572113660085 -0.8903054047401634 -0.23911542221306561
Ni 2.510115573422344 7.6441050538006206 8.536965221539786 0.36102376438480405 -0.8996451940838506 0.2499719053115953
Ni 6.355583787094769 3.775225758210906 9.810143111977267 -1.3919795677908995 1.1666313745652552 -0.506330945096457
Ni 5.886883243847413 1.2613526232534493 5.153771936695485 0.8434285376829667 -0.7860631123896205 -0.3822734177921997
Ni 4.90347044796687 6.500424890679834 9.561961698408902 0.7344381891244771 0.22733848418279556 0.19496161051398683
Ni 5.533165925516415 2.1978511582029614 0.6897188391891013 -0.9703821555880966 -0.383837676955526 -0.22078679910720686
Ni 8.140176854112568 6.1985029793916535 12.636396704495631 2.3172080096604932 -0.4030060223538608 -0.18737068554060635
Ni 0.16234507773612908 5.839637433369167 5.754950469300614 -1.710341531641119 -0.8680213965309824 2.010617841634221
Ni 5.1812721296951025 8.754455277716579 9.370608798204287 0.5343909365574667 1.054082619231546 -2.4323777475568176
Ni 7.2488335255519125 6.2822929177407945 1.9480884374885732 0.5645569186178858 0.3527954629377408 -0.06380526738141915
Ni 3.121907375422238 8.654668073714278 10.659179797342224 -1.5533106347346346 -1.0841655546598554 -0.371882818586495
Ni 5.812855597721848 5.969687743264551 4.035471891414064 0.22761719176547895 -0.32581662035605174 0.4040128663518204
Ni 5.846277634023126 5.751012397456463 7.3361848586207286 -0.016185608620926963 -1.0034347151676912 0.6456759946874042
Ni 5.028888273910878 3.553511208220007 12.031430218313558 1.847011605503064 -0.2864250059323067 -0.8819783729317069
Ni 1.496881737711672 3.4511821243557184 3.7060774162551997 1.0374807490088067 -0.197509316636505 0.3342071584125922
Ni 3.061289066539622 3.0921876423982027 7.16355529812416 -0.6820398780284189 -0.8279965193986127 -0.9830744063437844
P 9.09495666270717 4.96730294551555 1.049761386104205 -0.17607608646339354 -0.2329116073951989 -1.4574902478991996
Ni 4.002226681537968 4.968426530092225 0.24943945990585303 -0.14225399570762598 -0.40765097732503985 -0.6037572429664312
P 7.84154280916761 8.80206947658062 1.2403461965244371 0.7940199053428519 -0.36980665278375663 0.9112794358886693
Ni 8.96342358955896 5.294496300069287 3.171716248094655 2.469925623903604 -0.866946675409565 0.8378294463286344
P 4.14842161244083 3.6113942333380926 9.729860231060897 0.25627907847654574 1.2171584367805297 0.4557010387547313
P 9.030875502998079 7.130295352712631 10.53515632143845 -0.2290616375214894 0.2206901256283425 0.6737069326826913
P 8.51944190699847 3.246818667335778 9.820670731072331 0.25408849858313015 -0.33618536518488557 -1.0695694020132354
Ni 7.188159958411428 1.4212147632693182 2.5280772701427585 -1.757498906053212 -1.3449283799393676 -0.6679746581846044
Ni 7.433828963188666 8.343361468297962 11.859784254807064 0.8830142703953888 0.24172971990746112 -0.28678855991931257
Ni 0.004780760276658457 0.17111916811480857 13.20798812389561 0.4457673245807871 0.7930179464408988 -0.13406786035240784
Ni 1.3920660322432654 7.846497632956557 12.134413191562635 -0.16555153278298584 0.3624070178855759 -1.262943356325128
Ni 6.172936825417461 3.3321466271956135 4.016331351859105 1.3979702381566954 0.2453187228103001 -0.26274154627243784
Ni 6.697835016917888 0.1628608214762425 7.158608763073893 -0.6169876256137761 0.18613989845729878 0.8918763487717092
Ni 2.24577848719493 2.779895598049885 9.444273581769846 -0.995052404641267 0.19408974943199475 0.5104999888724822
Ni 5.2039464348408035 3.285913884778304 6.197760676794276 0.23792680122160315 0.7143720145022213 0.0818731806267235
Ni 3.5854136424298795 5.226399706955027 8.218744887093058 0.10054941687998813 -0.7683734084193412 -1.4070940548348345
Ni 3.4071689219628256 2.750599511669514 1.7927252406342296 -0.7290093047994218 0.4014623320158247 -0.24789085441285047
Ni 3.6334883267761655 0.41504385388530596 13.04490166453307 -0.11742768069256553 1.0412451011472454 -0.5435767168217929
Ni 4.999896107948788 2.1839260772198994 8.28585880418821 0.5179523313854693 0.41285334746158575 0.5310706139349821
Ni 4.235527046262129 5.5556376170499275 5.727654731855112 -1.3417828923318504 0.41899211336947195 0.26450455171013154
Ni 3.1573371284261005 0.6461983562622096 8.548786804839958 -1.4705149422936417 0.1691410499064571 1.3989958512077325
Ni 9.348868357616578 6.528284262355603 8.431718501659999 0.37618684527848756 0.7052096312766629 -0.3503513722726224
Ni 2.791886640007522 8.107463965453945 5.379591254275106 -1.2699789230156708 -0.5203264880446007 1.5857139907660045
Ni 0.8763683406780751 7.981539605479467 4.204448881065473 -0.21200416781857037 -0.16432871611947827 -0.8532797194454337
Ni 7.977303139042821 6.870222362050797 4.268300719004407 -1.4361819733397265 1.7968054169623184 0.6096684662445436
Ni 1.887926009233379 5.748654711787373 4.489200209691734 2.500827198578467 -0.2523689447888621 -2.0277282760622626
Ni 7.739093999077938 8.630704409218295 9.378776889688334 -0.13401155319317565 -1.1779244309805714 -0.2916623430718461
Ni 8.580815412071965 2.530505870576114 3.8765371691594344 1.33603159167037 -0.19624433388115234 2.5246512975812587
Ni 7.582068449632693 3.8756115933401243 11.728846128901912 0.758831530367177 -0.42970770001476316 -0.5614186300992202
Ni 0.4966667475550053 7.1429494937647 0.8195250917788964 -0.8005541069169438 0.1257750242159963 1.3279899523128162
Ni 1.2851320935565358 4.534658415527909 7.643905203101327 0.6225684621356633 2.3295415915251816 1.6406592366536326
Ni 4.276758916342267 1.5228439092005954 10.618647865195095 -1.2525486433543656 0.7791938960736129 -0.5554600985229402
P 3.752127806421541 6.54263298998233 11.967012904202429 0.8489718360986992 0.3987804143082874 0.8862893416022349
Ni 6.220900993248008 5.902714734726966 11.435131910849252 -1.1438609136379592 -0.43025431654685253 -0.9962438538462067
P 5.401457867884951 3.998883556936875 1.9459315234897416 -0.4516003863227964 0.5242803304860261 0.39979368606415017
Ni 4.2665361386364475 8.037230719702071 3.811984472316525 1.057013933945728 -1.2274050542092023 1.1592289114535972
P 2.2752127192199736 6.311266664283594 6.638359633002203 0.4806070579677916 -0.5037436439852551 0.2252317222524379
P 7.108578857369999 4.781386536914308 5.464362947672392 0.2262791896803458 0.3235579062288621 1.1190765076044273
P 2.6249330235650934 7.026372989079778 2.6783585492150563 -0.7518296451280472 0.6089369873951578 -0.03522462753024901
Ni 4.339311264250308 7.777461649458519 6.909146278893929 2.1696580556612504 -0.45543338691564145 1.1022982597048243
