# total energy = -340893.0380201348 ev
CRYSTAL
PRIMVEC
9.02074900823922 0.00000000000000 0.00000000000000

0.00000000000000 9.02074900823922 0.00000000000000

0.00000000000000 0.00000000000000 13.20277800484481

PRIMCOORD
 96 1
Ni 6.263980995172048 2.0657334636129026 11.334809179089126 0.9105988648818769 -0.2891254355826053 -0.06861862960966247
Ni 4.574746529676211 0.3031567010115956 5.840090590473106 -0.5801349755618008 0.11942902739331046 0.13078610427734252
Ni 2.457351236937678 1.6023917155408094 4.660712462835182 1.7092184737802691 -0.9121289283731582 -0.1123284117927872
Ni 3.3770346319117066 4.420744303932757 4.888222967464429 0.2114251553866488 0.7551643659282349 -0.9365952889456386
Ni 5.176006508148472 4.511474996676879 2.720643444275101 -0.7838918157699145 -0.1734281073175852 -0.15767444402775424
Ni 7.235930609450059 6.054636474739272 2.9637995358496063 -0.1261051538619054 -0.1311234330121032 -1.2785131857389271
Ni 5.155646677812075 4.370769354857152 11.49847082278748 -0.4804296518496629 0.5984718261977758 -0.11367849806277841
Ni 5.653628101777727 7.868934603409151 12.652882223610142 -0.3243377218176801 -0.08623685691205793 -1.042747396724385
Ni 1.747670877068359 6.400293532262567 0.55874699291206 -0.8733754617540443 -0.030746537154237374 -1.266254165865916
Ni 2.4912872944146502 1.760579568788069 0.3996588689215254 0.864021274232654 -0.32062170641867366 0.08612655658643877
Ni 0.6694009117443381 -0.09965311551139354 4.734674485392185 0.6176329725072589 0.5449129191347131 0.15849719703936574
Ni 8.63703333335313 2.2893578296028405 1.2358047163487038 -0.12427529974201823 1.0473190752554673 0.567604704305274
Ni 6.715821288357607 0.9774432503767546 4.7888458868703125 -0.0074808817580774385 0.07593341810352085 -1.3835900581756237
Ni 0.658951276183114 7.283902952263067 2.720366507282931 0.6443793873631677 -0.4838240222431925 -0.6220840663000771
Ni 7.558431404468464 3.672897155338007 3.99286311990691 -0.4354664568754113 0.07928073730919895 -0.8435192976245601
Ni 7.378738085770619 4.007666168902049 12.53484933215262 1.4462511846502706 -1.6210982838025694 -0.5124869373955239
Ni 7.877008173702053 9.050156572128493 6.635624124139763 0.998359614637629 -1.847532768113857 -0.38051092657513824
Ni 7.279094893083049 0.4171627301464902 0.5872895446034179 -1.5628941646580117 0.02195902076959444 -0.4331190396891573
Ni 2.208107943984794 6.5141083215201325 9.210944205217555 -1.2381162699791193 0.4607365442961097 0.11483343760282805
Ni -0.21243051864193838 4.871222464029793 1.2659177804288817 -0.2942331891228159 0.5964223998679149 0.2883520477516905
Ni 6.425948542221234 1.8783634875751047 6.903455572339071 -0.9926646211353806 1.4360534181816622 0.21361007885310954
Ni 3.4783105801557177 4.223099694862989 0.6844944288550426 -0.26603127276730315 -0.026399058818819054 -0.44642398432817954
Ni 5.840889828828359 5.4177264964932235 4.844521949270066 0.47027379436258365 1.115144519539873 -0.08828962567602859
Ni 5.240495842253436 2.932726664083211 9.080963331801435 0.5325122314775151 0.6418303956890687 0.4451949970170849
P 0.044976552093151774 5.741887109314861 12.238856007866827 0.781967345053692 -0.24408896416825704 0.43090069188159985
P 3.964050847822527 5.865354099928185 12.558654186505619 -0.11834787851398973 1.1147678529267446 0.4565114504711686
P 2.2275476579302684 8.481641912274362 1.4046307388098367 0.031053269761378777 -1.092738641040847 -1.805174100641988
P 6.357968178280123 7.7325318588293275 5.83400429116962 -0.669695240420137 -0.11956298186801345 -1.3975244088685288
P 4.5509227317504575 0.8974643882830318 12.46729113926146 0.3826182027261281 1.0653610203588426 0.2752229665689002
P 4.249999568174082 6.343471834748624 8.442040824468965 -0.34022919623695597 -1.6385838421818426 -1.7085165626172383
P 4.589477412679905 1.2073370368734697 3.5118461163801706 0.161300985036748 -0.9520473618346507 0.5892677911010045
P 0.15769622243054068 5.2724834179613955 3.6621335977139977 -0.22703252290660256 1.7439209102584612 0.321956108959381
Ni 1.184550625074737 0.937210710146213 2.49375356717228 0.32278066174320535 1.0239156087298624 0.2980577050752286
Ni 1.7246679672952916 6.426516849403864 4.876287614554333 0.8533301130673948 0.4390765428241728 0.08316310308274065
Ni 6.286550908996446 5.578782947900417 8.984859880994238 -0.9457509873029777 0.47735769779255854 0.5278605916381167
Ni 8.582863736024791 2.314958715067925 10.065177556325509 -0.43914339150636633 -0.34778541131765905 -0.05805756626436453
Ni 2.4652443922519653 5.092817161510343 6.974565234084214 -0.8935732768581579 1.172236893677491 0.4790816224622007
Ni 0.4717319466524576 -0.16418214091165265 8.965570813555905 1.093546224543807 1.810063053303173 0.6281631826146215
Ni 1.3549525723740488 1.274523574908688 11.30667436524943 0.6786527067237409 -0.7097517421213906 -0.17866827267060198
Ni 3.860357338865111 6.756568011277193 1.4455064584391313 1.4334928565433376 0.4087850909294831 0.561457967977588
Ni 5.873454732467877 7.825454593563589 7.950290031789687 -0.41455541775435706 0.6070156020027287 0.3469680576226863
Ni 5.041335747363325 2.897130788803005 4.7637203948738716 1.0129835351983911 -0.578327747149733 0.19805156229322018
Ni 0.7353940046960359 7.468756139349224 7.096664679159656 0.5215853001523663 -0.379402781112624 -0.5407860414505331
Ni 4.917715404018181 4.7272152281014606 6.9338221194642005 0.9326373327391551 -0.19632866606484253 1.3464515014521132
Ni 8.464087534855386 6.921223741507704 9.414795089551586 -1.15551958092281 -0.26600607595632253 0.7780957779134277
Ni 4.730561925954718 0.5076065630746192 10.294245944295072 -0.6122159152567457 -1.4506395435259534 0.3015515771611
Ni 8.306305615310006 7.175924587563609 4.869039442788584 -0.9472681952784525 -1.1545245639993922 0.23940672820123934
Ni 7.535428494695396 6.248645721990003 6.971647923880054 -1.0633992686467815 -0.1353670387798056 0.6615420151853831
Ni 2.308986979275858 5.19374130054606 2.7291202420451994 -0.39661374567427177 0.35379870739127456 -0.3718342247367467
Ni 2.2658046541450054 5.079818262301328 11.304760162326353 1.2331658679523794 1.1413743997706796 0.6646335096265135
Ni 1.169900928811419 3.397448586741688 3.9153234683240257 -1.0354454637463328 -0.3433970524419763 -0.44751850294393897
Ni 3.313916451644196 2.764444592782594 2.7051827826829205 0.05741941845973337 0.25116618273001257 -0.4009265141170127
Ni 1.1614304455655717 3.423816235865875 8.272517498115496 -0.21974935898162798 -0.5184112732997588 -1.0071443028087945
Ni 3.789995497206317 2.699423034490723 6.984956234777389 -0.567682608731061 -0.1611364344344257 -0.40075630708773563
Ni 4.187007678391599 6.765444428224918 6.0186048972857185 -0.3737985475519691 1.280608120594743 -0.210949758412127
Ni 0.9157503484402807 7.706497977415573 11.46277030681968 0.14890286848271128 -0.9657603405453691 -0.21339539173914215
P 0.3655063134702182 5.550773522470859 8.09438567105754 0.7693871943958362 -0.7769002149434298 0.011599017691509056
P 8.568908637429129 1.5209704356930815 7.838291119291854 0.5126129214504268 1.5319766491435487 1.9781972592116703
P 1.8683414355131918 3.1726785856375614 10.34126028357165 -0.6072423733015541 -0.001057751840553017 -0.1660598398779721
P 3.9444758226430934 6.3494165082939 3.7561767094654424 -0.12232280400133773 -0.606216246029885 -0.0594773294300266
P 6.852882547609367 3.921346622384997 10.230594637765762 0.981606049328374 -0.12275989153875633 0.5448116176701585
P 6.332222960832148 7.764158604580063 10.19785202537231 1.122870684539537 0.8182985753845585 -0.359729985274045
P 2.468401654377681 8.293577338568909 6.011686884930831 -0.1081043464091106 -0.0477844664731306 -1.4600878334230467
P 6.823592175831661 3.792882136864113 1.525541249176224 0.429593285924086 -0.220249181436182 0.8202395011610132
Ni 5.3447937413892035 2.5969292851410786 0.33087656040048147 -0.7484674135240336 0.5519112048294172 -0.028052278151525882
Ni 1.5439733454661488 1.083698652030465 6.759135316422847 -0.40456205398707096 0.4028918653734997 1.8606250825214405
Ni 6.762305207597065 0.8473929171938688 9.096080302859358 0.6382275088291589 -0.4554475279830285 -0.04898465742881886
Ni 2.745149210820009 1.5197255723406566 9.141458278279924 -0.31849668965587086 -0.3120974709977464 -0.15130890682104264
Ni 6.4082588535683 1.7816700797878458 2.3287324966100806 0.3053627233770741 0.34579923412556574 1.458000868987031
Ni 4.339458335318988 6.931083420088865 10.549191252646999 -0.09597696701795728 -0.5381794570656214 0.634062835928508
Ni 8.12911104406594 7.226909860519444 0.40289370948804387 0.4922029903355072 -0.5967335033504303 0.027913952801448698
Ni 7.665949710972461 3.705245561003191 8.168823087083185 0.6605552257920817 -0.1068301076823773 -0.15377253787018677
Ni 3.17192084272739 8.291863396272092 12.487292845865312 -0.7583900719543842 -0.4682012281042711 0.3868011304592242
Ni 0.16525019758503742 4.6095215168037305 10.29762511684448 -1.1023368262522435 1.1057479088163216 -0.40295974249695765
Ni 8.644042455272219 2.4065193167136645 5.737293743959392 0.510167802344044 -0.7751292390859361 0.7149425422937106
Ni 3.697577924412169 2.632119226719407 11.279344202214348 -0.16239267543903 -0.6212492291036076 0.6676627833711405
Ni 0.9142438833688681 3.505887009636607 12.543048290855657 -0.36039461544123735 -0.24618081370027925 -0.22259916972559732
Ni 3.4142181590037004 8.368927654386333 7.969580001302913 -0.5917321934810971 0.2754659358176417 0.6227245280975534
Ni 5.575715893264008 8.080389979091692 3.724239649951494 -1.0813036597310282 -0.7367526961902666 -0.1783967641767702
Ni 2.9919208185659043 8.5037517679033 3.349122630570599 0.9619877608768143 -0.6938713234457081 1.525669218868282
Ni 3.40731728607178 4.335453122793795 9.03838449477404 -0.011147789086703382 -0.000809126164856671 0.8114982646332735
Ni 7.027452080914622 6.0783339821799975 11.41374885090604 0.33695412503011 0.47497274250014976 -0.5022542039239221
Ni 0.5516206012568744 9.279915047391247 0.12717542049869895 0.8220636988539455 -1.4652979168690765 0.5239386308758912
Ni 4.670943796272286 0.18441477868812833 1.3840075026046657 -0.530556393302725 0.3535449395092556 0.3645713725267464
Ni 6.024083198111281 5.477200294192765 0.4537779500558552 -1.1490200892413953 1.7610064049858383 0.6589827390986392
Ni 7.92613517237818 8.998431597760348 11.117174590389114 -0.11149640280979507 -0.5974133030262744 0.3407179629479164
Ni -0.03382961263959121 4.7560365209347735 6.019700918280789 1.4470122311860112 -0.16020080999403377 -0.5630831622858367
Ni 7.792979897413376 8.620164532852883 2.9369979887018567 0.08412006767937126 0.6112026435008829 -0.634210931470598
P 8.563126337364604 1.5726863893122953 3.675429279562831 -1.109018094927161 0.26857769333824066 -0.13074779484023932
P 1.450743905268246 3.4957747500853875 1.5125892578616473 1.8728658475620066 -0.8741053979415333 -0.10330049726256402
P 4.6872442895899065 1.1597255240176856 8.106848737780076 0.8720626564798917 -1.649206097782379 -0.7465126037905079
P 8.316814787814172 1.7172529116743265 12.33476100219755 -0.19891699561730905 1.041231988521123 -0.7949866401314953
P 6.258388130835066 7.605366361154452 1.5383083151377228 0.34156771254272145 -0.5756962230641569 0.5517854778848303
P 1.9370163971219616 3.244501788623116 6.005825202275717 -1.2390578079567822 -0.47657016889425663 0.37329358289109255
P 6.879042719508149 4.035639511335885 6.173130326467149 -0.45914477432895767 -0.49954143297844933 -0.8798443573078396
P 2.644739254473337 8.45841348377803 10.244365713083239 -1.4317931002434114 0.8758725171442852 -0.057332515172881904
