# total energy = -381170.016720804 ev
CRYSTAL
PRIMVEC
9.22893349293696 0.00000000000000 0.00000000000000

0.00000000000000 9.22893349293696 0.00000000000000

0.00000000000000 0.00000000000000 13.50747704180248

PRIMCOORD
 96 1
Ni 2.066588955150086 8.366877365311717 3.535906246184353 0.0755094431922248 0.26908908575702045 0.9084036570027709
Ni 5.829714315111291 4.491398967770979 0.1090712287933271 -0.5171863997537222 -0.9359239739102269 -0.04851208866777452
Ni 2.4589662958541654 5.688317823509842 11.042078498178553 -1.8374378457716998 -0.7840391399810562 0.8412523559672545
Ni 3.194456929734844 0.42107563260956016 10.929967258659195 0.7882670620194746 -2.204432225917642 0.40323639319711196
Ni 4.738965111443642 6.146774328750595 11.567844384804127 0.5315254420842136 -0.1400212497223653 0.089492130624562
Ni 3.6652248323906704 7.538248333595271 10.102174368326411 -0.1646588457653874 -0.06226491947749277 -0.1515413345468229
Ni 7.1649933432990105 6.059994666161442 12.44326318695137 0.012327925437733606 -0.08760519801449428 -0.21331671598240684
Ni 8.668811156789625 4.1561394970833065 13.265611929356755 -0.015245870415476969 0.2660960645669675 0.8009508281347303
Ni 1.6549785168350526 1.5060050707525128 12.055910077696138 1.3601374835796383 1.1363404368911978 -0.8740418916934496
Ni 2.2943036626609628 5.64140715404896 8.429773470651647 -1.133607868451383 -0.7997838044098226 -0.5167171734267876
Ni 6.683538335540744 5.426456061699287 9.981877064708724 0.19778622444697547 -0.4771358115897395 0.6513905285736782
Ni 4.1127727381227155 5.01651606036486 9.49564885249538 1.917281140452588 -1.1061189190024951 0.23371147758867492
Ni -0.5182120044784702 1.571078281527385 7.59289100362163 -0.7694692125866812 2.7664090425131778 -2.096183383510867
Ni 7.327773274038933 0.9920365299407973 5.700398497585053 -0.9251443667962197 -1.4086004641770322 1.5394403045104454
Ni 5.658545283733961 2.8723394604857497 4.536607821877033 0.6143856692145547 0.6844610858754019 -0.3580739377278607
Ni 4.991450276722177 6.75042041730014 0.2320855304612361 0.9565473065875332 2.6879736839234094 -0.6267377630220046
Ni 5.997487098925842 5.413147939456007 5.195002713189274 0.5939042614317513 -0.5633721542811653 1.0045572588079086
Ni 4.938448511088922 7.142585492531546 4.114958149597895 -0.66696215775969 1.319289853435657 0.4434397048888751
Ni 1.993108185870617 7.95077243633616 12.307270235969504 0.029180221108382 0.15616546358239558 0.21574846535235098
Ni 8.043929292039119 2.256834192267263 4.008479328251265 -0.4407595869535506 1.299716816399736 -1.2797635132062606
Ni 0.19450254418432333 6.935405162268447 4.6915385445948266 2.4255980056308224 -1.4736851124915071 -0.2867857317058351
Ni 0.7481351957985132 1.2555225840639854 3.1559547416719185 1.2481595131477343 -0.2128307774849238 0.7082368481387609
Ni 0.9953866328356035 5.96118047416505 13.331475136847317 0.8909067857695883 -0.451907376040254 -1.0016490840221781
Ni 3.269986522272293 2.4471994055211685 8.182342992302821 3.1450263516100287 2.5108089923815275 -1.2331998065141083
P 0.04355502920591857 0.5284219737140737 12.841936506153623 -2.2219571221752834 -1.8153404996520284 -0.2931546113466564
Ni 7.434348999188305 6.0128994180286695 1.3351018326627047 0.5558141394282493 0.34581157542074 -1.272716376551492
P 7.283714345058754 7.352156116595621 8.210601064075846 0.3690885436708095 -0.5397349744781995 -1.1386839974227099
Ni 6.478314539199682 5.063297524755418 7.719739004304698 0.735985736117255 0.8268158688269504 -0.6023881305330464
P 3.931267301119537 0.1627457836856231 4.229771620873724 -0.10971308565712717 -0.20568105381401997 0.11332728537094677
P 5.226686565112578 2.2645772675530544 1.191851248302119 2.052480286195962 -0.6767524043772346 -0.4381627727606518
P 1.6943860632835994 3.727307868680922 9.380537286664445 -0.4780812062221444 0.8026130463285016 0.32484834290551146
Ni 4.91475783855182 2.0831733488194155 12.40387594415673 1.4211289356613461 -0.25106051039008376 0.248911582367881
Ni 2.056141802321103 1.2791671119331138 6.770880040185803 0.4307500252363485 -1.1395088073168504 -0.3147004558382322
Ni 7.72497734701294 0.540832120718608 9.306502781369307 -2.1166866456705415 -1.2707913916146372 -1.4225235020160274
Ni 1.840664660756543 1.5941598444472482 9.41403646982579 -2.75505299407041 -1.0727064049803203 1.709297663757637
Ni 0.238786659144208 5.056514258563455 6.743607618520675 -0.7703431305512024 -1.1372835175307574 -0.3925190067796079
Ni 1.1947592852777482 7.104977588133928 7.02645412953842 -0.7670181799430275 2.4579252570086183 0.6546098068419243
Ni -0.09373827851941238 4.393046222454313 10.955293298229241 0.6996172247905499 -0.1617154468663473 -0.6190967015369789
Ni 8.981875042182507 1.8424366160066883 10.50964101545751 0.9177264770655936 1.8918945820586837 0.6365910016670004
Ni 3.0639598087085083 1.3382322869379615 2.6414140069773433 0.04212701107703713 -0.5674728067131001 -1.5943562398220348
Ni 3.7013745652803554 0.2362487024057184 13.628369007689264 -0.06306504678128494 -0.4658329849824106 -1.5153315843877
Ni 8.259231083865382 3.5645463958081884 8.731043701804108 0.14491817280335043 0.4670339472690473 0.3461602170094103
Ni 5.365905028385724 0.9990597484062174 10.240289051141652 0.6075583618800763 -0.8473777521387019 -0.2851803348919282
Ni 0.6687414487650437 2.296915450868209 5.476863574099128 -1.02697007928547 0.6922960085387884 -0.7426886020587273
Ni 7.267711374205878 7.691550149533634 10.63079014964597 2.1008627912644076 -1.256862440238371 -2.8796363119711503
Ni 8.790956092912932 7.765252413219371 0.1298104883669043 -0.748064264548344 0.9553000644439936 -1.081535573236176
Ni 3.240656971308948 8.416870498593164 6.023240438121316 -1.0665486129090407 -0.48061297150506266 -0.17635042317070274
Ni 7.627335229583052 7.363526162784055 6.004411567801801 0.15851879430592053 -0.26744512239569423 1.0196686605280505
Ni 3.2949323297782467 2.5000811950176964 0.5017678905997768 -1.8463498035493493 0.5755172742841315 -0.4736337119737521
Ni 6.87277761889612 4.303424048318051 2.914048702972767 0.7843412446025072 -0.6577900043421188 0.24141990197652616
Ni 7.1166060444630075 2.3951943647161187 -0.10157733471458703 0.2813763877648057 -0.6352609700016673 0.28812887599729087
Ni 4.379018243390662 3.7588062190389757 2.433979881040396 0.9137875470225036 -0.6338201237900826 0.4553773368667254
Ni 4.389982216500936 6.650987886752916 7.6100725092945245 -0.8767605761761933 -1.275259968908952 -0.3903366544163084
Ni 2.133286458237591 3.617086714761719 2.2236958604094648 0.5975763109666998 -0.002817671954453212 0.1322014965676304
Ni 1.369416853553802 4.3269301421832616 4.360983984253634 -0.9432089376074143 1.024706222951958 -0.26002414734127477
Ni 8.207696718673654 0.8895233813597271 1.7384256115032295 -0.19878509802513505 0.2119856558758091 -0.4688576307413474
P 1.5965870539826037 7.360148373088465 9.662722083143466 -0.010313209000549979 -0.1672929409541248 -0.35999146646554775
Ni 8.232107248031125 -0.288460471323285 4.081986861438158 -0.46788138287100706 -0.27508284144661016 -2.1599729671630024
P 2.937172718987165 7.239452379539496 0.7079173489803685 -0.4568066131140842 0.6096263001526985 0.8690472666923356
Ni 0.41762308855185487 -0.42590421066620643 10.62225338607105 -0.2344000190152673 1.8746771897391326 0.35598260241647084
P 2.4148243064716364 6.193583479941936 5.675004163906405 0.633018968045026 -0.883580427311504 -1.1242279698983801
P 5.141734231375136 4.0839138627726905 11.401742960863542 0.31392603956605286 -0.48893434688656434 -0.2616143746465301
P 7.048902587613701 8.420506698429401 2.0328479739285665 -1.0524844215064906 -1.8166201376954005 0.39598253984817605
Ni 3.6346770621928504 2.5471856720840624 10.590524312373132 -0.9840519397657053 3.006032000490281 -0.44992402706163803
Ni 3.8274233403141387 4.927539911580213 4.532204697659093 -0.03238381564734423 -0.4276811565030376 0.9184998648965085
Ni 4.568728202359357 8.73055272253688 2.0818397679150094 0.2244673332825876 -1.5440857737022569 -0.050219815387500616
Ni 0.6070977097138904 9.252836532517247 8.246138918668215 1.835026151006414 -3.6444438574161038 0.9135335220301687
Ni 3.2818733887420186 5.136298389487973 0.23376427348207704 -0.16379315533098243 -1.251012152105181 0.02950880809239434
Ni 3.3306483027889904 2.4753845687187943 4.551330739640351 -0.8390049546939743 0.5963624931642568 0.8925309516365725
Ni 3.343070447407198 9.273601633104889 8.388048538977518 0.6987569336727838 -0.9247075363691172 -0.22652601558382923
Ni 0.7047758199847982 2.0493031625275733 0.5685299962224438 0.6535158024467971 1.7303660543921617 1.0530757752335864
Ni 9.133958638886396 6.814838373789802 11.449518381402228 1.3050184311183073 -1.8222395407647067 0.15414997581426354
Ni 8.925209389912231 6.359731971443856 9.014227991791413 0.45277923712224605 -0.9923956837447103 -0.14356397276830116
Ni 4.862060627727182 1.3385737574809584 6.058076893760503 -1.1060988643978371 -0.21812493600432759 -1.0067848625868467
Ni 2.8098318932501503 6.204565910919401 2.9316224383234277 -0.24473996748869464 0.08604916638128406 -1.3684794277864303
Ni 7.505079546256611 3.1597192236851175 6.28506989866429 -0.24607411291908585 1.9740266727737488 0.08540741903222711
Ni 7.002748690707568 3.116850827138631 10.916337969526825 0.13828935463292313 -0.3561641222996576 0.5714909267335577
Ni 0.7725420335825476 5.458969594752737 1.9434426797317752 -1.22290973744201 -0.6827209632558435 1.1796601827247555
Ni 5.212492465244226 5.8508762598434965 2.1827950725053267 -0.1693552227997922 0.25070184149908437 1.4617855328404439
Ni 1.558074714092724 -0.28088905420235105 1.2402939207396888 0.069363478195487 0.1720235136605747 -0.7145597050329952
Ni 6.000689538883137 0.3104724008395448 3.7130436289172506 0.6992184466902346 0.8870987248774077 0.8815106892666689
Ni 5.530558432645331 3.041302776733992 8.985916392203542 0.9006489527580166 0.8077974187429184 -0.5844783401321612
Ni -0.01843756353510703 7.590281061201103 2.340427104086233 0.18187238143019646 0.2758526297330991 0.6511647857161172
Ni 2.3404575595670947 3.7514784457649366 6.402678813925896 0.0834819198747401 0.7103901470363378 0.7241383498603657
Ni 4.675451590446241 3.96128902210247 6.787290929903557 0.08430672976888062 -0.2562394834878619 -0.5044262718745764
Ni 7.275491365226048 0.5341162257418849 11.565210447156256 1.1322968629494436 1.4268840929775684 1.192225678094592
Ni 7.406256125326625 6.619877151605833 3.529990499750274 -1.1868818972841753 0.20047302725051927 0.884360242900322
Ni 5.553843032104274 8.186460942472692 6.428964662589772 0.4364049095292807 0.8873365519198266 -0.35333179505718504
P 8.093793220250241 4.926487813150439 5.007410794480519 0.19182152222310836 0.0365924544120531 -0.3089908070479646
Ni 0.37142950723126666 9.126150961065443 5.7292776765889855 1.1759842765350652 0.1293678837735772 1.4498944378298126
P 1.8796569051933367 3.617972692386792 12.68853224905236 -1.0663809769829247 1.380321671836997 -0.018551537749942244
Ni 6.390058247235406 0.06315174680049572 0.10794991336159444 -1.1839804073666642 -0.815890480163698 1.0976070248767418
P 5.70381320301502 8.165215937338136 11.684237849511337 -3.056707929578594 0.8977585185840989 1.8718479478204537
P 5.316963993534051 1.1218045652131667 7.997871376042369 0.44411410524808026 -0.9734265988413753 1.987505938207106
P 9.366536994401578 3.1705355338578802 2.32201630445855 -2.5527961354465907 0.7247435875445325 0.8272904944705236
Ni 5.565582235636487 8.125706872620048 8.930589858197829 -0.5183912186951007 1.5967591928365727 0.2254402387188182
