# total energy = -381168.1318830752 ev
CRYSTAL
PRIMVEC
9.21752799876828 0.00000000000000 0.00000000000000

0.00000000000000 9.21752799876828 0.00000000000000

0.00000000000000 0.00000000000000 13.49078394820360

PRIMCOORD
 96 1
Ni 2.047341949547635 0.7584061971070936 10.694845762198232 0.8561863515692674 0.9597974380937148 -0.5029067499062565
Ni 2.926869226008758 1.3708399384040348 12.939077790620306 0.3527041887755151 -0.2403382388765732 -1.206564206204451
Ni 4.014436102861076 7.560889106410615 6.38138384293083 2.7116656282237104 0.6388378887196481 0.7065424911554735
Ni 5.536544888496831 1.7807894832599698 0.2716055149777165 0.053575105012978706 0.01966611097035968 0.46250057817506796
Ni 3.6229123958953497 3.7530546696181366 9.814410559257778 0.11277346975000578 -0.34523719097450867 1.3554254228159497
Ni 7.769076187245154 2.9787915595933216 5.217952104269927 0.2878460546495494 0.8064689297394821 1.2046515625627703
Ni 0.8641699535452266 0.6806305418044426 1.3213694671900542 0.5409516204941199 -1.9552794740732324 -0.7262787932421362
Ni 1.784273708733956 7.690220237695013 10.376463137603093 -0.10160151229358631 -1.41181100069453 -1.1745352027933642
Ni 1.1503658931334537 7.830676924924124 12.689012716145657 -0.4933481596835439 -1.1114081924258923 1.084356844735055
Ni 4.790275410124123 6.029857753952587 1.9270771785177683 0.36352776175358037 -0.6094247256648537 -1.4242849647918243
Ni 6.137177429067992 4.499526933600442 3.9384053255537306 0.6769562928579245 1.8433089598404961 0.4332617359146087
Ni 1.4153329446551781 3.876191622282115 3.1661110794475498 0.1664046248119005 -0.18936251915965452 0.03792402873928307
Ni 6.204142767873577 4.2446254223369 1.3472744070633114 -0.5100747284096054 0.03431265723894091 -0.38300772485506296
Ni 7.115470514930607 6.14259733536086 2.617414698752515 0.010474417168762606 1.4016993661818247 -1.4913514194230189
Ni 4.4036554278995625 4.209174810768245 7.744843306898302 1.2278015183166724 0.06178129497285489 0.005146320087629846
Ni 4.33154670863238 5.786441282214408 10.676943479881892 -1.3678366519961087 0.3765527132583386 0.32956220344141307
Ni 8.701917643974893 8.133048703888802 2.262620074448676 1.0876002913730172 -1.1104769388608746 2.489351850949016
Ni 5.188942701064292 2.8658584101031606 4.918901400538787 -1.2770646262178584 0.03906585565321014 0.7961752611229578
Ni 8.369469072095882 7.2704540258290375 5.128359578444392 -1.9611621581062546 0.4268854000746196 -0.08032383386173263
Ni 6.2460456488385026 3.1365403288044393 10.621159002187275 0.8135497478456634 -1.854522826278445 0.6175604673981107
Ni 7.951592453410243 3.0638232527084646 0.4018408857303637 1.2245477872660653 -0.805363098269813 1.8449891757563968
Ni 4.191938033952492 5.048117312726823 5.701865856720858 -0.5927007280419534 1.1803335546426963 -2.0068231504784793
Ni 8.058921346053356 7.896176676823984 0.1794975258404057 -0.7931614139972986 -0.9481189733145219 0.013964946820524335
Ni 2.4728138110654556 7.995117619251946 4.78594962437031 0.9155235558770038 -1.1206497656288186 1.3208764811964864
P 4.003946556328281 3.216778907510924 1.2808123452706361 -0.016783390105925933 -0.7024001868523259 -0.7383534650184832
Ni 3.4119231866372868 8.02597790202154 0.23580279385057942 0.9840614528474021 -0.10826426902574257 2.5129124118777755
P 8.218301617668962 5.426589000456664 0.7513676929485328 -0.6475541855467235 -0.2782445270040434 -0.8898950566756223
Ni 1.188858288846065 2.7175023016274715 9.509585996169745 0.5256962369969462 -0.3248275169699051 0.12641831422695002
P 0.5268609793052822 8.752973529954815 5.006092760396139 0.5290882933976307 1.731384211244031 -0.4714233345859945
P 2.415268785578427 5.694312092763367 4.282946372034124 -0.04069824905031055 -0.6133132620859825 0.410048531022939
P 0.5147380868624598 6.0801670201880835 8.445055564567657 0.42507920010381633 -0.32711425612155276 0.05345529160566278
Ni 6.137933266340127 6.204529904037353 6.307886042237907 0.14612633417883863 -1.356818189398418 0.017424880344666764
Ni 7.2568673899860325 4.33933551954645 7.602609480326902 -0.22281565661177752 -0.9197237100012806 -0.82374828564522
Ni 2.979280088561896 2.056006425594056 3.754741477188876 1.8537784919132527 0.25581756545909495 0.708328893631935
Ni 8.362076614873297 6.532738413170243 11.664036539448249 0.22213225739150774 -1.0800052526345787 0.9398377071423363
Ni 2.174267306099995 6.3376125690992975 6.6052628429371 -1.4198145877252968 -0.6406975676362062 -0.2559767167447785
Ni 3.282029786162642 6.505482183734852 8.607362401230853 1.0430078494746229 -0.49776788601779437 0.523240576367602
Ni 0.9607797832155928 4.408301061864878 5.800375418852041 -0.7883051143462617 0.23193381686296186 -1.1322793794479467
Ni 6.608294487800577 0.941137231667802 4.914341489581164 0.3391688732932417 0.5559815182440488 -1.472639187725496
Ni 1.9380497235025127 0.8629689096847494 6.11658639391895 2.3607491274762373 -2.917227382851047 1.684624586490989
Ni 6.463293559410949 0.35331889811763467 10.1387827333582 0.3718290825304241 0.5385553523478015 0.6936792620395602
Ni 3.076921359582895 1.7689633952093757 8.344684061839263 0.5147903887177199 0.4786121390249499 -0.500870436202518
Ni 7.454611011926321 0.7176204805004935 1.4872646873903494 -0.9615221340943053 0.632731261601278 -0.0510947617932862
Ni 1.9572037460817286 9.29569234393059 3.129065835585245 -1.318428019655994 -0.0045356830868244465 0.8888547883365661
Ni 8.470622221173995 0.9588256673412936 6.263783859161623 0.025562164739820488 -1.414326825137848 -0.40176829329201774
Ni 8.561184430914512 4.280168209182644 9.704716449004545 -0.1404979322484677 1.3734347149091766 0.05603102275263899
Ni 5.161363858159088 0.3311737877968616 7.974321033234993 -0.5225533204925903 -0.2967785812524889 1.0503172386518427
Ni 5.5726222919496955 2.257400188507093 2.786993243025311 0.10187867721437294 -0.1806135693224309 -1.184879779252482
Ni 4.5769633838834025 1.4978851228166117 10.970597321139438 -1.292789236041967 0.970257199974458 0.11453673229801564
Ni 2.4232603821020944 5.138504389440872 1.2806584125578966 1.0682331997003152 -1.6850092235239176 -0.470230599829474
Ni 1.5431892715061433 5.256949620500989 10.185514677089847 0.1817505111403515 0.45982894488017584 1.7972563884568078
Ni 8.1299608321063 2.3093409571470747 8.58427986834208 -1.6401288180714593 0.37088574478054837 -0.4934839139304598
Ni 0.18848645886218213 2.9948116227514916 11.573527791368445 1.0224572790167812 -1.0189613500483807 0.49945350125033333
Ni 5.368426400613135 6.023884795997183 12.867455756816156 0.13015515556156296 0.19294458008395804 0.6941693143021013
Ni 1.2684885107237585 2.793537687698671 0.5334524333699585 0.33568374295811865 1.0570784686350763 0.37067697120385196
Ni 2.578041107390928 8.727496283367254 7.966941480551202 0.2006252365576674 -0.024225191095951826 0.8111966742324546
P 3.2006205814371196 8.452233253394622 11.79804095728109 -0.06562972218466762 0.634142540126508 0.03440495984243107
Ni 5.264388165362119 6.76245763873291 4.049865514116001 -0.3771157848506602 1.0421244184284053 0.899354145205993
P 8.010593848275287 5.205856864410232 5.642466264658787 -0.23497157524802115 -1.4352635752905152 0.2914867367259303
Ni 6.046347911023915 2.2078467595437314 6.867281207344729 2.3629209383165755 0.9107212493923542 1.8139780720868628
P 0.5198657975269535 0.589830519849033 8.368710469565436 1.021821445204995 0.9612048599642027 0.5902388967650223
P 5.549956391313366 7.481544627891898 8.484664202885822 -0.47407337061433197 -0.609643269433563 0.009329762041358125
P 5.211442686201861 2.4502216506507986 8.86560342278335 0.004358534079011849 -0.43578115990235267 0.14907436106356908
Ni 3.1377109548234774 7.296401366329756 2.660638451438135 1.1620671522333408 0.511721519984409 1.284251373774285
Ni 7.561847729292346 1.5499918069553547 12.220127220871412 -1.7127575972817792 -0.07092876580007784 -0.12481086053051409
Ni 8.628453948134494 7.643837638263533 9.786079566091523 0.9089438457769573 1.6665957540137364 -0.10387796703258884
Ni 7.499905943088144 6.5068002901972335 8.262686778845909 -0.21236772180557617 0.5037919807246871 -0.5092242074838521
Ni 3.2334073274978854 1.0838614307133172 1.6314000899281065 1.9759547430343969 0.43227546074193934 0.18701741596624566
Ni 8.015783316375432 3.5657729416275155 3.051804518328754 -0.048006352675949576 0.154666767549682 -1.51710281735551
Ni 0.42862425599428483 8.022318543521083 7.258932116192839 -1.0274747868360303 -1.1865540816311113 -0.630917605431307
Ni 4.61080092810299 3.6719496433070096 12.642982226272657 -0.6873075541852615 0.47382294516642265 -0.6512576025402397
Ni 7.568410609021124 9.26204836779289 8.259907694241658 0.5802496467627943 -1.2010782433892155 -1.221088367962555
Ni 6.30696428946701 5.124161916325732 9.868642805286207 0.4208991005841977 1.529258221771121 -0.8288676091496563
Ni 2.679977746324301 6.1428462086090025 12.349476787211227 1.0443124272186597 -0.8872085109823947 -0.20692726751629525
Ni 3.951812219606411 4.156081851164643 3.214084624161596 -1.0856683644576268 0.9073533613613857 0.4056943678193013
Ni 0.5363808419230947 0.746046414202151 12.656013966947585 -0.47397258337040954 1.6745849428668 -1.1009348036983941
Ni 8.9642945702104 1.1028034501552273 10.343464388405021 -0.989642289369289 -2.3278474916522103 0.03892727319281683
Ni 0.9504653697092681 1.899022711182782 4.6422594284208945 -3.2757448358742294 1.818622769947726 -2.5990459104427495
Ni 0.7125102831386468 2.4244217905934233 7.104475847879361 0.6295376943646448 2.0620129082767455 0.7857820908140918
Ni 2.957194892171232 3.144909843964174 6.1578551089774995 -0.3037562981219027 -0.935676376675795 -0.3028584688979816
Ni 1.9719425728883535 4.309433859658588 8.176385832165243 0.06578707369813831 1.0290853258562598 -2.666278715448479
Ni 0.8118862928744716 4.774504220214095 12.690307778788766 0.06475940376457234 1.7006399880826386 1.4554768170135965
Ni 8.980121065286681 5.522506593796087 3.7008051137999045 1.794831323955083 0.17509058262167262 0.5196662287527823
Ni 5.692275019139687 9.1093692388217 12.299628397361179 -0.476007097301935 -0.3846676290559891 1.8220922165535651
Ni 4.099477013503928 8.544970799674456 9.965641614625891 0.6962619351650718 -0.5795487640410276 -1.2068627112814763
Ni 4.758299806501745 0.1806967261953412 3.8263367801626704 -2.2427185230923508 -0.6934941426119476 -0.8151258340835316
Ni 4.363384049339123 1.1012917756109581 6.001388497870698 -2.531018377449867 -1.6514861520658075 -0.6019901237636794
Ni 6.54046270139035 8.387074550019992 6.243750484438973 -0.5875922031707945 0.5319396468034968 0.5701562670825342
P 8.9711892809367 1.9126738697197494 2.4101687274970605 0.7061524548059065 0.8022767460350054 0.5341603086038994
Ni 6.005200867331124 7.315343385771665 10.978745615634159 1.358757829623292 -0.5949368164613239 -1.1664166874512878
P 1.594420290512535 6.990914062999449 1.4288089701656759 -2.8357002727098326 2.1103841004912813 -1.9937704310595792
Ni 5.804231110692698 8.082776307764142 1.1860838130056686 -0.3304340645234051 0.22463368365712283 0.5753324119668349
P 2.5201919034895033 2.960679117645218 11.433331038420725 -0.5783372602314298 -0.15318246969467167 0.8958733857462442
P 8.169752899225877 8.703244967964983 11.761089732201418 -0.6441734419999486 0.3045931922009012 -1.4120961360351163
P 6.603455285753373 8.488937448731695 3.423866337289785 1.2184607005317207 -0.8449912541843964 -1.125245612529617
Ni 7.751885498067946 4.361134972578137 12.126029167501738 -2.496707519983139 1.285438709214167 -0.8496305527286206
