# total energy = -381177.64613595704 ev
CRYSTAL
PRIMVEC
9.14716576423105 0.00000000000000 0.00000000000000

0.00000000000000 9.14716576423105 0.00000000000000

0.00000000000000 0.00000000000000 13.38780170564096

PRIMCOORD
 96 1
Ni 3.330729990806764 7.7744413634704435 13.401457527596264 0.8539677466513936 -2.0195017743874124 -0.8932277205932809
Ni 5.0367312696611375 4.51822418414185 2.9529072278771427 0.36633617773665295 -0.42618503157348536 -1.2891112729697476
Ni 9.214946159001233 2.496096860027769 3.9097602126416002 -0.05301203342065709 -2.4229487409334336 -1.5374284162867393
Ni 7.878298282390546 3.2759933514886477 7.496232149310577 -1.2756348357498675 1.1092978309511088 0.24675879769093637
Ni 2.1910754738810607 3.98443218480228 7.875615418702042 -2.0122998573223345 0.38408758818280303 -0.31627139986977787
Ni 1.2542136196697016 -0.026750885976910204 12.935748796991433 -0.36069851983490137 1.802643363800334 1.5127658805430526
Ni 7.068069789596299 7.397797670194583 2.5138679734748335 -1.1725202292458645 0.31127420376550263 1.1944422261299366
Ni 0.005860589039290945 4.513778661630385 9.05259037152646 0.18434655400230185 0.21397877504643795 0.44077809889631187
Ni 2.092203760246449 0.8614324967339111 4.049434688142242 0.33290155222729123 -1.1338906897991246 -0.5799298015295302
Ni 1.4438526581628806 8.45527405081782 5.851299177845176 -1.7909345600038384 0.8409294254101968 -0.4090396301424504
Ni 1.7398640861330605 9.313552604831662 8.914094050963016 0.6324360989583625 -1.828569853858109 -0.7960708743346097
Ni 3.081744141502098 3.7437428147525496 1.5636951637929326 -0.05717902031415314 -0.2427964706090786 -0.9198561218140869
Ni 4.661477945565816 6.9240202247597855 2.7293715375923284 0.06511241622861691 0.885853796726713 0.5986438329992657
Ni 5.14084430921976 2.361322521171966 1.4036572680967714 1.0154857327949545 0.26069906192111236 -1.1617794457895927
Ni 4.1953658249553145 4.555041525929186 8.705203887618747 0.7539556903321144 -0.6524971313742957 2.296335537086858
Ni 2.00792177584185 2.7852662080831845 12.832649263388099 -0.08236246155831621 -0.5285185369370898 -0.2914129460652013
Ni 3.187348169063537 1.8677506092457916 8.339836820170323 0.27145501488603574 0.24247122605917598 -0.1609664845154647
Ni 1.1101549076675272 5.6773804582577645 10.861229252118264 -0.3494535430487014 2.0015603594176437 0.8615769264572194
Ni 8.426240947008377 2.7721034366963577 0.348464020022632 -0.9158840245402163 -0.005532756892771116 1.4723656223491355
Ni 0.9064795434668533 6.8117936492594575 13.357424901535177 2.5791990509201517 -0.6101502909769686 -0.04459578433250384
Ni 6.45315157800533 2.8929923780780795 12.054777954404665 -0.15490922257779127 -0.7471201554675198 -0.21089370836321097
Ni 0.022430679635007417 3.7842739057984343 5.575617325557568 0.8196543180815046 1.183946211694619 1.6149878000294575
Ni 4.422224680524934 7.072030512327706 8.806509662035872 2.152039571248539 0.37851677896324487 -0.6597643544596702
Ni 3.9975034845324924 3.2494299824077975 6.464741951614953 -0.1857074389055705 0.7775378485274287 -0.1694135868415534
P 7.302255524860739 0.8322384028088277 -0.07961144161786297 -1.7117111582951359 -0.23234930713382565 0.7649965215273083
Ni 5.576761635981815 8.838284171394049 1.1218788298958076 0.5163438492477688 0.07307666538101608 -0.6682451382371718
P 3.740129684316277 1.5139290942952484 2.6738784276740106 -0.8746293887658033 -0.44471188673307926 0.5845385039461353
Ni 8.007895325481968 5.654878430730597 13.175966173293034 0.6886877223622397 0.2105368392444245 -0.3577749184302032
P 2.0266002881225305 4.5678749993522 5.574666935045344 0.38384024805868733 0.0781042005025945 0.5301298472882677
P 6.271004068188877 6.858901552415924 4.69689577100695 -0.4109139643470278 0.6188951270491342 -1.1827380503191307
P 8.235120067678045 4.27469919273707 2.0181977017459225 -0.030011201650109606 -0.23764860785955205 -0.5121727485892147
Ni 8.96925328933469 7.212530976887576 9.168073338002266 1.3069562715709686 0.4024799746470617 -0.8701304724541854
Ni 2.9966480593536295 7.905684896380926 7.198594355285792 0.7898056101511882 0.3929118713426524 1.4301712483692723
Ni 7.020202671689931 8.756883544172807 11.226502103760376 1.282923656101797 2.0743197506685567 2.531876354574788
Ni 4.787644801534196 0.08192933339647436 12.139282214934838 1.0104767096161371 0.25356913574455037 0.2477525290627733
Ni 7.38061929308238 5.153732665636743 3.876920058483863 0.5664561925231277 -0.5747875952069584 -1.239437302783388
Ni 6.22861610251372 0.49958708806514407 5.761534382343103 -0.35750443837763596 -0.4408608884181053 -0.3663932562268335
Ni 2.0524867669444333 8.418539033521437 1.7702152965143176 -1.2327475494680382 0.4112687765832852 1.5215965914608054
Ni 8.284331818936645 8.038977394399573 0.5140926633710713 -1.4565155426907561 0.3911162128948103 -0.5085960869815499
Ni 3.8799898472798455 6.522267561743245 10.831454313173678 -1.2863301106801848 0.8651836699718712 1.6101857506551236
Ni 2.6690331740231406 5.200895451787178 12.90641658086486 2.741298620598795 0.4538051072835991 -1.5644555956078605
Ni 0.5607111931646507 2.1301462034101433 8.06874775976133 0.8758838299981947 -0.17175740448338161 1.2891009885571025
Ni 2.0202338608221613 8.058680389234336 11.157407158503483 0.6286645477310722 -0.5474202589375992 -1.4162078442106447
Ni 5.389308770081723 4.823300453282527 5.222567831388852 -0.1953588459524055 0.6207231813968085 0.6085083844981715
Ni 6.97357042114786 8.72410010244217 7.861544333765034 0.013530430386267021 0.5956598106702774 1.511130916042791
Ni 1.4098069075709643 1.7043547890353121 1.7810592614059664 0.11752615394364276 0.6677188334200564 -0.07429742516199463
Ni 1.3922169080039961 2.130813946503429 10.269153342617068 1.2837083567866214 -0.231012333489957 0.8597200757541388
Ni 6.957983650860749 2.6302583387842544 2.911057115542877 -0.17797304637579026 0.9448197337379598 -0.3528882797618632
Ni 2.536015090974336 4.021587971719089 10.663463871651453 1.0987797050286043 1.1531865619142592 -0.35142557917340767
Ni 3.8576616159002466 0.904900742673687 6.0679406493709545 0.19977240163906884 -0.5801046365444977 -0.6156241696073461
Ni 6.2895453729846365 4.443693078332356 0.5820277480220934 -1.0181067153575694 0.079024912544651 0.647997186621413
Ni 5.550518417699116 7.191336994049998 6.7083867708898985 -0.19756536668542105 0.4892529065682477 -0.9747322050266761
Ni 3.957384015941373 7.829800010053538 5.101488628961373 -0.5415892540781188 -0.5407315340635138 -1.2138391425993096
Ni 3.841699811821016 -0.019415773832993536 10.047236700654333 0.44072564839182166 -0.1653389025515475 -0.8543932642245867
Ni 6.157085267041181 6.782010477865776 12.332120017259825 -1.6670696083263614 0.16988898381607515 1.094259705671064
Ni 2.2555995804569284 6.482102357323819 8.937669955738835 -0.9700301715653163 -0.677399293932614 0.2806446518051038
P 4.624834399926049 9.318492074288846 7.92784116104609 0.18780237376138625 -1.0853176659864279 0.3802677002160806
Ni 6.849187262483464 2.7826684130353323 5.438686999755362 0.6570914356131973 0.7712304182521621 -0.27014323805314766
P 8.467037305858444 2.5450433434821873 9.972118346809372 -1.7021091164289979 0.6319241923189504 -0.4949975223615088
Ni 0.35521737243048046 6.260594593666148 4.807452074057499 0.8371311347100293 -0.2742171510122052 -0.6752884182371983
P 4.743308489573147 6.179322026764165 0.8056082594186484 0.11493319640548592 -0.11448916688953185 -0.953279691579855
P 5.840584187989354 4.447178148449368 7.389356665722198 0.752253105818711 -0.35196551083727773 -0.2457743222904799
P 7.555513100529302 0.9299191554743187 4.122974241194035 0.45176853646954457 -0.3290271568735495 -0.2952875985292592
Ni 9.009756938883589 8.307419265066144 3.728395700205769 -0.3046762388330107 1.0136337671878801 -0.37518128683210866
Ni 5.173700928275688 4.810037063073425 10.998547417744517 0.4819980247780473 -1.659380981432852 1.176228017114755
Ni 7.615061148985341 5.384579685434754 6.186998328187254 -0.4547476737025265 -0.0055980629130677785 0.28291699277904825
Ni 8.984510761657988 7.649198371233871 11.653880551377469 -0.3945681759991527 1.0538743598754818 -0.5507346680228127
Ni 0.9466493214691105 4.599944962161244 3.159092574335318 0.20875223654017597 -0.1611523752740257 -0.24699945294683268
Ni 8.88427612033982 0.3249091537278324 9.85346222856561 -1.4761873100880707 0.2689229924928014 -0.5846277212258317
Ni 0.7147549512028637 5.991073357451527 7.084596888513406 0.26360517982431375 -0.025302997541162872 0.3735244679549761
Ni 5.162340148524167 -0.024548248485633067 3.5856148472464993 0.562013840481058 1.4216020186430225 -0.6766001950700864
Ni 5.756869327855764 1.9657899308052114 7.635906624811219 0.11125163378884066 1.0857758365697687 -0.52872705340347
Ni 6.167119707771792 0.8903622375713786 9.633098775332186 -0.5447177724047716 0.8240156803739938 0.6770709640589178
Ni 3.6574301595711085 5.675057078179756 6.83142072261923 -1.0630822516269949 0.469366709167282 -1.5647916387910406
Ni 8.551657735392517 1.2836126101056016 6.351200013692507 -0.8929500414518622 0.07938949497292135 -2.550578558969981
Ni 7.763089730884584 6.068796824076867 10.72358910626073 -0.8386568273259362 -2.8790408444789968 -0.1709979006095378
Ni 3.2531711731633304 5.659452013561323 4.043089299322894 -1.4537870880159995 -0.34919437585004376 0.8888342195112757
Ni 7.928763195344764 7.845377633174987 5.99148315047316 0.772981596615314 -0.8790411446802538 -1.0487385813108134
Ni 4.843716927038883 2.556779157025827 4.386727274742545 -0.05210340556345866 -1.1690482115368641 -1.0109032556305946
Ni 4.1293690247079535 2.345058860625908 10.466717485439329 1.2487495813232494 0.4944017977590388 0.6287033713888075
Ni 1.8270182805553552 1.924993571955145 6.149806867324366 -0.5266341754301833 1.0748424774867167 -0.4041499061503169
Ni 2.628849675272391 3.137185112576146 3.7504449430326936 -0.17800261406214504 0.2620506908530003 1.2584614092943747
Ni 0.8314599790110382 4.5149037630067435 0.4730109129523675 -1.0068411697460788 -0.44759049383245497 2.024424665610326
Ni 6.476705529583564 3.4849694981901322 9.476809388124087 0.337402011200806 -0.007583982994845003 0.28984148781302344
Ni 8.321990699964834 0.7267423118021938 1.8888311672291689 -0.24474202437122367 0.513536975926593 0.9544199758318852
Ni 8.725453882960066 1.4381356796244746 11.882116055379136 0.427741834537644 -0.28876548114002526 -0.27030778865546995
Ni 3.4145912055909364 0.9017815591831327 0.528885459678768 -0.3920122423465184 0.5435877725653864 0.4796408373997804
Ni 7.028389384956929 6.317316167932799 8.184605760029253 0.013907096999395404 -1.026314447979342 1.9970061643880577
P 1.9906153384103866 7.741529861420547 3.8676018408245443 0.5699510930502637 -1.3955924819531385 -0.5064978096916245
Ni 2.31529398356355 6.026975982672718 1.720894693984346 1.175648490462201 0.5786370508600357 0.9052257734954217
P 4.45128522583136 3.6035990896534753 12.913659306635598 -0.20651563390017336 -0.09436822776994071 -0.33316946117669716
Ni 9.030685653916986 6.372619931521925 2.0719363852903743 0.2583205343866067 -0.06384563370105134 0.18643660376211119
P 2.8154975905942763 1.088878600338995 11.770461177732647 0.1558798140211767 -0.8738685993403787 -0.5966918514792175
P 6.196719935852244 7.38257678653393 10.114952253329479 -1.9708547028036705 -1.904622314037997 -1.752346415317995
P 0.03019022026561536 8.93076201623131 7.580374182080556 0.7762163015025276 -1.3791716173929538 1.3546373796970155
Ni 8.952084059388149 3.918142675253753 11.707324696187623 -0.09582912858618335 -0.19879769643062536 -0.9389766446936216
