# total energy = -381164.002498974 ev
CRYSTAL
PRIMVEC
9.22028628282949 0.00000000000000 0.00000000000000

0.00000000000000 9.22028628282949 0.00000000000000

0.00000000000000 0.00000000000000 13.49482097574586

PRIMCOORD
 96 1
Ni 2.6094424488074592 3.0487706508942254 10.358570301915012 0.2191073545222549 0.37532012640281814 0.13099590629530344
Ni 2.8973643294018903 3.47076471471867 5.597368430343672 1.5278713687259233 1.2745308040524115 -1.144076629193191
Ni 3.484106469008872 8.972961349773147 4.500995249595375 1.329239508449201 -5.646086235024592 2.5092665875950724
Ni 5.322954269193018 3.3774369766914227 10.363226546501435 0.20371236012342336 -0.034096170352760635 0.2828311179334613
Ni 6.732339573641827 0.5251727557450233 3.7709117729311927 -1.056704116014793 0.052477758183741875 -1.94916770474854
Ni 5.641874752360816 3.7676210527472445 6.3774636619805465 1.434530810889549 -0.008704983973165653 3.930959623290004
Ni 7.1139580037158945 4.121652386182553 1.0347844342850887 2.3766570569557457 0.01939717357968918 0.9716635934036814
Ni 1.7648918836936762 3.5406176038013033 7.480381401951502 0.6015664059626995 -0.8829515354782536 0.7990538682223336
Ni 5.332534146668844 5.7453448053287826 11.492769707249044 -1.9344761641746364 -0.8934125829105776 -3.695617809186758
Ni 0.2815377543535631 5.550169784724084 4.51702656140213 -0.15186735042767394 2.202866166982103 -1.5039757930552486
Ni 2.01608014363008 5.079105357159172 11.719752871565102 0.5456251147103893 1.1805194454012573 -0.805607095959819
Ni 4.6531557905078476 0.3346429153831748 7.822678077000396 1.1888642178215267 1.5851066961993088 0.9103798068925353
Ni 7.47317113805728 4.6735510638250055 4.951263321388654 -1.0447042633404395 0.03348656179321975 0.045163226800199636
Ni 6.2716295276027605 1.6292245909320768 1.4247020440665583 -0.538950273793375 0.2635470728928687 -0.15278446292530462
Ni 0.8554738383049387 5.165720726752924 0.2881671402102703 -1.5000042100020101 0.4509861497775652 1.3205702628099771
Ni 0.501138235421409 3.3518045807503296 5.338281151125709 0.6799775961827514 -0.4637910148517173 -0.5460668302334982
Ni 5.877987844180785 5.104184535921681 2.9677003614871547 0.4477691855021643 2.513196004556465 -1.1200285871050517
Ni 0.37378487482530753 2.8000442074025234 9.458574467106205 -4.153496315208782 2.5628995424291796 2.1315188255873676
Ni 0.344574085767402 1.267088625830502 11.679214038747043 -0.8737243604530308 -0.6365151541237425 -0.5518577258836624
Ni 3.096172142812628 5.932498176844002 4.522586394046907 -0.3525028713979865 0.09208328839050593 -1.0849456273589895
Ni 8.636513102330523 7.64581177892096 0.05438493676940443 1.47291121043996 1.8510814046970636 -0.6340594934943983
Ni 1.4868080485917439 8.598820571896283 7.714476173098268 -0.5285583890360898 0.954295534438879 -0.9227848654251075
Ni 4.930557324422858 3.8574543022630974 4.454572952083066 -1.1480446127020034 0.6577642933105059 -1.3992568181786031
Ni 1.4800495787267 3.1322234622837346 12.824951710369088 1.628225895986286 -1.7119165894377226 -0.523900321438788
P 6.433703720355472 4.821536659096425 8.258263764874036 -0.3547325320594536 -0.19880926639485116 -0.07507441253733523
Ni 7.279554345838928 4.51670477340992 12.321406058192206 0.30939138492049295 -0.03200072127631263 -1.4953759672013796
P 3.6594302131886876 8.094185081877587 6.853115181984556 -0.34740051717441456 -0.899554177031941 -2.09732418198353
Ni 1.8133260476787707 0.12895676838536624 9.999689097880779 0.5321872440379286 0.20557486725345886 0.5857767472286105
P 4.230654610936368 1.2288981999355353 13.14708638534446 2.0589296413657316 0.6021531317041049 1.1515405416704039
P 1.3897829757542892 5.715360434249488 2.5881721703195066 0.40842745047974827 -0.4968060363251573 -0.5781485412593914
P 0.08328131406414765 2.126880324214295 3.5853719515201785 -0.43248423431863575 -1.23283111032078 -0.39115015145653925
Ni 8.57857282316008 8.986819440096694 9.93899010904646 -0.1868567220186653 0.37154317585888913 0.1340920287221239
Ni 3.6568485330219587 5.528354587315225 6.708019224442611 0.910338926352271 -1.1550696378695848 1.271652711173668
Ni 6.6224429811159675 8.462959653122178 1.211319724086005 -0.5399105808241152 -0.49966998813651364 -0.04103480645412288
Ni 1.068391455855481 9.036516783306224 4.590870912428253 0.47409651054278357 2.0135401574873386 -0.407005373321241
Ni 6.1608201267322364 6.194133021169348 13.289456826253245 2.4362716832945845 0.9800878129116347 3.458211142134683
Ni 2.177499696054799 1.458409566757727 6.153260413986876 0.30262449851030465 -1.516751347553362 1.0035648129876522
Ni 3.7982969452997684 3.7853608836071952 12.320960718363445 0.5755180456150798 0.2913047026221112 -0.02302937101563776
Ni 2.5112095184634278 3.9493252350534043 3.2036299696095605 -0.006433671440485694 -0.2812946266842768 0.22290127434704837
Ni 0.852818395847732 2.6390487881480524 1.3628145603269137 0.210303897298012 -1.4711579751942794 0.38770847276484194
Ni 4.743947949799914 6.7001699947071245 1.3596842731247551 2.7543654810850824 1.0594181725118463 0.4248750545128102
Ni 6.128069669760019 0.49279018819656517 9.784878555550847 2.5057603742140264 2.1691605471995414 -0.27318922396832307
Ni 0.9972016252579339 7.213057640973042 10.032077197601023 -2.2014559168981376 -0.5454101704861058 -2.2430329690089756
Ni 8.603900949652953 0.4739909464396245 1.9156029955982565 -2.0262141534105815 0.53627684072627 -0.43936990569487555
Ni 7.578900161171134 2.3308699385311105 5.135386906822492 0.09921450011864848 -1.2629438705457603 2.0541635874356556
Ni 9.20383731896918 4.0989520412879585 2.655497778924639 -1.652141526261619 1.3872523375185595 0.34557220571642416
Ni 5.023940384167964 4.2249564739969445 0.8758783319084061 -0.12196747754444802 0.1713192885046985 0.1524561330516084
Ni 2.4706310384142367 0.8815451198743759 12.303970496780476 -0.8251266540499854 0.9975440607148691 -1.0071556156627042
Ni 1.3550685977980965 8.059212535904722 12.080212588615565 -0.24581648838232503 -0.5387813523156785 0.5820435054384234
Ni -0.046528330804870066 6.429130458345838 8.013696592536661 0.2931790368266886 0.7877685251165014 -0.467603189508956
Ni 8.053117926653979 6.289599865620455 1.519301259575919 -0.7439690114330478 -1.8177524515276307 2.1130616473234447
Ni 7.3195150667053674 7.500158916085906 11.728456821841503 -0.6877788373947251 1.2079657145376679 -0.9585638227969299
Ni 7.16601574022072 2.7299423705895265 8.696629369070065 -0.6712569284803019 -0.30678300076336845 -1.9719543636257524
Ni 3.01087527416117 7.0475535017131055 10.68321566085253 1.5229201953682354 -0.8643400910246533 1.0467398057132296
Ni 3.084001364883764 5.247901138631689 1.0681609486977373 -1.883639541138743 -0.4569318258380389 -0.6894875925557157
Ni 1.688409608754335 4.997929956488171 9.201713887032046 -0.23293320466175368 0.7301246493507877 0.6127640744507318
P 7.051573546544155 7.424810736362664 9.603832701687203 0.33252282873163375 0.531340065546285 -0.9195347339189259
Ni 8.27469984724979 5.028993101065704 9.696501189243302 -1.0054044372995525 -0.31515168444303787 -0.07602777758954003
P 4.412976552425279 2.58983089982663 2.9360139255550823 1.366333327977705 -0.6286316376106077 -1.9335770493991344
Ni 1.4766565133647136 5.484595108489172 6.2944165431886665 -0.3177523552906786 0.999301152615292 1.321623643775156
P 9.244720068466593 3.8136395017191855 11.608798712199516 -0.7584360947009713 0.6209898047946337 -1.3230657755383215
P 7.172682007222665 0.7263400404224254 12.601923126851279 0.1200113822593417 -0.7282783401706684 -0.05118012241824089
P 5.16840383006906 7.660518135585005 3.4154042716576942 -0.8954308988921869 0.23599153187210326 0.07081280904750385
Ni 0.6222199572696213 7.628182591496726 2.715157641491849 -1.6552607886168913 0.5213924674152698 -0.1767576859114504
Ni 7.654773897214033 2.5610543862539132 10.85465397638142 -1.0024240145149899 -0.9461659633532091 1.207781880661636
Ni 5.768487723966244 2.6655202301433327 12.728881859193324 1.0794892322301086 -1.0662645060097187 -0.5747374586953135
Ni 4.131610295397078 2.856776629066389 8.337977750164944 -0.33332372736637433 -0.0398919510989313 -0.5933381045156362
Ni 5.575848282096725 8.640772874605625 5.694355700007257 0.2179022784705602 -0.7977618888837873 -0.1487534873890406
Ni 4.921420020689901 8.014337402435189 10.190438381056799 0.2250355470812318 -1.6754827720907208 -1.635857958610247
Ni 7.192708469087433 7.172036587180984 3.720737740919449 0.47316320009523666 0.23553824638476856 -1.4218354748100674
Ni 4.342662649027159 5.259159108215887 9.149556571435076 0.5756003209162409 -0.44209450371489023 0.20474182982920225
Ni 8.79441972567123 4.208507483220358 7.3603452605708135 -1.641495616511999 -0.008224701902637448 -0.011586419286018754
Ni 6.978945351282288 3.1372485183225454 3.17843553726818 -0.14121321314793747 -1.0506193432732938 -0.8346325366578915
Ni 4.157205810192933 0.177272912705696 2.2823657003700615 1.3762791263365073 0.6803969431083573 -0.05007377672793957
Ni 7.9887050064940945 8.995504949800473 5.443689308275984 0.4416026516801363 2.0354315582437916 -1.886970662394505
Ni 2.869002728713112 6.856841099682325 8.336034113810848 -0.5382254798122086 0.4313922868060377 0.9153996287046299
Ni 3.3515925141652056 8.54120300274668 0.3103769658731859 -1.2258791044829789 -1.1254068206978296 1.1687273378623357
Ni 2.933904324047413 7.198203759728043 2.2873050077461925 -1.7972170505784402 1.892538900510902 2.2583567438502397
Ni 5.344197808850673 6.124897891269467 5.458249984416335 1.0290364748961955 0.42901684459532563 -1.8162128749546527
Ni 8.271279121028874 2.4643889045825387 13.28646115523121 -0.1329442882709259 0.0030570416587689287 0.7782428450142532
Ni 4.914043791642103 1.6448990776586447 5.350642788981186 0.04451993678924591 0.1983986612199938 0.5969769868198042
Ni 4.983500208413418 8.225989074675402 12.427758372660598 1.9715375878033077 0.45366266816846385 -0.28694539721215095
Ni 1.5015789472599566 0.6032547503591053 2.416368731452752 2.0502637381606177 0.11026124485111333 -0.01460746550052968
Ni 7.5490633146727975 6.898774961819049 5.870314721913814 1.8284430984722575 -2.2020195027110914 0.9219225174248122
Ni 8.213882838750706 8.607340116446487 7.551310298446483 -0.5154948709839122 -0.13205442946680482 2.4752318666078663
Ni 3.965516057813318 1.158842464554087 10.096298335805665 -0.035255480768184445 -0.35646417003857966 0.348788912881509
Ni 2.910659982260544 1.521467104830078 3.8698832482086343 -1.8865438592697317 4.955656076049949 -0.35420776990423514
Ni 6.130070471889234 7.040822692706992 7.574197815153164 -1.092730670621047 -0.5002214897646096 2.219432041760584
P 6.902297111189371 1.175881553654497 7.007414829320889 -0.6204663281909959 0.0016149098956036705 -0.14912398335458188
Ni 9.147860960782713 6.029864400274916 11.648918021990479 -0.7757573595882381 0.25777443207514955 0.7786007425743042
P 0.5129300595829429 7.579923612951517 5.811099277146734 -0.7167564555739978 -2.3405266297817757 2.115701398939137
Ni 3.2190140173173716 2.88540561805815 1.0479150440187974 -0.16938607603772762 -2.070733575979195 0.16912150952243132
P 1.732510238173849 1.7733100050944741 8.680773242703197 4.364071721000626 -3.490783162533433 -2.7777568634258287
P 3.6378270823649532 6.40513005308157 12.727073761047981 -0.20559826429222658 -0.27834325736543675 0.04499173421934187
P 1.2724363918901547 8.931589925101317 0.5416641598386346 -1.73574891597063 -0.05844888816551223 -0.26974471706314834
Ni 0.0050674693558362734 1.6568393484297654 7.163361219792144 -0.9035026201567278 -0.06641545131075659 0.32317686874035956
