# total energy = -340874.60165966285 ev
CRYSTAL
PRIMVEC
9.22392033669713 0.00000000000000 0.00000000000000

0.00000000000000 9.22392033669713 0.00000000000000

0.00000000000000 0.00000000000000 13.50013978091022

PRIMCOORD
 96 1
Ni 9.032311675951691 8.743713661684135 7.368889282791976 0.301445647710855 0.703160204946802 -0.3444825721966713
Ni 2.601809610089433 2.336234500565287 12.354666257932543 0.8971717928426934 0.00873455165952044 0.5216079258601857
Ni 5.657888064613246 0.7720430405905109 4.218415996428163 2.2477727976868063 -0.5246302576262771 -0.005308556697106987
Ni 7.870752632909658 6.7794614137199085 7.589022749600413 -0.08200533532921361 -0.12462625532353376 -0.27094156558472693
Ni 4.993784260239828 3.9884968727117607 12.60078719742691 -1.8543677887578192 -1.0157163607485216 -1.7010793896129028
Ni 0.5845797766309062 4.50758220417817 5.314113482282948 0.7670857999561692 0.4501991350998957 -0.17696645948814682
Ni 4.068495932343009 8.941207016436202 5.537729901347438 -0.5224062533917648 0.360327766759044 1.5826170970082356
Ni 4.407474998577115 5.8992780554526085 0.8344640755544854 -1.7556405126882344 0.1494191459974975 0.6712273607939472
Ni 0.6460359895451367 7.032076915405717 5.6973959594838295 0.6326672411325621 0.22663400191660324 1.284957141592058
Ni 3.3162114511478746 6.245774616624967 9.270032391347574 0.193452372958312 0.29608052674419977 0.624507588139905
Ni 8.234092072311771 5.978696008113171 10.133974270980179 -0.9140778245694129 -1.8819372137356556 -0.8474862526921082
Ni 7.666424353311893 7.261411242583366 11.865245976123697 -0.127795911300767 0.9908807897620805 1.7074773227194466
Ni 7.376857827426525 3.677244910507579 12.62716668672005 0.5744885759093009 -0.9247250198706138 2.2884216815564202
Ni 0.7982288275600892 7.20461956609892 11.885806094181817 0.4478378339565706 0.2947363540114795 -0.4376351823919559
Ni 8.048940322746677 8.116745359913669 0.8415434342846806 -0.03290446403750462 -0.8987257675933747 0.3000981325440251
Ni 4.313335669325815 0.0818300077849216 11.710426165644435 1.0143084246574015 0.2413466255364295 1.1494682325224077
Ni 1.3879878353662456 4.785913995296921 9.767364029485913 0.6484237326358704 1.041922329719928 1.1534251602876264
Ni 5.7872166493117065 5.241594099517256 4.02483727339609 -0.3614407973175646 -1.8390296157388522 0.6077553083822308
Ni 8.723577843953821 1.697616387620571 11.478817219752953 0.906246244340136 2.238096965159939 -0.18314044950934266
Ni 7.673960296090485 3.6207760712290704 5.2740051102093215 -0.768716907801689 0.1266170605013174 -1.8315592755037362
Ni 7.67788968608275 1.7976682497006078 2.743241822834489 -2.605403477229661 -0.7530275220908902 0.34104552149066425
Ni 1.6359544812865576 1.4939983498758669 8.534842601402824 -1.837519863962545 -0.5798722088187175 -1.3692952388195065
Ni 5.918297778842397 4.021546178679564 1.2964616426990032 1.1097691141605726 -0.24716606043168401 0.9519249773241735
Ni 1.2830565195164718 8.619384441717617 0.8098020801969309 0.39871330851577785 -1.182646519046589 0.33869913274567476
P 3.186430894361103 7.907823568071424 13.020385170727666 -0.46815777646084533 -0.5643445454967635 0.1241590858791281
P 8.906229911152943 6.842811297444967 2.4904649025457117 0.9147707368713793 -1.547139730037232 -0.7652736864480949
P 8.77776837495043 2.9997940936486973 6.8255081455987465 2.3872140065359857 -0.5179474462894628 1.5704686345711596
P 9.05590646374562 9.104082998791625 12.57793124563857 0.09055425334048921 -1.3418528263378373 -0.5844207474213483
P 6.278528757147344 5.816843880896576 6.407125884976351 -0.5492639970145573 -0.23247734807125767 -0.8694370459315865
P 1.915144096981086 0.5106408325511078 6.5936436971185675 0.9077801644861593 -3.267604209044966 0.8309095792803495
P 2.4951534211679376 5.909286008836663 6.862809678764753 -0.11832808101964783 -0.5149009461536551 0.8523394670193515
P 5.617902370677877 1.6754144117722585 13.117693838949252 -0.9900456954552951 0.2712449557577587 -0.37935547281445636
Ni 9.088319319221718 3.2673154503286366 9.185062561136906 -0.8248073230373537 -1.6230453802266114 -0.6795711047729522
Ni 6.99963638816911 3.651620860276332 10.346763652549551 -0.16730862468340862 2.121763803083133 -1.292311267964284
Ni 3.3999554223679955 4.284842979921811 5.431889106968939 -0.7914925109353079 1.8680445149139633 0.7592246520405376
Ni 7.925699525360177 4.182549705240553 2.9633208685139247 -0.033581178389555065 1.0625055531879184 -0.44286583466327595
Ni 2.527178871996912 8.601997352197856 10.595908193075525 -1.1540581658859348 -1.024419030728842 -0.521932913299772
Ni 2.846796929794953 6.934284913767241 4.981079232598172 2.2492511820045458 -2.735687959280237 0.8239182355641811
Ni 8.530779464568099 5.7457182324685165 0.45013652819838346 -0.8341296288795442 -0.4075928703935948 0.08831327982511242
Ni 3.2823319923648033 3.0740650988546028 9.307036914284117 -0.6761368822804227 0.1440385984118745 2.4298369834128346
Ni 5.86027932097539 5.946753572565723 8.934486468200605 0.555607679844398 0.5038470023323387 0.49379038942728504
Ni 3.8723308220953707 2.1422831311583606 4.537842196686675 -1.151519201514165 -0.15979920368024092 -0.09540026857888087
Ni 1.969270060536507 7.997802909326218 8.046231257392856 0.9002599448497141 -0.13717889517756374 -0.19474460940717428
Ni 0.6301025898441085 2.2784743124630293 3.1171278925585635 0.17340136784470783 -0.39304891114114887 0.2519992201542692
Ni 5.344533048610388 2.117323203179327 10.74030589615512 -2.060564091645361 0.36481845554054587 1.549393044847783
Ni 6.298157259268328 8.459958205505638 6.902134940015977 -0.021482081133175904 0.1777748143220551 -0.5055321033442455
Ni 6.21405355516159 7.4214739292870515 4.36244843226904 -0.8129877046946064 2.5445197543704112 0.44119796004254985
Ni 1.8038390522940941 8.741841205889699 4.571444015472641 -1.222175687489463 3.587540973581473 -0.9871863716296289
Ni 8.86379987837262 8.976626869887602 3.066138061860818 0.7581021084003202 -0.279533421018796 0.7206025687929655
Ni 7.696586572266601 1.0406980170592983 0.2939893956067084 -2.860793725343351 1.5956569609113294 0.16609557821191395
Ni 3.962208700228299 4.007184534975441 2.8112018218603296 -0.2994643556147681 0.5811965840570958 0.09742501231839351
Ni 5.504097643624914 6.63317003982949 11.286765055508956 -1.0218787808054914 -0.2906195036296285 -0.02360092724839161
Ni 0.9049126882420937 3.9595983308202922 13.33974403636894 -3.2995905321435752 -0.2583878972894324 -1.692546155330911
Ni 4.551202122660376 6.799108363681233 7.092108955045757 -1.3002017264559542 0.6552867783042908 -0.286315476937636
Ni 5.292805304299073 1.7622483962492073 2.0133428734990426 -0.29368143038440386 -0.283036549076048 -0.8892797916891265
Ni 1.7353237732740412 6.136932358623269 0.4003587206109284 0.7236917492412505 1.2382309411801127 0.524172087042936
P 7.227033692111134 1.6128024416607725 9.776044660757556 0.5895372427123073 -1.19390537978986 -1.385516071553743
P 6.220851584326612 5.584484107903287 13.203879381838275 2.273374043194678 2.0596888881292594 0.3860825071256448
P 2.0166164427672464 3.620628488506356 4.018991152792576 1.0604666683810189 0.20344470828433348 -2.0838978812752953
P 0.6288924115178521 7.0253434536818835 9.453202842860227 1.5163888220076205 0.8300821982830479 -0.021912998023007422
P 5.032838338238065 8.02182199744795 9.591390080489607 -0.8781440867872813 0.3146909427565354 -0.19881158038769634
P 5.372656781207608 1.2321958237011017 6.582100883418286 1.246799399575414 -0.9181026294580898 -0.6743854468069547
P 2.8919295711849795 4.312302590266816 13.437916985910421 2.7334061052245957 -0.17223460123011627 1.0719738976896698
P 2.1013750452060274 0.733848631952084 2.6007073516291617 -0.31834987966536143 -1.0820945310634396 -0.5770506802095223
Ni 3.7199055412921433 0.5633878200411686 8.961595569579163 1.357655854808365 -1.006435706777544 0.420443758214334
Ni 8.27817318680246 1.2474798594221876 5.055694290026405 0.5666562243490757 0.18393080662112196 -0.05510773960742122
Ni 1.7910639228591485 3.590337134669273 7.4536294373904175 0.10962643948059185 0.533077874172998 0.032095852093280204
Ni 3.4901007941858437 0.4584371339590385 0.9738024584210336 0.4850635510772484 0.11443980170883518 -1.295798455181936
Ni 5.542967243219757 3.5676739628124783 5.959622785986398 -0.42275209463253643 -0.7317480438868237 0.8560760512436483
Ni 6.674723800193698 6.437991889040002 2.1105980429836455 0.015487297002321715 0.0244470772987708 -0.43741946683672406
Ni 1.0819473880579085 4.686646166431304 2.260287509064559 -0.4963769192075386 0.5898768854399131 0.8844849414036444
Ni 7.351215329354938 4.467412031839407 7.7019106189885145 -0.21117395860779115 -1.335065628212675 0.41123638068345303
Ni 0.6636481427170389 1.5715807424226713 0.32291929882675335 0.8280142600104256 -0.13657211483150028 -0.40503385141716697
Ni 1.4885746848161212 2.131777086085146 5.5470183889582625 -1.4037048266476277 1.364068186092612 -1.336125951156389
Ni 0.4293255195116518 5.349089665174188 7.662328010364557 0.11629690952223196 1.2458519480604804 0.1287726733917395
Ni 2.207643829480398 2.7837329875951546 1.3667266993752358 2.7071209462758214 -0.2352330564395239 1.1994044552312182
Ni 8.011030010849476 6.070068161313579 5.026034774720942 -1.0436470257205188 -0.7358363550235844 -1.0159459602608245
Ni 3.5395871258959386 2.078960919193813 7.04257742612683 -1.2057895328219557 -0.11349877795180452 -0.8836953556228136
Ni 4.292120652935653 4.446741226739253 7.840597793091087 -0.26123847936435013 0.8068502243383008 -0.9314281429224024
Ni 6.758144934207881 0.3557315500461978 11.509246932392582 0.13283527349688737 -1.1479844488880293 0.6253807347734779
Ni 2.7062336103298774 5.643406509946919 11.794018864573774 0.8292627877055461 0.4965252718599449 -1.075374952951419
Ni 0.15202957462794978 9.167331419394817 10.055984181161877 -0.11706926891188224 -0.478868220899814 -0.20495240317811156
Ni 7.529117077666697 1.2814238856464464 7.383105188557419 -0.7506531083214427 1.1941820304900144 1.609854335457634
Ni 7.221665370572406 8.130350642163881 9.403792147295524 -0.4686604271288767 0.6749073807486958 0.09910240002081643
Ni 3.9842723172740673 8.542964263112188 3.1517424977791544 0.30030973433419894 1.043325380715042 -0.272495283225092
Ni 5.302121463670404 2.360438067090411 8.448994653992008 2.7254775944061382 0.027408731030256022 -0.2824423671354749
Ni 2.076728730512761 7.038985631612775 2.801359899039328 -1.5155316162136478 0.019267589980360364 -0.9868690974995262
Ni 5.729345774167413 7.858549386525231 0.016836421485635734 -0.46973874779472 0.538064271643996 0.3978684440169793
P 5.818365827724565 2.98049765265382 3.862929802658478 0.6709471105493671 0.45587818776254396 -1.3787036766175997
P 4.816205349134004 4.5190106412683475 10.286688260484716 -0.4531206796220648 -0.17409607991888726 -0.12972912376773788
P 4.139686148212256 6.435612117636237 3.1585469836882947 1.014956599764362 -1.380416031323016 -0.4042959448098779
P 8.105169340100776 8.346559330940137 5.248638407350807 -0.2103769166277925 -0.18939620061106738 0.4170601864540817
P 6.389649323430942 8.99311001523074 2.232707065365332 -0.0004293742279347444 -0.3810896818967437 -0.11503732608351801
P 8.44875114249953 2.991501789416195 1.1630044313326144 0.12484274220971403 1.4245050512224304 -0.3886196717252017
P 1.9186399627253776 1.6546144717897302 10.523642468114499 -0.1751566599729177 -1.2521791758300886 0.9158338880285712
P 8.972227059966686 4.262668675834007 11.350337235710102 1.0113007481793292 0.2263370395014747 -0.7844304618822039
