# total energy = -340858.55181211507 ev
CRYSTAL
PRIMVEC
9.25715445881484 0.00000000000000 0.00000000000000

0.00000000000000 9.25715445881484 0.00000000000000

0.00000000000000 0.00000000000000 13.54878127798831

PRIMCOORD
 96 1
Ni 0.2522843090079229 4.072453744016618 3.3581874310838287 -1.2282074955058397 -1.3612880522443138 -0.9992019080332663
Ni 5.042797947918569 4.496894283115696 4.262609585541235 -1.5578422040564008 -1.0346653910471986 1.8185536072726873
Ni 6.485710637763135 0.8725664339961693 3.102291906060583 -1.193766025998518 -1.9445859989151284 -2.586164169384075
Ni 3.5367051778264313 5.932928907081294 9.589420739910738 0.5442896837284175 -0.941008844632302 -0.06681294385949138
Ni 7.244056743826307 1.0707750743204005 7.00217284802837 1.1459591909278843 1.246955465537304 -0.4740031794980289
Ni 0.9861461668298057 0.8006531540847783 9.457685875446108 -0.28415832138531705 -2.5339648616727004 -0.4659463706318233
Ni 2.1227210961538323 5.635579843691949 7.596666391690069 -0.2680513885211255 -1.2586046197404581 -0.42581710671110534
Ni 1.2347748254802537 5.715098801835048 4.263544558157354 0.1188865246262791 1.3481666843710072 2.6126637583365
Ni 7.923207892157907 0.27825433056492516 4.841440023594305 0.6468805565184665 -0.3706129507351359 -0.042409832424778575
Ni 5.3879972435129995 3.4999172453863063 12.1558446624866 -2.019049260231026 0.9329975442920513 -0.2129035397043882
Ni 7.816963528641219 7.060348510491058 0.2535210648644908 0.21809896786239857 -0.9923283208418845 1.2035776127723015
Ni 6.101871978805573 5.176739718043423 0.15430751027791784 1.2626718478312964 0.8027315741842368 -0.009441090808241804
Ni 2.995383804557998 6.060242554501788 2.9808537746742485 1.6244414892431893 0.30104352717642996 -0.5017451254979874
Ni 0.22320573493119392 3.138545700679421 10.926388072332683 -1.329593292244194 0.046702032042229245 -0.9925535494788131
Ni 5.917423173101121 6.762971675637867 1.920553170800753 0.22286296490994523 0.664792403801881 -0.4780367261374541
Ni 5.5029988752955035 7.228939810339965 4.142580393087308 -0.7330662484776149 2.160538352748169 -0.20244840580933524
Ni 8.379585614678836 6.934506750654354 4.949708926825299 0.5539745151163492 1.3064829314789757 0.28449642145102616
Ni 4.315759538763424 5.9879812055768715 7.219400312509177 1.5213075994654768 -0.7843697838475975 0.31799198210531043
Ni 1.7703660200419846 4.025751398983797 12.421414839798015 0.1949274148419417 -0.0399135483654861 1.1003930722623114
Ni 1.1341032690418136 0.49876901064953016 1.1554835933406846 1.3774618337906988 -0.5921821365343221 -1.2908729928558607
Ni 4.42923374003445 2.3683041509359355 0.4633492856615064 -0.6447825363388574 -1.7272318796385544 0.8705572755789588
Ni 5.993081897769753 8.59261125667988 10.639018221618338 -0.6953720763609509 -0.2170533002067036 -0.5061633091703411
Ni 2.156278281633312 8.074516084340555 4.452333117945331 1.421138962963675 0.0416061055765606 0.9715831178747332
Ni 7.179247404366489 5.871267000190588 8.012194142325797 -0.7237107754046439 0.12896807723199727 0.09924046826057747
P 2.3232588365792046 0.7849502427113048 3.003765232346445 0.6415264912954048 0.6157673800534298 0.08791244484226796
P 7.443585454398641 8.27086033372532 2.829595571126521 0.4650734811085668 -0.9880317503490597 -0.12959774039619618
P 4.361573196953203 0.5021867521333988 9.693502632109356 -1.6780865282621549 -0.6611887456110226 -0.3044672081459982
P 0.7391569502616794 1.1248553715813998 7.0902259770110625 -2.9837112255058935 0.4990356969866244 1.534622314296512
P 3.8941609461311604 6.089559963167585 5.178954029427339 -1.319965539346443 0.1568007831735493 -1.2796416429164155
P 5.41384321919816 6.983245669702481 8.833453722583629 0.7771958918069776 0.04256255595255895 1.214791993430882
P 5.904296527857009 0.8098316228855795 0.47640742796146623 -0.1995356030379144 -0.5728045033386587 -0.6933223929207737
P 6.327811351494585 8.59509217411671 6.229567020996206 1.6366285182276845 -1.3303229713213671 -0.06799282310020549
Ni 0.7737657485054267 7.740703088922611 8.487105614101473 0.11851422888852492 0.31959840736048184 -1.486185301841047
Ni 6.988855505399188 6.702494684537882 11.63848450822371 -2.068480004058328 -0.26814317690398337 1.2454809378743066
Ni 4.356037418493416 1.5105084328435066 11.736306712471643 -0.5020518581051289 -1.4216860937163966 -0.983779402830609
Ni 1.4030143534537902 1.3803620961108143 11.716538984506709 0.6294070823240516 -1.5500869855910142 -0.4818525003391186
Ni 3.321698504737769 8.065703273147049 8.033370809223136 -0.8489492103908799 0.0011418269139270658 3.267260452552302
Ni 7.427524291141567 8.613115854152172 8.772145438999216 -0.6821262670946382 -0.4620683757336559 -1.581196562511625
Ni 7.113743778310544 2.8978967093071275 3.4728780224712685 1.760770120605316 1.2025316880062902 0.9513017419178776
Ni 4.232852462031225 8.285079323214005 6.0849202772745326 0.6922463862477755 -1.5531183162181703 -3.517256012012981
Ni 1.1031380868545417 3.7757156528318645 5.873681266114186 -0.18919514034385482 -0.28060762791958127 -0.5567376796837831
Ni 3.439338425585557 8.543437251364848 1.7649857617797298 0.15419162768547637 -0.12615503326323435 0.9232684899297454
Ni 8.317405307129686 4.576200326702649 5.350210464089913 -0.7839674062028563 0.13683333891268692 0.5658267864692449
Ni 6.42506701788008 5.840338846621775 5.617351580539495 -1.0894828531077108 0.6091028235490606 4.398686482861018
Ni 2.1672294955428915 3.6096237847290147 1.936866128663357 -0.12130798958357818 -0.9149748824623855 0.43753748047182717
Ni 3.689374171737489 7.816408099364319 11.01060688787383 1.66580385424006 1.2945170173663512 -0.7486479049659559
Ni 3.9900928394067057 4.5172877947326056 0.5992980069068987 -1.0862998273940387 -0.3983114450916688 0.8032465661474424
Ni 5.695566205597336 1.3050644004721685 5.232715880569581 1.0219286602068207 0.35845266122351815 -1.0807385312561775
Ni 6.789530452228385 3.0234885259692255 0.958713514843629 1.2884528134501423 -1.0852001665719568 -0.9638839494582626
Ni 0.9619016788930449 1.922877642324587 4.13010174866625 -0.2463618193628338 0.042929195263358325 0.6837473476378289
Ni 6.156128162004258 1.5364562372294328 9.54694521167514 0.13556167128911492 0.9723374795422547 -0.35877122090520147
Ni 0.12089751355681679 2.2811387830808227 13.334968251567686 -0.919496681592139 1.2748537346094688 0.8813286551628499
Ni 4.1799200519424895 5.629516407419105 11.995956013691284 0.6165857621896671 0.2674214682466104 0.8504201385094515
Ni 8.347648431256985 1.7039181642153067 8.802887523760266 0.43483859348342524 1.7698923946215583 0.1567743008109881
Ni 6.829456560083004 1.7489912500358826 11.798536082940252 -0.37963058085271395 0.09213651022594455 1.8572011444415562
Ni 6.8858881746162215 5.391931534224387 3.6212776166738747 2.918839207422857 -0.28811242093705863 -3.7588438070259396
P 4.508419440611407 2.495386369491053 6.4826992853668655 -1.0522062281444393 3.8278097926726913 1.0992214205517135
P 4.360767824501695 9.199667684869636 3.7720488938888517 1.3350977670021908 -1.0221281778121363 -0.25186603701051463
P 7.057080734911952 3.565559728761477 9.029870177774391 -0.31728467162564067 1.2893239032011858 0.6352319165359447
P 4.033712551952722 6.582401617717112 0.7968336520906174 0.6351717527219706 0.8611858616663878 -0.5803879721128714
P 8.463631321428684 0.9417210818322818 10.863507923894637 1.1998371718932626 -0.5950975104089041 -0.37321490713435723
P 5.559291632509495 3.9332076242973524 2.3969957759497564 -0.8889997985548624 0.4233388203739419 -2.454585394002108
P 2.790541487236637 0.9778795277585849 13.180064580532562 0.5388407447987043 1.066119495791422 1.5647952383354664
P 1.186276592452117 3.779594400615562 9.112436591216758 1.6033350462818774 -1.5911693574536208 0.03965978048346718
Ni 8.722044792507218 7.85221477341525 10.43917384207363 0.8485280636930612 0.07949208198905665 1.2943758638027965
Ni 0.3928329103815232 8.817828571308922 3.211305084522625 -1.8826553228486032 0.5412498684608291 0.660003724163986
Ni 3.025052985099166 3.543629529478473 4.730814248798325 -0.35677938728615327 -0.028418660352009118 -0.1052625060849413
Ni 6.434861087462781 3.494909124739576 6.991740034777232 1.079518028585515 0.5694759531860579 -1.5759391707674277
Ni 8.14961012257767 5.438606107793363 10.456340309591742 1.3124070102728946 -1.503273110561269 -5.184611012790245
Ni 1.9995268825370267 6.25102325396292 11.626995453630997 0.027823192859855312 -0.5695772546506126 0.3293670567114715
Ni 2.8311803959966144 8.127707694758513 13.102985808345984 2.184643730436805 -0.1452657859507563 -0.02984510838589054
Ni 8.848830782114653 4.66422660993696 1.1924279716938035 -0.33739969720796087 -0.5364534755134502 -1.70598479733432
Ni 2.1856975189998744 2.544884375217613 7.524316174080847 1.6305620003186305 0.8506600224343995 -0.5901787329510482
Ni 1.1686417129104867 5.76384697803779 9.669332201409517 -1.5378009691348098 0.06761667070770935 -0.0864101492651286
Ni 7.4940091755867035 4.01073629419822 12.029651130774528 1.1570398742220782 -0.4771031585795912 1.7554006287632864
Ni 4.951522403414383 0.7160918238228732 7.4767057021802925 -0.2137134372001932 -0.28757557459698213 2.256323258359979
Ni 5.710211024198313 4.975378090857314 10.273281928510466 0.982625491731824 0.16045432076573657 -0.5179268774641724
Ni 4.379458019669438 2.080906528757746 3.1530322219364795 -0.5619359360552709 0.9940211351632752 -0.8185070918509387
Ni 7.95608930535049 0.5762486176309382 0.7342043725426388 0.3676654380710378 0.28211815102683674 2.3394578221976285
Ni 1.90629807840907 5.7111552539690456 0.8504353544580195 -0.27164579074060313 -0.06473600672580464 -0.9410543531582567
Ni 2.7479678331621185 2.0542181520026177 9.722212771432407 1.8903778883038411 1.5426349001883435 0.964958413469364
Ni 4.6483228183083405 3.7003901857293737 8.50913579065432 -1.1852762433599522 -0.755374425056512 -0.023861637108946003
Ni 5.5253549036908 7.86979411002919 12.981669871400568 -1.3598677748580192 0.21090784943059807 1.2529967866353775
Ni 0.8113914534382118 7.4908524858629795 13.00504140965713 -3.651842720983337 0.7915351912477852 1.1277994892997223
Ni 9.057959162022772 4.317148111955679 7.727182088891899 -1.7658477922385396 0.5783172056267717 -0.11456809975658333
Ni 7.559133258303433 8.810524676317664 12.351774191344612 1.0555568897842273 0.6115793101140112 -0.5468682430888712
Ni 8.80509072655864 6.496921052001934 2.6465510757771686 -0.262529944482264 0.1876473362407607 -0.3519169169875294
Ni 3.382980868289261 1.1952004895010049 5.278415675757595 -2.154497288760412 0.44017286121214516 -0.8358584386451926
P 1.7014927897061691 8.111822417439123 10.469319766077472 -0.8022610623057216 0.6776949707961618 -0.46762710076835595
P 2.2595696128278053 9.167110272088578 6.474718692373249 -0.32395257056411947 -2.5467113627050915 0.2865520184284742
P 1.2619353171207486 7.484807563899365 1.8409953326082713 0.7085140130595475 -0.33265549765475616 -0.9654178696042857
P 3.3426104170131192 3.8239454283761654 10.882896108520354 1.500345909612145 0.677705255208807 0.12813375425615997
P 9.24735128829165 2.175440591686422 2.0711346763461216 -0.76722721063004 1.3365149590646916 -0.7604682946396517
P 0.6590409056459111 6.572394633578266 6.49799580765274 -1.3814341881748853 -0.10175115049757315 -1.241878565235029
P 9.006285724961682 5.6058643773777055 12.272540353563658 1.3682814528430114 0.21586056545018306 2.601078367491746
P 8.357275872056615 2.4563489484794765 5.41181682805293 -0.3852307006483107 -0.6644229362776042 0.2978540737048548
