# total energy = -340870.81096041814 ev
CRYSTAL
PRIMVEC
9.28005018313024 0.00000000000000 0.00000000000000
0.00000000000000 9.28005018313024 0.00000000000000
0.00000000000000 0.00000000000000 13.58229148486165
PRIMCOORD
 96 1
Ni 7.757583553861219 5.127979306909075 6.242692416408684 -1.7287100068459775 1.059980986993852 0.2965206996054119
Ni 6.668077844166087 6.833225613897136 9.70007805102023 -0.915713560400623 0.020338454447035942 0.3547556719879052
Ni 2.985976726903359 2.0992865098735507 6.074761559683795 0.4012059930306445 -0.11478690063560876 -0.24683078857945234
Ni 4.054184721857383 5.847619343958627 0.23447623923710648 0.08681895466777306 -1.4721339659543033 -0.2167450249376654
Ni 6.056429748921448 4.824967114435582 4.3892529910324924 0.35864780795345974 -1.297532150043591 -1.2945476134939704
Ni 4.587026632534922 8.56642343147353 9.308419108963747 -0.6789720377363726 -0.29514978739981423 -1.541250618246307
Ni 8.578487496468492 5.666370687484297 8.633284335685614 -0.36515886959910016 -0.5048775004793821 -1.0494268656270895
Ni 0.3330275861809614 8.272876889996084 12.95402828562671 -0.7088459424776695 0.6456924497476364 1.422548441716692
Ni 4.354088097582173 8.984925846148805 2.7680301127193507 -2.1736010994693986 0.034504718645088965 2.6961477350937697
Ni 8.610512949005122 0.9276430776627101 1.6561019462235793 -1.1227467573671632 -0.8278808197563549 1.2508607141289811
Ni 0.4238709235980344 6.649192942423971 5.339620127120715 -0.2675644215823779 0.0038602542863546414 2.3923775530147955
Ni 3.8505061845424184 2.8984658554398943 2.8333607366870757 -0.061957672649719096 1.022733158385987 0.43090660541887077
Ni 3.410845255875976 1.073571863851785 1.0943777359430988 0.12381661493804483 -1.5995652948268 0.38634707364094106
Ni 1.6107104376775305 0.25891246688690434 9.348541405121995 -0.5434815860048252 -0.6450928684904245 0.7464735230224563
Ni 2.843388758712889 6.496183478087851 6.439649413511455 -0.45639009440195594 -0.18319341423446514 -0.07853126073768411
Ni 9.128284058488953 2.937321424773672 0.7585754148132957 -0.4269512203155486 0.25331459653158306 -1.4084906780720452
Ni -0.019819402776725423 4.924235809244138 10.749649849572036 -0.7400521928771447 0.40501482525377347 -0.8525302428739188
Ni 1.7914858116020569 0.7778018223952687 4.057248066361105 0.670903144685309 1.6981473035677719 -1.4739674196186163
Ni 3.5522360976169463 5.314842393631061 4.117009732326154 -0.23105012870642788 -0.16025814559453047 -0.21682652890787818
Ni 2.802408057929998 5.157731147196654 11.735452856570463 -0.09562986809118368 1.2181249144588568 0.1985840377579225
Ni 7.294806020654428 3.3067416550194393 7.866917390895572 1.1510137226326564 1.0679511496835221 0.36956574041754414
Ni 8.661284102533925 1.7720162667101855 7.015090465691208 0.26913485139329135 -1.341195652369813 0.7565067388887423
Ni 3.517500870481448 0.39209696041630004 11.122157552451512 -0.152221391332983 -0.9535283172555513 -0.12035025365599919
Ni 6.4397978943113925 7.264302496317163 0.07248461450973777 0.3853790533007169 1.5871772055750923 2.4735513935816495
P 0.7411409848855746 2.1077591955200132 5.524053696753715 1.081199530052996 0.728307650746707 -1.1903125202322793
P 0.0640713211832503 3.5414433994714516 9.051728286045915 -0.03926460192757754 0.15398953897699932 0.14243371581859987
P 0.7411948091755521 7.671139888147309 7.414572489894425 0.37415541667075564 -0.8617162802485612 1.6767289857929961
P 7.377138624220055 1.182705251806222 3.7769497242581282 -0.18296304339121391 -0.36595231203467293 -1.0252983480100017
P 7.629852945714545 6.914119809713364 4.590461179038488 -0.5955394830423292 -0.056479937364599504 0.18029835207485723
P 0.9067611091614284 6.158166937028973 12.258669499392022 -0.18154122334302283 0.4633490422182924 -1.5434345132715033
P 6.4189085017701135 5.495998249605428 8.009504431081043 0.17342116533904972 -0.6329953138959421 -0.023051482502824818
P 1.7433501922721535 4.739729855221168 5.367014834709279 0.9767556632146083 1.328653296928428 -0.4069359535358863
Ni 5.3843778082520295 7.011337613472775 4.558095148667001 -0.07038472037114975 1.2941573200340872 0.09232651474956356
Ni 0.9484860699540083 4.0024762832789715 12.551476420884775 0.37039003609105237 -1.0314761946859397 1.0901456835026901
Ni 8.33245481097121 1.6154989434755311 9.420989827436749 0.5014558763923429 -0.4135665714785265 1.679323743103366
Ni 1.5791304275407152 3.488240872843664 3.6347023339025166 -0.4245043014369527 -0.8665532966258883 0.5195317600574472
Ni 2.27406697150058 7.8308866687806145 4.437062880607532 -0.022386338115000157 -0.5058133820300902 -0.6274350461993452
Ni 4.8958574163559865 6.735998530087729 2.1789937872952727 -0.7053297017942949 -0.19648473202673258 0.5211510408284251
Ni 2.882578409846527 4.237205867880972 7.852112927136753 -0.2004059214580097 0.19372388145214378 -0.8670266367178809
Ni 6.1251113989427735 3.388359694735364 0.42826224325620105 1.96740325391996 -0.2009777348010797 1.312517824819146
Ni 6.436160114712912 4.1292417662260466 10.176776587226207 0.6780191869048 0.7431681127983072 -0.03294765857061423
Ni 9.106151139248194 8.537432555285633 3.922402443882402 -1.463188069614925 0.2897358154730945 -1.2685709869245507
Ni 0.7348110627832173 6.282742328176963 0.6714459534046723 0.1589034313388489 -0.004236920899483025 3.053978960683205
Ni 4.154724783515408 4.513491516365623 10.027221157498648 -1.0285086274171837 0.2192297390327321 -0.012673995923242688
Ni 8.929533227721931 7.759532364360405 9.544968511369987 0.8092997143200578 1.1948338051414005 -0.49196542040340435
Ni 5.125204571960234 3.4502112279595414 8.124247609258138 -1.6899130885834384 0.09524728794078435 -0.3644122212410627
Ni 4.378875111121825 6.169219476574359 8.454378891835308 0.5937289121961516 0.5632351144826687 -1.8721497953315887
Ni 8.630186654996908 4.853772389623556 4.162687066412083 0.4917255364784563 -0.2683861461527249 -0.05144674581606623
Ni 0.7329968130089747 9.240906745241933 6.013043659179562 -0.4559100694417439 -0.23252311370752857 0.025858612934316755
Ni 8.059185178735301 5.275513541747479 -0.14144745004594586 -0.4891348929331447 -1.0005039146741415 -0.31894586137814745
Ni 7.376581821220286 9.307426143614162 12.145868635679117 -0.13011838878635654 -0.28186181204165656 -1.1440997691216424
Ni 0.43796082350715193 4.239377399580065 6.949963074818399 0.8318937975704899 -0.9944209417048551 0.43128044381852176
Ni 7.244935031975248 3.5691257886098944 2.7053340949455262 -0.7601487065167037 -1.8569016109232666 0.007765759988347915
Ni 2.7072504252697263 8.947722125714337 7.29841688810792 0.8213602450290177 0.13219481169941105 -0.1355033072473537
Ni 1.9148269561005622 4.055660249806767 1.3420297901647043 -1.005761820638971 1.0508767106997385 0.693536822924425
Ni 4.923660446144378 5.238718143512841 6.295623037571586 -0.13588203074301114 0.8108266924875455 0.9129349692142212
P 5.344872635418523 4.632406077015976 2.1232652310585394 -0.7062588984767836 -0.7905124064102256 0.2697532017035806
P 2.674454728583419 6.854263487238353 1.7650868533780784 0.516148188297195 -0.6236519250078291 1.0484390477925234
P 6.249194947440969 6.026520147783936 12.08885015249292 -1.0874326554469014 -2.814255986793127 -2.0379121585738
P 3.919020793663814 8.928790823722242 4.9598312970142775 1.0750602499244775 1.2132555021816978 0.8459052813582335
P 6.088000479008268 0.45561240660478236 10.219098255233538 0.3758425745651914 0.5732261642571096 1.7401848402547964
P 5.030139739799923 3.1817115414216395 5.7370512602747885 0.36313361163895524 0.1384598187725164 0.6385699797702422
P 8.44395461167466 8.086180844174029 1.3356024275373877 0.016385640446875006 -1.4238738453963349 -0.16266495526381017
P 1.4238287908555534 1.77634077000838 1.7697723506211223 0.7418283109409611 -0.14826472067808014 0.7341162870086841
Ni 1.8876456896619105 0.9654221611969375 13.015950347230858 -2.28537466719998 -1.1022908035056564 0.07769770909279523
Ni 5.128044267259048 1.629975821469487 4.319372358551668 -0.041588364964747736 -1.3121511855083468 1.1873693784435548
Ni 1.8643434841216389 6.212046907306479 8.751926062866081 -0.6727494538654285 0.519205744176596 0.33205694483880877
Ni 1.6647296087049774 2.2479529108114824 8.245360613752572 -0.9528937689953458 -0.09255045783491157 -1.6556197146182068
Ni 1.9317073670435148 3.032868819533781 10.449739049807246 0.44036543683892543 0.36135132292755184 0.48074589753850105
Ni 6.597428823545581 8.287910570989808 2.5996371095046547 1.984440411907905 1.47262298977558 0.4528764248217426
Ni 1.24299773663105 6.134799771138729 3.238004324698137 0.13909410992240562 -1.1162097275795937 -1.4260883365491503
Ni 6.978718237736395 9.271419549629194 5.73862701276413 0.571591456867164 1.3777896494437627 -1.6302043598688953
Ni 5.760062072245182 1.5874546323872396 2.069411244921023 1.0298558854736972 -0.5616055492990457 -0.9823598967752629
Ni 7.178712595202897 7.53058425090599 7.0877152089558875 1.1312931042752776 -1.4523837799105697 1.553859051038937
Ni 2.800134445680947 7.734977352070657 13.424627972975236 0.2847967263002643 1.3361570615046408 -0.6116340746113466
Ni 3.7346447603407906 3.155049957782771 0.5616972981354921 0.9626863296057357 1.035923431824016 -1.9768985950049052
Ni 7.348389029332057 2.6843751020292768 5.293276485445063 -0.6105308142448388 0.9344998398691906 -0.055522972767968894
Ni 4.694350410740115 2.335853544374784 10.390085960427152 0.7448570704649559 -0.7545555286996424 -0.4587573090825518
Ni 5.233010912765225 1.4827385482309585 12.758945858623155 0.7025580525864288 -0.7590037942789831 0.20322667873625644
Ni 1.8761384276667146 7.9834785308669085 11.250918246147755 0.47704453742751396 -1.573512049383174 -1.3698840214434407
Ni 4.962042732928353 4.207853069743226 12.391749128356459 0.19737099128642782 0.3384641339167332 -2.6058431358702414
Ni 1.321766800998164 8.674480333628416 1.6471791781523049 0.4959308328090556 0.353619758611249 0.8802685893294516
Ni 7.73892137331901 3.333013476558471 11.998976580300443 0.19506625441265116 0.7695733422647133 -0.6418021135542946
Ni 5.306332587784612 8.009332750156114 11.642033377274467 -0.7072767982183367 -0.09445641660837281 -0.3014505328068615
Ni 8.023651867300135 7.067101433899494 11.724981248154835 1.0746686709130138 -0.5298763365165648 -1.100058571741028
Ni 4.947547294834405 8.105613268865916 6.667655601891262 -0.7295584924346725 -0.035320015457532716 0.5198171525083499
Ni 5.497037615204994 1.1912892980526384 7.332562832068665 -0.9784369075717729 0.41914303712503936 -1.0399829466053703
Ni 7.29626298850382 6.085810387209182 2.08659325748885 0.9594449398503024 -0.66415091356314 0.6066967852107293
P 3.188894300118641 2.1960959914331326 12.080701340591324 0.9795157424582486 2.9783849281969736 0.33737784283108996
P 7.2326296856803864 0.32631347000876454 8.107677151985055 0.7740745725691766 -1.3567436274067406 -0.8754171747744214
P 3.66353173722048 1.4816806225314003 8.504035511359577 -0.3591705132261491 -0.20461507444335084 0.39182609447764133
P 5.195593751180846 8.860155573950896 0.9058312481518167 0.06236699227299581 0.5823234985726874 -1.84838663147372
P 9.002103218691634 4.514837123615061 2.095951259904943 1.4277037606653864 2.232154631533575 -0.5107355019220559
P 3.530938382875838 6.7479697945827315 10.208966296647768 -0.5154516764508027 0.8707531936398488 2.0125960484065146
P 0.1643042131864032 0.12439907019806355 11.13667711867545 -0.04465877635995535 0.3346064507335399 -1.2805417861331818
P 7.666444182849269 1.7286969933282712 13.24102218380189 -1.0584429530827708 0.4561473822635305 2.0191302499806065
