# total energy = -381169.4206238752 ev
CRYSTAL
PRIMVEC
9.23702928202155 0.00000000000000 0.00000000000000
0.00000000000000 9.23702928202155 0.00000000000000
0.00000000000000 0.00000000000000 13.51932604746388
PRIMCOORD
 96 1
Ni 8.293208278756193 8.040704840983361 0.8909077982080226 -1.7253248924238287 0.6284367479909823 -0.18871948625901694
Ni 2.4793110818190573 6.7295362178658555 12.31063071349789 0.16810695221498792 -0.08814692945057723 -0.9934873741469923
Ni 7.2277815878346345 5.522847635158376 6.580775705550817 0.26824036460347994 -1.1540555947827738 -0.6555042936317356
Ni 5.03366379110616 7.879490965527946 10.939865699900192 -0.32786501824464825 -0.01695513979709983 0.432650584693171
Ni 8.307544148503904 5.928177725621855 8.729347557335982 -1.9212082434211364 -1.1233813056273685 1.757000883370871
Ni 8.563927138656915 2.46865154980304 8.131333955693199 0.26324753937457884 -0.16716567134764115 -2.262447883200478
Ni 9.152787767791317 6.383757256438134 4.551551816821242 0.4045705386275032 0.3736810481374984 -0.5528635414403575
Ni 1.7285253259595401 2.0030406049751526 12.877901633636592 -0.004084968702651029 -0.7297675231216851 -0.9230944262457264
Ni 6.371222607438364 2.956348232109521 -0.05796235996577842 -0.5156522224973829 -0.00922306126016476 0.7775473616091254
Ni 5.232573983855654 1.197636293820393 12.182683999702515 -0.7524608509541428 0.2889745118270378 -0.4572251887087416
Ni 3.5006309569897645 2.9378926472152385 5.647143874904593 -0.2993658823636908 0.09063987107576002 2.6250762730682404
Ni 4.276837017968934 5.480542040155466 0.4121959744734479 1.1600192685653763 -1.222281616939708 -1.2288186467272773
Ni 1.0349167825602892 3.2830157795501194 4.673063092180257 1.7936861546070466 0.5909364370526791 -0.975620006948268
Ni 5.279304115977864 3.3735386684209767 4.187989726245136 0.5959596012988834 0.027178360187004806 -0.4709754484152985
Ni 8.95096791075669 6.902942972230406 6.820256779167512 -0.18692202803896193 -1.2750794774670298 1.1904678148632208
Ni 1.596962315124069 0.5828463992421762 2.508118605647786 0.09666396578265288 -0.03231542430325402 -0.06272206161956939
Ni 8.681569946071123 1.0690383694469163 1.1067688637500581 -0.07825023916215557 -0.39383078361249596 -1.034951811939366
Ni 2.975191772241822 7.118821588128448 1.0833640784622032 0.5333141585535203 1.2852595033238252 1.0504401373829522
Ni 1.6434522844798878 0.7740436723786936 4.9947823629302315 1.7863502830672653 -0.3694148166619767 -1.4265241385349883
Ni 1.117606670434974 7.526470172990556 2.565075976806509 -1.2078063061416682 -0.762768403527738 -0.5540123103328202
Ni 2.3586754768544256 7.285078881678096 7.83499065232139 -0.7276800444650371 -1.0133797421955453 0.9054970248789374
Ni 0.6766493572801804 3.084068638682719 10.630610876725965 0.8078118169206218 0.5437770057580571 -1.3645849778280306
Ni 4.655970892836724 2.9270945597570717 9.693019131543116 -1.325144255333905 0.3058430054476023 -0.7054646847102625
Ni 4.990794737305175 0.6089086779104541 9.754477707165794 0.4182909735373893 1.0785605497682522 0.0705667544749688
P 6.550910541847014 2.158047196622281 2.233757585024433 0.27467043649953987 0.4514867435630676 -0.1669792663684479
Ni 0.5279220982712575 6.480699880795241 0.5118404299524654 0.05221833387476813 -2.865624313962775 -1.2175788121473998
P 3.2510648945904976 8.47238817654363 2.879589440861773 0.19115509228370306 0.3574185635320489 -0.5112582071947452
Ni 8.420226671089168 3.40581284941228 0.9982208355585285 -0.5211404993054638 0.9904807261101846 1.9757979057415587
P 5.563933942270373 6.890805515498131 6.625159632185966 -0.973078471473337 2.137183737182629 -0.6557464915495287
P 1.7221610126501503 6.53030272908468 9.843461706925847 0.8993562020885221 0.9142166641401223 0.1381983375810136
P 4.1207958790204255 1.6105038003367913 7.1734623122944345 -0.2184141851099722 0.32973652423574823 2.8685975376584856
Ni 4.394987862004356 5.479609100178328 2.716830210374919 -1.1222173672262543 0.6648751933236743 1.5878804022897042
Ni 7.573181831053814 0.2431989779810343 12.234719881556096 0.09496678058588805 1.2380553348341967 0.07124064061354182
Ni 0.7640935442264807 4.752211502953607 2.9985051109378587 -1.659589240788916 0.4727420533974181 0.17237086969766444
Ni 6.16089544625577 4.3156048306823 8.446388709675793 0.5692453252324906 -0.44825563822027964 0.28472062164669026
Ni 7.077291903601572 8.53507065857196 5.471677262966756 -1.583212050279757 -1.085586346266782 -0.4586462374259843
Ni 5.358345377209285 4.7081508723501395 11.997915699081723 0.5212181466209347 -0.4213143337447454 1.8516694159900495
Ni 5.000687595874633 0.7275250682314975 5.599245258553589 0.7192010604597485 -0.459051443284203 -1.9536797336862803
Ni 1.9679121818755745 0.3564615860174298 7.157185742653685 0.7500201027231341 0.5607938520310277 1.3729050676579517
Ni 3.411761496395222 0.6964008974100329 0.8709862967358004 0.947071505886614 0.39741027343363816 0.12730663036917428
Ni 7.1199023205772125 7.182002869748515 12.159701346661741 -0.3135938530376147 -0.29101828172994393 -0.08846111825688636
Ni 4.882712255399268 7.775694465299188 4.0943955250733035 1.0348232567813016 -0.19363517839307942 -0.09555067811381608
Ni 7.952971535014442 4.118745258476616 4.213190190063246 0.1609464299108067 -0.9505872323493564 1.2129091745858724
Ni 2.687070348807151 5.503837828495496 6.200098323057485 -0.7607300329414705 -0.3399659152732403 -1.0810038691024222
Ni 5.349330036440106 7.516180122153604 1.5335510314700336 0.3162354044255199 -0.4642275881685038 0.7771940920347647
Ni 9.098390901203514 8.910001685027888 3.9153588012427534 -0.477598610158771 0.35987345283044475 1.219472172515371
Ni 4.742577281209495 6.767675912574811 8.830107845975776 -1.9362209147798846 0.053696203971875266 -3.269753394177485
Ni 9.103729904241 2.0171732600743786 3.118178217431027 -0.35311273706784346 0.7237627116885019 0.5657838490464514
Ni 6.890075790169478 7.919764414046 8.077527335288952 -0.108910901470806 -0.3714151349214571 0.4964648509356546
Ni 6.114442425017858 5.938938864962115 10.106061217916622 4.7613472686286125 -0.6447593964104057 1.7610629692553863
Ni 3.12323364366358 9.210334461430648 12.02687378649092 -0.09890879595277159 -0.7154343943284646 0.6595571235448705
Ni 6.189594896839623 0.4385464484613963 0.6874834691533058 0.2880268032017878 0.1043353662849816 0.8652641455008195
Ni 5.004142244898889 4.894498705011432 6.420260149523834 -1.5051559294062788 0.08824591692228673 -0.9038625745993079
Ni 2.7824796262711393 4.06476405821526 11.998875426444345 -0.3923608839351888 0.3069984592082842 -0.002066652721041602
Ni 4.309231280343434 8.710657351892994 7.872425561681281 0.5271566235925567 1.3355747066386094 -1.223711664518015
Ni 0.6470160430162419 5.319826964291788 11.240833060227995 1.0432328210012356 0.9563493316441142 0.9640341018828817
P 4.1195211689526525 2.95848198591862 13.22651082089595 0.2456514235593705 -0.6016306835417317 -0.3112479785132575
Ni 6.397548141446726 0.9416966810822595 7.6002001422729215 0.015630764558721467 1.1062425890645529 0.11167329470729154
P 3.016915434387706 4.265641738243273 4.087919443707246 0.036597339508059545 1.7543565037694882 -1.1705103979046874
Ni 7.110286572892052 1.4666832513858479 4.31247624879857 -0.6985761851205452 0.26012339192330036 -0.18298644042998163
P 7.420835503895952 8.238137109016595 10.303308745360324 -0.10703091083927374 -0.14497345152131808 -0.2414538405382551
P 0.7866318961494289 0.9297716760279455 8.819102849057332 -0.1394589494609921 0.5196646860908857 -0.025029946385434314
P 4.9007706480260556 8.008661585728973 13.080813307555358 -0.7094010436501912 0.7534473832371282 -0.524429968690013
Ni 8.540520505963165 2.6300686399069413 12.315930921011574 -0.6035137594970573 -1.4143142267323578 0.5764037906541428
Ni 9.079870657102894 1.7260313280008535 5.705547764879353 -2.8793838296407124 0.7661368057793386 0.04911244125593477
Ni 1.400185876183674 3.0065053021675574 6.869750630509127 0.6265932670243402 0.48283054798167163 1.9902703883261206
Ni 6.732926207683775 6.232297684110027 4.253774926474662 -0.42970461469096966 0.418674325018737 -0.3922701239935954
Ni 3.2743699199600047 2.057141886619705 3.5883134592965615 -2.3418222086647478 0.7086595374984762 -0.7964040893043123
Ni 4.068274129416375 5.504124176409271 10.509437676645796 -4.063256507784919 -0.2696053632718067 -0.6715595473223853
Ni 2.123750106175598 5.01711103428406 1.4279108201577433 2.234055190990398 -0.498193146480671 -1.6428387608034545
Ni 4.912861919610949 0.7714794729959846 3.1028743069941664 1.8536008286848076 -0.9690364401934795 -1.0194200348523539
Ni 3.379672055993451 4.37285593937838 8.055423123751403 0.27876620383546824 -0.5651403019251815 1.3066842488565045
Ni 1.6842614807075864 2.677352993797749 1.4557207448029974 -0.13067888927551685 0.45197165361928615 1.6544583473202539
Ni 1.4252644112126922 8.570836436705425 0.39850669678909995 -0.09383189565049647 2.349530890162915 -0.33685153801397477
Ni 0.6433627978582396 0.864872306925227 10.931186587003962 0.6409675334681413 -1.7352400946550115 1.4750115446124146
Ni 2.64350851779542 9.088267116897141 9.697236759202141 -0.5202778941948524 -1.650049933839913 -0.917590979928994
Ni 7.811321687990504 4.821479986998766 11.81501235471226 -1.030528743171006 0.06403949487941228 0.12677441201478812
Ni 6.449644987694851 4.602765603051403 2.4808906138595592 0.971592888066746 -0.7593827748849566 -1.1071062226164288
Ni 0.9767327338870718 4.728490811257652 8.877438385013967 1.0730532467967777 -0.687860598475254 -1.1018426602246443
Ni 7.077698332898544 5.784504969142536 0.4528934026444795 -0.003244989299858928 -0.6890155380153037 0.5968818560028366
Ni 0.04745985745086367 7.993605227682086 8.966977530245563 0.7122343993339282 0.847439715724889 1.4028969860343519
Ni 4.371932236430718 3.25439022520208 1.8244056919268359 0.19936102513326312 -0.542057451963789 -0.5559951450908037
Ni 2.6032720173952724 6.666336462186835 4.033315667659166 -0.13153583795917348 -1.3856497689181297 -0.0022106344980736123
Ni 8.647762418186701 9.164029232664362 6.853014056800443 1.009104768969275 0.9176961380482905 1.6518201383664584
Ni 7.085623704189483 8.54583179791222 2.9236491477622932 -0.5434569034144769 -0.3180053518417491 0.05796732054340339
Ni 7.8865111079301755 1.1282846765099446 9.858576258258436 -1.7035155098582209 -0.6980794479897848 0.16953108625602417
Ni 3.3470376308525593 8.054458777874045 5.763640366960751 0.05105619524586691 -0.12851324908276576 0.5094851744547226
Ni 6.4219061881765676 3.1639689436554654 6.266802607719934 1.3131870829720287 -1.5234089620791957 -0.058600583252028104
P 9.22043053464859 4.560099763898904 6.146994640596408 -0.2235605051976021 -0.008095375413624768 0.071870817998373
Ni 6.476284580705418 3.038511609304039 10.955291539126145 1.137324398071022 -1.1829805053472402 -0.33839728523453977
P 1.1683087252321307 7.822387649303494 5.885611646387702 2.16107956996362 1.511676504133616 -2.168689263990078
Ni 0.21616681121771153 8.0395040271514 12.120589916451845 -0.11864664070133114 -0.9425008557967962 -1.3833239489984306
P 0.7524456500564654 4.104852766143782 13.366855475654843 1.347904431848556 0.7049208963916505 -1.1220746710008032
P 8.062319489958647 3.765244140406443 9.631668629165315 -0.6922618128667433 1.658263837109273 1.1640708129269308
P 8.098223823534262 6.349875832317899 2.386769902007559 -0.04747824808662146 0.023793759985488053 0.5363912548169472
Ni 2.7660931359796184 1.865150228948198 10.645604422972413 0.9522617918383021 1.3663832073790338 0.3231694125411918
