# total energy = -340894.86721262435 ev
CRYSTAL
PRIMVEC
9.08511603727929 0.00000000000000 0.00000000000000

0.00000000000000 9.08511603727929 0.00000000000000

0.00000000000000 0.00000000000000 13.29698565816570

PRIMCOORD
 96 1
Ni 6.499628212724691 1.8311051155967675 11.482851549047197 -0.854733935393457 0.6702930219051358 0.06950694575188675
Ni 4.465897756551616 0.15017060673397992 6.177048452484427 0.09801199517011507 0.4563574413918076 -1.7035905860705305
Ni 2.6048662690829767 1.5944015051687934 4.793058232243548 0.30749262523588333 0.005634572577958038 0.7041871035494195
Ni 3.634137222971287 4.268341910663986 5.109047649388531 0.1612575333933223 -0.5207754026565611 -1.3236954387025204
Ni 5.132926968097707 4.37302970151996 2.5706262841677643 0.2883381637946195 0.08425273660249362 0.2011397143002407
Ni 7.085163934382898 5.9692754852224486 2.5036099265135863 0.2021414160918777 1.0291274919481048 -0.04626494450481064
Ni 5.043447661307766 4.517174150857883 11.489140266293617 0.2628860422701021 -0.2893933445320112 -0.2165979578368399
Ni 5.597585222313518 7.811473527369172 12.576820339004467 -0.07883310824881908 0.233849545828436 0.38000750457615845
Ni 1.9187219736211545 6.530526692001022 0.36527707957427535 0.22976097758135913 -0.3735476078834276 -0.166073723835043
Ni 2.7082730585928867 1.6031413866930013 0.39523524935190046 -0.2583894399513292 -0.26120531213356946 -0.5496833439401629
Ni 0.3379545019278069 9.163793033479708 5.061909525388164 1.283225760723248 -0.6897331329076185 -0.979724773145261
Ni 8.834920921946654 2.3038672932217192 1.429918206799432 -1.5190028625917 0.9173660084023815 -0.9585391402065815
Ni 7.11738884058494 0.6117726279510969 4.800464418749301 -1.5260237739942235 0.049120411675734756 -0.48794858593452745
Ni 0.7113482240735243 7.336285623791036 2.4456614230686724 0.3454410794551986 0.5570302712235373 -0.4129654475594179
Ni 7.7404006654524595 3.983896016026333 3.6090677540753426 0.2882538316109294 -0.8670091532163843 1.2795675951453704
Ni 7.507458293019311 3.750026961768372 12.57917429254181 1.195720835732044 0.6795168544962491 0.19500583348836092
Ni 7.748259290731503 8.983962248770593 7.0771608557605745 0.7574071392158246 -0.10585540247393382 0.5615353581827426
Ni 6.635396185175587 0.8724554933634724 0.37215905489089435 0.6637786178253859 -1.058194070296758 0.28647771354711304
Ni 1.8785748463285614 6.667284942088237 9.120854050061972 0.6336458029957475 -0.4652105209070633 0.25915794268623754
Ni 0.17592781890579035 5.021979532366287 1.3706269232201334 -0.7930871091159374 -0.8518075057752813 0.10292537331133242
Ni 6.5500869465973 2.0755401596807714 7.131452600043853 -0.4240515301702503 -0.3434695575511246 0.2280375671323492
Ni 3.325534005077013 4.171994256231321 0.32591672332117966 0.036117828768479736 0.11708083887610804 0.2757212463615574
Ni 6.162170666638229 5.635570092014882 4.837696132340108 -0.2762897172705177 0.47118447910231115 -0.3520974084294517
Ni 5.005735345084287 2.70685578050788 9.63254867497974 1.010252509420473 -0.17636816378251563 -0.6626573597367491
P 0.19462498748876306 5.750996489899562 12.57425470226597 0.08164255267315618 -0.16323394039340275 -0.8617394201770125
P 4.086076314885756 5.996721620445559 12.703088914239448 -0.2329892547106697 1.6714453687965538 0.35491610882516944
P 2.3829713976201368 8.542852615044124 1.3231871733709069 0.07380120225186644 0.05944030554450408 1.2748879302815141
P 6.407423371155891 7.823066135295253 5.798549803697907 -0.11266779741007693 -0.9183000901808767 -0.6232927418961975
P 4.5521064216069265 1.0736699154359235 12.548710990318503 1.167234555366893 -0.18808108134406964 0.9733283827006142
P 4.210787701250414 6.209767588993036 8.311121288564381 -1.0492602581422381 -0.2770201676786391 0.2893434651306823
P 4.651543015455632 1.04319843660828 3.815118183357082 -0.41292842367389526 0.12030011714435412 0.5517960194077915
P 0.25484113586968776 5.6732914933542915 3.702745292936319 -0.2614336260942917 -0.7401102998085899 -0.10749499495988583
Ni 1.5515015877495528 1.2993351100095187 2.551438519324597 0.30287723795105903 -1.6086045222109326 0.4203841086209922
Ni 1.9506743263453117 6.442355641904935 4.907518882304918 0.5721398731714663 0.38183144515877465 -0.7384429394084959
Ni 6.215473041796781 5.85984526385126 9.400516631162729 -0.8862317488914222 -0.5725743896057236 -1.0345494342946249
Ni 8.65677996880043 2.528142465058096 10.309298960570427 0.20776493292624218 0.5063193751322311 0.15969764510537013
Ni 2.5669086547294007 5.307152236278304 6.938087718134516 -1.0471529819912482 0.1516164107591324 1.5577007933825302
Ni 0.49330089920684 9.29598147025437 9.385504385600774 -0.0749024057358452 0.05507302971474386 -0.2349036981245632
Ni 1.3259726699149006 1.1160792365949694 11.49225191849948 0.3238073032355068 0.7032540502121888 0.009771477564467043
Ni 4.077654412419082 6.701508573794776 1.6326571113248582 0.7217539087885892 0.9187130093485791 -0.11211912399545852
Ni 5.663606759773413 7.739083323642677 7.8944070081318864 0.31564893579443054 1.3618158997233256 0.950506242599776
Ni 5.617499796431048 2.7150323848444575 4.9868882720884775 -0.9105016771823803 0.10194346901403734 -0.6941117215912884
Ni 0.6198111385255449 7.418287880170974 6.982127817602913 -0.15951869632534463 -0.0955229101996742 0.15584124747375738
Ni 5.2028914458710185 4.5986131300501905 7.088928806424095 0.6494228633243462 -0.01041193936194336 0.3661729126859113
Ni 8.328471134455006 7.30470576081999 9.238718893062137 -0.1204268725302055 -0.307957994908076 -0.2325387974368124
Ni 4.662526920614433 0.30144414654180474 10.510442518738628 -0.25660843679150647 0.006745546253949674 -0.61955487212032
Ni 8.082727833677149 7.377668326850046 4.250979345611062 -0.6338427494979019 -0.006010982080770293 0.62257000479756
Ni 7.410556446514944 6.213020060495809 7.110443269456816 0.2723003936054665 -0.7223738017607753 -0.671302694116573
Ni 2.3822536734617037 5.13846888881472 2.52754375591834 0.25489505364482556 0.48393972188545037 0.5700125424158183
Ni 2.447157741662266 5.34917089745238 11.343698462400958 0.23180474748426527 -0.43085235514216763 0.39456689044757215
Ni 1.062277180060293 3.5301853265056056 3.824957363908763 0.3899952119164896 -0.55966668040512 0.3933903536409677
Ni 3.6331196899871796 2.6037306295917855 2.5534599576189176 0.02171836551369808 0.21772924322780565 0.2685190721861634
Ni 1.0284078678750053 3.4307850731206178 8.282306934882286 -0.3278976712547966 0.1334687933158282 -0.9337552483936821
Ni 3.8944439645841804 2.581490265796296 6.899433275389145 0.1050071955410256 -0.4644569305704904 0.4553662811231319
Ni 4.256049748811333 6.740311103929799 6.057414737412783 0.10330821057204786 0.6928040585234585 -0.7570420425669221
Ni 0.9817285422290801 7.490432785767371 11.192312267155605 -0.5122948759893758 -0.47071602410632485 0.7649468992362954
P 0.3196997784906023 5.535043284254633 8.082319911971913 -0.8028755559612689 0.6523215250283798 0.08359376286225603
P 8.555562692229536 1.7835990444012553 8.180331959642869 -0.7728234737708948 -0.5709201418317522 -0.2963183537866187
P 1.8503746464833004 3.3406607230996803 10.315189749739135 -0.5510853664940123 0.09292892422025285 0.8797762230740656
P 4.115730133279742 5.900610179027061 3.7658259783698247 -0.17146635560552403 1.1804937343696444 0.24555834962493192
P 6.8453259589592355 3.9676064031646856 10.413933149242418 0.054997953502434305 -0.22793446589558164 0.05307733944095376
P 6.502426428430986 7.834240827888574 10.359655032633032 -0.8793278226827372 0.2332427654823725 0.4538745270689538
P 2.262075759945881 8.39641871649196 6.002298973114698 1.2189065298198878 -0.22868368535678035 -1.5991084097950397
P 7.100290652405565 3.811705813813951 1.5473569578625013 -0.7798523555932182 0.6646551068930683 -0.4642196177487038
Ni 5.430555365949109 2.9265157134520563 0.38897833001123316 -0.9117602321798297 0.056496649535147866 0.12292032837602054
Ni 1.273660572392667 0.841051881641459 7.116067864728787 0.11003473066260405 1.4852172815008229 0.45040662312501145
Ni 6.906505129628691 0.7459988562287516 9.479925995456378 -0.0760959118233141 -0.551556649703476 -1.7169492667656236
Ni 2.6587046660813716 1.697917316069858 9.001819952641679 0.7215417927777832 -0.5368239714789915 0.8434251952488572
Ni 6.383320558594848 1.9672092373370562 2.7275707533388016 0.4790209444275944 0.09109032834961732 -0.5305278540576347
Ni 4.243048947916175 6.972708369407176 10.616938247664578 -0.21497739151428139 -0.1756603390822136 -0.8207503793591605
Ni 7.906358478137183 7.204069931668586 0.399264498266647 0.4555974232973315 0.10539440367711526 -0.09175881517155164
Ni 7.5093934227123 3.943612611994797 8.328313961949425 0.9532971750813517 0.1543842033122567 -0.16893870408766387
Ni 2.9509455901865627 8.361295658308396 12.485031595745241 1.3666788842425817 0.4925138367077067 -0.5754031173037704
Ni 0.2842623752958776 5.063507597280169 10.343525317811746 -0.40899977804345045 -0.6282768253743503 -0.3748442152076641
Ni 8.639136673665282 2.27079747123823 5.790584882562488 0.4977496311853492 1.2285849334499164 0.2786507613035265
Ni 3.4616199565854426 2.7079732497672127 11.573802644617722 0.031019331199649804 -0.11427499399619674 -0.1555399141832547
Ni 1.1117092958328656 3.389547731916481 12.598561021423833 -0.7710468414864462 0.5119102389564475 0.006725234538975514
Ni 3.12070098132983 8.388233027039453 8.083343804537172 0.8894091181781393 0.1882075796196049 0.32758091134532613
Ni 5.302527912270173 7.975014699216642 3.7019203644099177 0.9274462754565188 -0.5319162497647291 0.39669422120322007
Ni 2.9198744937075696 8.398708165706202 3.6154636756897314 -0.3333080436370905 0.1995849682186111 -0.06188953841594503
Ni 3.3772737402956863 4.306971823596348 9.039835711737203 0.12292032837602054 0.16336712353715735 0.315655877772966
Ni 7.399717903211014 6.050469166284659 11.412323794086255 -0.011830931196657042 0.21341596056443246 1.3518929841826588
Ni 0.5797366921603883 -0.20425066781610005 0.13532643581672085 0.02227038136242616 0.46900598339375354 0.7450527314155297
Ni 4.508216226551367 0.43834321592592723 1.6069008076646407 0.06522091678202316 -1.1272125064480008 0.0505723136309129
Ni 6.0677218014348355 5.514774390615853 0.4084250206583921 -0.636030244067524 -0.26263484549124444 -0.731286787979689
Ni 8.064021579978245 8.818304244911545 11.631803841735024 -0.4463975019656183 -0.015153053591354548 -0.3844632263546669
Ni 0.316321932388003 4.876990167246919 5.8698616041635665 -0.953051891839765 -0.6712484438398698 0.39209374631673116
Ni 8.109910500538302 9.13244938352283 2.20102378089944 0.20258441716656725 -0.40954819434775275 0.45135150353678394
P 8.769508087254039 1.6164874219934808 3.5997863996417343 -0.8070119467271457 0.2955007429813298 0.8845469049898315
P 1.6826906617719657 3.2811713839931183 1.5693502065047074 1.1816337615113583 0.2499204832483696 -0.24714806270955497
P 4.86516134630667 0.974560385760681 8.140228440906737 0.006469666884743696 0.4053503542163213 1.1095608548045086
P 8.48744249298992 1.7558894408161887 12.529416929618959 0.11947659280179423 -1.186785223805311 0.06336072364483282
P 6.309204182841743 7.991367907889796 1.6713642477426207 -0.5761320250499948 -0.19257434122873285 -0.480315751979618
P 1.9724240938806064 3.2927549068032684 6.241778086459143 -0.6797431115744422 -0.7750875872147233 -1.1394105911760892
P 7.099164098030304 3.992045365015121 5.9195917117386285 0.4317111035980371 0.5202048748650718 0.9075613636071338
P 2.4973166667092013 8.817722797492054 10.226246464789035 0.09604510125173137 -0.7462917460289534 -0.1713617117068597
