# total energy = -381165.2410660638 ev
CRYSTAL
PRIMVEC
9.27418635580102 0.00000000000000 0.00000000000000
0.00000000000000 9.27418635580102 0.00000000000000
0.00000000000000 0.00000000000000 13.57370918083807
PRIMCOORD
 96 1
Ni 7.4861880066082 5.592538300734371 4.339881392280698 0.21365481604811593 1.4385072790387936 -0.9265553882111335
Ni 7.452791662161489 8.350291755881564 12.582842064042232 1.797226049439505 -0.6750927572866244 -0.7771218440359325
Ni 3.1633136169507665 0.48558154986911006 12.49599672978289 -1.9372146461517217 2.079999317551837 -1.7568594726970002
Ni 4.52381818169489 6.7227833709150575 10.254706009658559 -0.3267535303480244 -0.17855360146960864 0.5422826806007177
Ni 3.836128002003677 9.047117008963506 5.25626929358205 1.9769443606411758 -1.030044861556052 -0.39016259073228937
Ni 1.5497350596318458 8.115645571253342 2.3359133869171407 -0.052527637585070834 0.14195446218933616 1.0562595722782067
Ni 5.131546328112139 1.0498193275975491 1.0269853537952036 -0.8546511458716637 1.0153497214377223 0.5016168274502393
Ni 6.2070551514379275 3.7161756779065493 7.555777790054558 -2.4606141166946913 -1.9840827714581701 -2.090120208035923
Ni 9.003110995522894 1.1096100059224436 12.503883497713323 1.5807682167249548 0.3999854903599821 -1.9871045890036294
Ni 2.015429044649102 6.914211847928264 0.3401094476509006 -0.07620929747272681 0.8900236118336866 0.16880192139948347
Ni 8.086682287802335 7.5745339041920285 7.788213936115258 -1.4988747243832572 -0.9450794151572497 2.659990311336606
Ni 6.550135120923398 8.063506096529819 9.908603582895893 -0.225461835985373 0.030933456354062857 0.6661548313670462
Ni 9.076729485447357 6.301317979806817 12.856528862828434 0.21018665499385736 0.33247963419852417 0.5308109325156922
Ni 1.3359557939164524 4.766792585515878 0.18920916425950035 -0.25925975837142445 -1.591623157161588 1.094862115141753
Ni 0.21141342081998776 1.1575019033739335 8.137194142850657 0.6408778019678123 -1.691082940521823 -0.43761204246350444
Ni 9.001311803403299 9.044937575210387 10.12643474055485 -2.3729793509938424 -0.687884509734654 0.29664874054284396
Ni 0.7057405282601193 6.6251169162168315 10.409677660784507 0.3717054124683663 1.9084877105306743 -0.4408238645325827
Ni 4.503155294878097 8.43094935311929 7.756818033628324 -0.28530040540956025 -1.0786770207414584 0.7563753555172006
Ni 2.383883187532572 5.56079276142832 11.78173507925739 0.6643018373187075 -0.5290361000034566 0.13422932563093656
Ni 5.734294236548861 5.812679658171631 8.122941573523885 -0.31098649732175476 2.4863205203218595 0.32952132290114866
Ni 5.943278748007395 0.817922939172728 6.313701800617617 -0.8822876766420095 0.7948272317354956 -1.2314062049487955
Ni 5.4566529247740245 1.8694811766796797 9.15588744677921 0.7118525905144771 -0.058789302224066496 0.021773901341981854
Ni 2.8415271789425676 1.697250265066276 4.877942779506265 0.4786617613159628 0.45474407415810075 0.2679768265294482
Ni 3.1702321598436427 2.772017153497386 2.9004034225097706 0.9266114382600493 0.7619543922668749 -1.5403077947170634
P 0.4422636810433125 8.798058739006155 4.699530622801572 1.1273719148440002 0.8326890397782756 -0.9186379331362695
Ni 5.1544350196129685 4.094543925820159 9.680198925569151 0.3946643352573848 1.4187403808245116 1.1693161204862699
P 1.4890262368747869 3.2212216354804144 11.04132949788066 -0.5294618746869656 0.38891072060305926 -1.439070093520799
Ni 5.540018584377325 1.864751341726105 3.458228100492333 -0.15804391155203104 -0.14326058259526941 0.3028193881299301
P 6.132648355687869 7.635632242768793 6.69547645711642 -0.38078372062055066 -0.322362086148548 -0.8204557309368773
P 4.963757751680623 8.099471390549352 2.352594865605366 0.8155721775923309 0.30115588438457813 -0.23879197743537584
P 2.2115595340573333 1.001296785485583 0.9600535521090297 -0.5681477212929377 -0.0797885301835529 0.004578620509617921
Ni 0.6772010751176969 5.317484486904727 7.857154526528774 0.010675734546291291 1.008023105869322 -0.18417557564207634
Ni 6.920277165692261 0.2543575399425911 8.197868651118837 1.0202862395073913 1.0027600576981697 0.4729719100200371
Ni 6.966564628934008 5.493666201832293 12.3832541580248 1.5581507364357552 1.313857369566176 -0.5997861741338251
Ni 8.407328000909965 2.588768508698008 9.71479813196386 -0.23262184406892195 -2.048427456282827 0.7892014009082859
Ni 1.517442343340969 0.9787605130597269 10.38267957738578 1.2193641861825968 1.4701362187979843 0.24794459046892134
Ni 7.589585908367816 4.877860239249233 1.4295147115540152 -0.09111218272648824 0.7658681254989843 -0.7991250877799012
Ni 3.6438277514892237 3.3346449325043728 8.078501528169888 0.12819031852570828 0.8644596473216531 1.140387610377378
Ni 8.053230298238523 3.6856914279214514 3.446079844010593 0.007689398224457726 -1.4321471411487208 -0.3750483607986702
Ni 3.864293705442906 5.370180412799258 0.571755433048768 -0.454116982097063 1.3339417990208768 1.8375201210728613
Ni 0.15440036125704554 2.8128142985185134 1.3815189432172705 0.31019614020997544 0.3123373549226943 0.5934494332825199
Ni 0.6384210655914759 1.691082931254262 5.5585827228607965 -1.897726872469745 -1.4729155813153343 0.8718664813086856
Ni 0.434421429206562 6.9781017165462575 6.032509402953128 0.18897608235451324 0.12924884169720968 -0.216814187612704
Ni 5.298908291979217 3.6704817625805446 1.9401041044668785 -0.007282392594026167 -0.40102755847125127 0.3362565847424531
Ni 5.1621140457728885 6.689618881122933 4.695200505272505 -0.12530168412400355 0.06400427076610267 1.9488771700913143
Ni 8.216632184605254 7.66939028047666 3.49273271018797 -0.3625299166166853 1.102319856971379 -0.05643108640453507
Ni 2.7384167769546384 6.947589644002608 5.459074414786531 0.34862899026487704 -0.1384359075131164 0.06233305371126684
Ni 0.6054726643374272 0.9907056648640489 2.7455402793621695 0.317023447544454 -0.038077523598011837 2.1710073706002935
Ni 7.774123665046698 4.5260810831236595 8.768032633818521 0.6789416987190694 2.1015960698860066 1.5059136335079097
Ni 8.238139022364743 2.776274004955603 7.094190414679348 0.03833849056888236 -0.3638643191573927 -0.47546922252059404
Ni 5.602118535061906 5.746007533698595 2.7356864565422216 0.4422428563672964 0.667749686657992 -0.9853477757589932
Ni 5.138891483569456 1.5247040311226336 11.83854132446844 0.034389276113147224 1.4002716325963627 -0.84807786352952
Ni 9.221221306185972 4.697468043794366 10.76481963682021 -1.0319441354612937 -2.8342697109108927 0.8815731670734882
Ni 0.7986521077020753 5.523074646220107 4.2246403547647775 1.5760294164883888 -1.8657094390228837 2.893156200834456
Ni 7.9070969465454315 8.536869833520813 5.799488983162869 -0.8559930046115387 1.5950398961526207 -0.738529071364399
Ni 1.9168629938910782 9.103327851421577 6.39574125159668 -1.316412531887862 -0.6863732152964502 0.45962119974474397
P 7.073913334007788 1.0375495792768055 11.04883602417757 0.9639268868810561 -0.2600110347151522 -0.8640891513561119
Ni 0.22806151243795236 6.232401502277378 2.4149257435259157 -0.4338404912362141 -0.6851066898792006 -4.76119068844609
P 2.9798980368000865 7.629956440824504 11.998588737692607 0.8285217957744634 -0.08765379186424259 0.503243564420385
Ni 3.996061342737787 0.25267334773167116 9.92082046835539 0.4559411797899954 0.16812726392996208 0.4824523387066465
P 2.909813011811529 6.825068370332657 8.004578844938607 -0.3329074657645621 -0.3148801759492061 -0.42737108146178654
P 2.0594721548344475 4.584972165388756 2.318308199285041 -0.3789152999532442 0.5521012093530362 0.1144688551745577
P 7.246923277260604 2.546849187148679 1.593064984899682 -0.400087306045169 -0.03023103097039955 0.46326393870365373
Ni 0.80253428203848 7.925357819140703 8.327131330725562 2.3155002829407674 0.39411694739434705 -0.5790119177009512
Ni 5.803859907111143 7.081045183182884 0.023162279993240865 -0.5257150060500235 -1.0522782190329556 2.118966185733338
Ni 3.5883588439258305 3.2153139788815377 0.045484318718258455 0.74698465833092 -0.988866330435213 0.2806423378122586
Ni 1.6411970837733239 2.476448839829884 12.953281810187585 -1.5497856523005118 -0.9524353413016888 0.41372443721262936
Ni 7.072095593515826 1.1845176077264103 13.38766799748665 -0.8082149658963114 0.22711634086966048 0.9626973853493291
Ni 7.138990298457265 0.3064636275958541 2.3050739356012153 0.8484239340150291 0.6712785257468569 -1.2647680682386928
Ni 1.8935755123843603 3.506439957367153 6.308598215960848 0.6670729723059415 0.5427285098888847 0.3851653946280141
Ni 7.593963324246419 5.834520366633726 6.506082736551868 -0.19409489163831734 -1.7672169046719242 0.3917312207709899
Ni 5.242706723707329 8.54688595459897 11.976313997317124 -0.912054880602113 -0.4311315769454834 -1.1326264783747204
Ni 1.0756850328632745 3.093330608010228 3.889301548486659 -0.07449797120857492 1.4392806668697085 -0.8958150217044831
Ni 3.2620558772462767 0.4364385647014688 2.7133978048874647 1.0145976737630462 -0.7553494853558476 0.6980745628937784
Ni 6.0327468221194245 8.8409796726633 4.105612667030142 -0.6724612332010482 -0.30135025978357133 0.8022433216939087
Ni 6.895162669507397 3.573714903942116 11.31319762875628 -1.0492093502996447 -1.495211416599057 -2.6926268664247046
Ni 3.4814367514164917 4.707298681148854 4.610391782299056 -1.361814871282061 -0.5808165750098577 -3.6731417395714288
Ni 1.2055143652458085 3.2172893805386193 8.668333277508875 0.4347835718757738 -0.46802099377266493 1.0401919772923827
Ni 3.5133677744462126 1.1937083262342387 7.508242948771132 -0.18075600843756612 -0.2673055114940364 -0.5009578537100018
Ni 3.3957339968949545 6.759295841919418 2.867106311855223 -0.9442196382601158 -0.9004813168319009 0.2979420054329708
Ni 3.4011037506951896 2.660281758358821 10.379122926984413 0.1184833756505895 -0.39991375658178224 0.3721080472234236
Ni 5.862231634949965 3.171614013584981 13.313826927093784 0.4652277472982439 0.9495040265875067 0.6830366947240495
Ni 3.9254384149505883 8.46468884245479 0.41510051713051843 -0.22643499853191967 -2.1558355479558613 2.562177833771807
Ni -0.02402385188968614 9.045623864987965 0.9812432127010444 -0.8489132149466219 -0.451157642358423 -1.7823735578077047
Ni 2.3870456850211386 7.944861432684561 9.972712322307816 1.0175791249888733 0.5487919424741452 -0.3009849060243526
Ni 0.8679979800518091 8.369285289185331 12.249090998438726 0.4799182594308832 0.14675265490892792 -0.5408348924105976
Ni 2.74780225337232 5.09085119913903 9.453043501121327 -0.28155739342736025 0.1901726737657757 -0.5014142245211299
Ni 8.302909938670167 3.4916940013354205 13.020851675883183 1.3660703041243054 0.11134830726770502 0.41682133097039825
P 7.810867990705645 7.272158337865852 0.962058631161898 0.6735259270201367 -0.44554672392954875 0.43829595590440645
Ni 3.9235650293415256 5.161149530409807 6.584375416312805 0.723027119074058 1.5097841722069094 2.9097272178192597
P 7.931794104352038 6.491448070754337 10.28048268273692 -1.3048567087294625 -0.2613498081312337 -0.15225944365977004
Ni 7.713247906938336 1.462529886948585 4.494268769677087 0.08748255639370095 -0.31501258776201235 0.16963470171342399
P 9.229011622580096 4.301302632594659 5.973870578552222 -0.5465967345950393 0.8410440966111903 -0.8925445784833275
P 4.9876295069169 5.000817399669808 12.457325228235018 -1.172049203146717 -0.4569498235601679 -1.2944064599304157
P 4.1720853965002345 2.941781131585984 6.085840610601228 1.3172622814826669 -0.13313737811833845 -1.2960103140824262
Ni 5.785747421494807 4.068928623581388 4.659216662880604 -0.5602698612067576 -0.8669695582277004 0.6035525831547929
