# total energy = -340858.05381916405 ev
CRYSTAL
PRIMVEC
9.36069153093279 0.00000000000000 0.00000000000000

0.00000000000000 9.36069153093279 0.00000000000000

0.00000000000000 0.00000000000000 13.70031824872290

PRIMCOORD
 96 1
Ni 7.090807914233538 1.0519357681370605 3.585085799721964 0.19437128522815555 -1.2908871339232477 -1.7033064791712085
Ni 3.7117481220572346 3.6356269803169416 9.473413691741655 0.37131640456006376 -2.010135502681164 -0.2794485746144736
Ni 2.0150947398814827 5.410301724569099 11.605799765887058 0.343936212774898 -0.37841290639552894 0.552236706489636
Ni 4.458047958201884 7.213311281419371 12.069925306740954 -0.2500816914165822 -2.2952451322361567 -1.5001001121499262
Ni 2.145049217350799 8.342809737758605 12.135426744189022 2.035847048514655 -1.0431847413721196 -0.7139025310649705
Ni 1.8940329191575278 4.936313759350034 9.068870823219942 -0.38716417022559774 1.6413997143640826 0.5348012846220079
Ni 0.09524035374281906 9.412643147682118 11.592675140600036 -0.7294587336320146 -2.403522256777706 -1.3972441586239484
Ni 6.172842360138172 1.8009876475271163 12.774477395708091 -0.21028795645841203 0.0908653568230048 1.0570419589701858
Ni 3.8249844048452712 6.845960311614154 2.3083801757582836 2.794780908787651 -0.5307656811000536 -0.4166652650085082
Ni 9.495766086522968 5.211349591447091 0.9615826313276656 0.11061297176357725 -1.033146640409827 1.7959744364205907
Ni 1.3573283221553878 3.0063170641760033 0.5352293520515412 0.6131425408360731 1.802135056705348 2.5354576441681433
Ni 3.2573052802953413 1.7074181771832941 13.624335495894432 0.6146103836308512 -0.8298867944427901 0.09721623874169709
Ni 7.042956060252183 4.952535837391836 1.6363246627460897 1.6083019033688495 1.4970669817505573 1.403381638980254
Ni 0.356808023181744 6.5295221418489575 12.967529485096835 -0.2516786035900569 1.7850040534520162 -1.302702124280305
Ni 8.691935441581487 9.06492154755587 2.4651389927963807 -0.5886304146273217 -1.346202618666101 0.01099840799303267
Ni 6.736721044015875 5.497534006895439 11.193612020771731 -3.7443528124986156 -1.221704147169683 1.4671455116007766
Ni 6.160214787559759 8.994604034428342 8.29666620994149 0.029294120978426968 0.5124547986060077 0.4491285277435361
Ni 1.030518506417706 9.072597314430814 0.11784174291300302 -1.2695706318336586 0.21756880639054144 1.164327409022427
Ni 9.224334120580611 4.826119701238041 7.972804075897613 -1.8549236612612892 1.0179377938798726 -0.8251986449385014
Ni 4.484800813968454 1.4525359134786187 7.139222345762677 -1.1698683934453145 -3.0626500060946418 3.1735823088708504
Ni 8.927469156346518 4.851384207086178 10.616376566462497 0.6429925343179701 -0.04398720421422747 -0.49798694400713595
Ni 2.8553759167876342 5.042229981532942 0.5481358732310192 0.3428910593398353 0.9746329604446505 -0.8648126597856975
Ni 6.090037684801892 6.964644516745139 6.213478057187949 -1.5244122065327295 0.9315860086565054 -1.181620648885236
Ni 8.206602318493603 2.166475839761464 11.021385597411491 -0.10331386699900272 1.4400525120387264 0.9670564336489733
P 0.5793472262689751 1.668646193773519 6.12279542404441 -1.0016130885779202 1.480432715627986 0.826301391084377
P 2.156853049093852 1.2472746744130592 11.499622380416579 2.3270113689041603 -1.222585778443688 -1.0225765782034646
P 7.265178871973105 3.2226426403710544 3.4981839497989005 -0.4489616631483688 0.485782431521144 0.5748462163590358
P 3.2039212577492413 3.491603383807333 7.402514254541072 0.17127352286842762 -0.013548170998079895 -0.6747312601821477
P 5.640911715704594 6.633678554065415 3.577084280789401 0.24585171249563467 0.483111055336568 -0.5285265073568898
P 5.237288067069614 2.6270967377885555 1.108286193759587 -0.31840670104522584 -0.7642863828341612 -1.134521381404588
P 2.7277990549112885 9.096495159347558 7.958747125756025 -0.5488662473555064 0.9803377241389116 -0.044882719445303344
P 0.8672203104298096 6.999503731186954 10.723033219328096 -0.6509714387583885 1.1359262321719146 -0.5535852500977305
Ni 4.19595796218781 7.54184346435826 7.617020112345282 -0.44080072460413117 -1.1372418656595447 1.1085797218381617
Ni 7.78489381424595 6.125683197313825 4.542628356679843 -1.323624476255269 0.9613994924735121 1.2794380115460418
Ni 5.6123803285889515 4.848173489966538 4.651888217799006 1.7669055440790926 -1.2359200336587488 0.1446680044657573
Ni 3.9082477540557856 6.2644086425414605 5.286117177223826 -0.9098846124236716 0.3882188367423572 0.6288630368951234
Ni 8.435620992106243 0.3073264728431607 7.512638107468232 0.9532321261713712 1.7798929574776958 -1.350486076532803
Ni 3.298716978654792 3.9999263647548045 4.299844786494514 1.8688040187878074 -0.028377265591112418 1.21485190013454
Ni 3.5576524216970897 9.179140702931553 1.8121278062562263 -0.04117056070103877 0.13497417421676108 -0.01228550223557239
Ni 1.3131364984765976 1.1329712728155787 9.327902681382742 -0.02611726591234212 -1.6083414983575333 0.7547262499495518
Ni 5.849776820924853 4.71840622632344 13.501348180967824 -1.2901865083117974 -0.765749854753565 -1.2446728401507146
Ni 0.6126815840962445 7.774409839977735 8.46776935034442 1.7471070212959268 -0.7311392066582311 0.02080176723669966
Ni 7.791418216089651 8.639272192266327 13.266017593204237 -0.5598633697969585 -0.11653833610907671 -0.2827161896221518
Ni 0.5563012042615231 6.8351767952239895 5.611047366146279 0.6772529981627368 -0.404817878751619 -0.15555765479506758
Ni 3.4801552583340944 2.2022336805691274 2.7468723995263913 0.573636769431967 -1.3021390526879832 -0.8283348765746379
Ni 6.616071093709599 2.182239243929031 7.703222718627421 1.1927926063416554 0.3730048480060802 1.6827577084855794
Ni 8.868693375605336 4.664891154098987 3.23039797312214 1.2047001564125188 -0.8295834042697584 -0.3007319094732821
Ni 4.998103682693329 3.2755492676602986 6.202160981393063 0.1431865348242244 4.11628551048644 1.200963829298538
Ni 1.046965241050969 3.2991850132203377 4.532558124967569 -0.14384730833667483 -2.4838381202196387 -2.0756574956433735
Ni 7.399364381914951 6.222697402060061 8.994204332909366 0.7494323485404641 -0.8151176065534156 -0.2771073280758066
Ni 7.990183135385443 3.225198109098932 0.4809878901813619 0.16333344208574452 -0.928416352679272 -1.0238346189802818
Ni 7.984304621242193 7.140644234772804 11.264771060048112 2.3921847202776996 3.192163157196832 -0.3819083211432971
Ni 4.885803469036382 4.973840770815459 7.968008593739036 1.3247822440087957 1.1887513463927464 -0.837178443008197
Ni 6.80409930007178 7.644006049325495 1.6683017203332777 0.3558959562399355 -2.8240549751614203 0.6976667859323984
Ni 2.6562833732959623 7.818171071856223 4.04432037936591 -1.1026972949154557 3.278739913946811 0.5462835742299946
Ni 7.633288057774507 1.7884536818618126 5.6431199027848375 0.5821882585464038 -1.2936220163559076 0.2803924265849816
P 6.981765221152786 5.1687490852911555 6.779575224906336 0.5104285122045984 -1.0936578104210068 0.6498085287985389
P 0.05326888604297611 4.239747276140231 12.681712944817008 0.6114301861306567 -0.5572076773416662 -0.06359443692219371
P 8.482630383869617 1.0259785711319165 0.5558837174290565 0.22725286644752474 0.7634757140074077 0.6564028941866049
P 8.86882442528369 6.931535751578462 2.941595372314133 0.7113867066216522 0.10994937003764935 -1.0974818121527874
P 5.973057125489493 0.10138190331190487 6.201448632784302 2.038593758021857 0.13576478843885653 -0.439664811227475
P 4.940235889009304 0.03586361661947641 3.637297863715939 -0.5782560133715331 -0.04315956610660954 -1.7847016917202487
P 0.8760680358568785 0.5715469621995966 4.086544585731148 -0.20239621241516115 -0.7036775109028526 0.04806034584233659
P 3.461162415664265 7.3221293179086615 0.3393297403660192 -0.9757724733657324 1.195614906281799 -1.3125430216301266
Ni 1.2509627867895563 0.8129414057943867 2.0548561483628207 4.8317013928721435 -0.6734616494411046 -0.638283558878075
Ni 3.9739130036017953 8.846077945398186 5.615240019784433 0.6118145660532688 0.23806101280662223 -0.1056952227469857
Ni 1.5321111503126355 7.368258804688809 1.8741489386749002 -1.1787163307542472 0.6046298753793716 -1.0744982067734203
Ni 1.322534632552748 3.162369149020127 10.872367136018381 0.49610772470655207 0.4507346958883915 -1.0990805240984751
Ni 9.073767400844678 2.098451696005106 2.4930881449124858 -2.4702171870020937 2.857835414045975 0.7888360471490673
Ni 4.221419042553476 2.6426542067472822 11.438532636783338 0.18308851322548467 1.1475977549725718 0.9404817684842384
Ni 1.1782395759951232 2.9807530162059175 7.962268617827188 -0.15194679751535767 -1.158506688575592 -0.8620063006851542
Ni 8.101144770184929 7.424909708502416 7.145263735934737 0.6004510614113335 -1.9955797163541757 2.433791082964576
Ni 8.128328217751802 8.482330841747666 5.389677313403779 -0.24590570566202166 2.4084202082999555 -3.393760784970097
Ni 8.403672952662118 8.97570479867162 9.589331812590267 -1.535744343716097 0.07067345525616214 1.067193445581891
Ni 1.7815174096004305 4.6376889851494925 6.043539386784095 0.5218156709956175 0.46036527699962 1.046664986611236
Ni 2.7888588443323323 8.00938191326411 9.861708272285895 0.21025838877205721 -0.2818499849671146 -0.2482171274040177
Ni 1.570452541922109 9.10175586786429 6.065487399700778 -0.3320296911452992 -0.40939469948902396 -0.18313119353796203
Ni 3.0686124648500868 1.902242245437193 5.426188689861971 -1.9194688921325265 -0.2266985366059515 -0.2668686810669339
Ni 4.292944084860114 0.40200705724558755 11.247796382424912 -0.28402153869713664 -0.622038300663806 -1.2620498979765813
Ni 3.9827588568906016 5.729604265875434 10.213956702730098 1.1102257420820172 1.5919221764592453 -0.7097342586198938
Ni 0.5493022153683581 1.8641348711104921 12.602223826343051 -1.5380472808176608 1.4250498679823072 2.365640394130268
Ni 4.9676907966241926 8.898853523009077 13.232274173166683 0.40985209874141676 1.4061149787510172 1.858462527652483
Ni 5.012753164594897 4.355136517929777 2.391445078313007 -1.1139476710182943 -0.19520226576988314 0.0737765196615181
Ni 5.349560198652627 1.857058188479447 4.717142532996467 -0.5721540142388533 -0.6658779235565758 -1.7589636635241963
Ni 8.484820785636368 3.873903377636069 5.614759816320184 -0.7773645561743581 1.5397763476936255 0.6862246055337279
Ni 2.2757431894336766 5.832890133799977 3.419338846887134 -2.9725860621270095 -2.5733107104601745 1.257160431094764
Ni 6.011005368063908 0.25854229400723994 1.402884934627308 0.1113177111400857 2.982573769467341 0.8177848689729335
Ni 6.546783256626268 3.952345970821466 9.670808205829529 -0.4818869531214797 -2.212203642332945 -0.8971103434771388
P 7.072189499216144 9.836027215674424 11.2868697800949 -0.36894199079061624 -2.2903968030049198 0.202629925692522
P 4.098803347071911 4.794003169350321 12.140509599570846 0.06368982484947741 -0.5198418350986983 0.38310979765056596
P 5.704339760027297 7.225564426345349 9.500636454212033 -2.4541243952052896 -0.4643941956533551 0.9219310020652445
P 7.025002254317864 6.565710574456921 13.195269488276407 -0.0025592760867439793 -0.3647024987879719 1.1280545427333217
P 1.9194097533013956 6.284300111577137 7.3086405617296455 0.4205861973294692 1.2661109554198322 0.1543312385871342
P 5.245431868510102 1.8522748752195735 9.462700380536322 -0.3697079224223633 0.3011229742641136 0.004289885624605515
P 2.378336366201213 3.999898282680872 2.3785394932026596 -0.914468118029296 -0.7525989191939039 -0.7941533455969225
P 8.503766824849643 2.958287357059741 9.180254625197552 0.5193479261814152 0.953291261544081 -2.2503007063149827
