# total energy = -340858.47556881077 ev
CRYSTAL
PRIMVEC
9.31297667700111 0.00000000000000 0.00000000000000

0.00000000000000 9.31297667700111 0.00000000000000

0.00000000000000 0.00000000000000 13.63048273690242

PRIMCOORD
 96 1
Ni 6.552358787161586 1.760767207458917 11.896698802229182 -0.18167157827330002 0.34946948388830135 1.493274090367028
Ni 4.134365517916927 7.774454123175445 9.259104616751028 0.6934943997222637 0.49903261166283086 0.1501269706977995
Ni 2.182049010620837 2.353268082844992 9.817218257854782 -1.9968192451882318 5.2200490418828815 1.006833456436595
Ni 7.404654453886526 2.3142280855230632 0.4892404549886324 -0.4047937103819028 0.16783390105925935 -0.06819105515394062
Ni 2.743248972123562 1.961396659344964 12.062649523669698 -0.4427771316042116 -0.11945525264555557 -0.6458068638383136
Ni 8.838070538762954 0.8583165060065789 12.961103095625239 0.49718167449702116 0.6953967589512992 -2.297397145582153
Ni 2.1025255046256195 5.380730470586546 6.62528684322756 1.0361008379421446 0.49926581071955956 -0.6478244084889746
Ni 4.492756791041875 1.737335758684591 10.288928897252033 1.2364548231162964 -1.2355433670456204 -0.7284706586871326
Ni 1.6306928652367367 0.9543845146836677 1.121760121522623 -3.236532684451142 -0.8469278090854768 1.3464718131670876
Ni 4.841760583894756 6.3122795669893526 10.993978955757141 0.01728732632553797 0.1206292183489987 -1.5212371512388576
Ni 8.283175462323909 4.185475132731512 12.970085461421279 -1.1487642644768474 -0.896082930653889 0.6604672940639658
Ni 2.143493288074848 7.511567423651733 7.782078657003561 0.9960433077996265 0.07973170880368849 -1.207745628107062
Ni 5.312438414202552 3.956105835488721 9.122009221575365 1.2443373111881666 0.2936539195805781 -0.833353669945468
Ni 8.48149529604778 7.7636883223872415 5.931713165614585 -2.1677893778836275 1.7733698116471976 -0.9613493559618669
Ni 2.069324743544352 5.63054175115988 3.137164593956644 0.04692623223789338 -1.0806919942889581 1.2381376101353578
Ni 0.8901091450470372 1.87975910769324 3.80567146412885 0.9215322239649292 0.407319305017234 -0.26778836466772593
Ni 6.849154033977556 4.582245181849703 2.0560490956000748 0.8363240654277017 -0.3765252024545128 0.6008434117537458
Ni 5.2102378105263005 1.0691483236049768 5.853596850362532 2.0337192035383747 -1.9130969271679115 -0.40209199518002364
Ni 1.6135663015260908 3.0274344488121727 6.404827270564417 0.5767267212112003 -1.589175981172676 0.5714251064926288
Ni 3.9740985060101828 7.793089389072673 0.12224306031664332 2.832806496101805 0.6272833511128294 0.7693206028239589
Ni 2.417862887574214 0.3596168608271349 9.638100850294576 -0.27005736320756074 -4.434469811108215 -2.1747881777989644
Ni 3.1147901680105727 4.1472360513851765 0.5615994881928761 -0.03865936424341084 0.7998233993985063 1.2321639090504264
Ni 6.018287526087958 8.505876668421065 7.753918078782653 -0.28580022786411424 -1.3514489546667048 -1.1606813276294075
Ni 5.560219465907522 2.3303209088466064 2.222081771233442 0.4348097971280189 0.5156478516220088 0.8238740125898069
P 0.04663100443478754 6.698460761872087 7.282153424121931 2.2163996826921637 -0.4308916930205353 3.043505829066023
P 0.7154051570314061 1.0648643544332004 10.832785302692587 -0.6992354159710991 -1.5308312226851957 0.7768091978915203
P 4.036067051377576 5.548289543061771 4.528237368760645 0.0568216369747344 -0.148810308768905 0.9983241334140034
P 6.958711889057511 3.578427388114318 10.959479965757293 -1.2092039578201432 -1.122618202209099 -0.6468278489036602
P 2.3694912878389807 4.232179709680337 12.267693326397968 -1.2199822793825699 -0.0891997961951238 -0.30128058288790044
P 1.0922724441561098 3.420069536381952 2.047039722172299 1.0493006244618703 -1.3797192623663077 -0.6296690777361866
P 1.9423702484364 0.8614326279302235 7.37619027263301 1.396123414755944 0.14674956958513435 0.8965647553863139
P 5.3567123042952165 0.06467769021971921 11.482113960439923 0.35717379451109454 -1.4382087739617682 -0.28696442337554445
Ni 9.326759665545131 3.0260375023431156 11.039641410640048 -0.18945430754251244 0.846980259589967 1.3162340973284687
Ni 7.753993513891983 7.15114592165842 2.4569485184807984 1.45238840789626 -0.4109088221407052 0.36664342456442656
Ni 4.591129761392908 3.0991629935100486 6.090494757775898 -0.4832195558899742 1.6277947219861386 -0.5158414556900536
Ni 8.499292394063575 0.19320607834947554 3.344497526298876 0.7322735773729906 -1.3238103670138297 1.4282866297520498
Ni 0.9448014619059328 2.703538440496486 13.460346618629972 -0.5030502174626562 1.599353178815994 0.10481179170076788
Ni 2.5342471543996297 5.065886675390352 9.740111469251035 0.005131407689294388 0.5602415790719835 -1.9335099436066245
Ni 7.753257788751612 5.4280217650523745 11.189290698084308 -1.287468338049686 2.4945488217689236 -1.1050418838882323
Ni 6.97084669738539 7.6498744370648915 10.530243018102915 0.8751754910772604 3.385508572263634 2.4476701549395137
Ni 8.54118216218238 8.408295301069165 0.5852358224493301 0.1211084719782624 -0.7008822075459026 1.292632912969761
Ni 7.968517926656922 8.739827950082367 8.78177918384581 1.3962393715085177 0.5839852025458265 0.10048693907316887
Ni 4.925912639190784 5.465683441858166 12.995424207774693 0.1423673813570387 -0.8578472842114581 1.0868870673560767
Ni 6.409544293141601 7.366815830527988 12.724191218747183 -0.12710402744006497 -1.0518203055599304 0.03948520257881587
Ni 0.24775031888265114 4.070441247492853 4.8477488277587835 -0.10305290002813221 -0.48349466392823187 0.2811187632280449
Ni 6.1420476702699975 0.0649226215006273 -0.05131915678494473 0.6521677730593348 1.360081176420406 0.155382562669784
Ni 7.000620283129238 3.09287673439929 6.969238346350682 -1.6616648923710222 1.3008699561675725 0.2593178653028695
Ni 2.9995607102662443 2.3372683892860526 2.22159097737398 0.9055034526368406 0.6881483049190019 1.314759055444839
Ni 7.777899924465787 1.591745997679412 9.963650843229626 0.5560956752244101 -0.7086394828938183 -1.0512531202025506
Ni 4.971508971940823 7.8463875533554495 5.571432289565824 -0.2176084013792252 1.1891573235819133 -1.721726890659925
Ni 2.44689143520123 6.805895258319074 1.3886057673396448 -0.7546064365422359 0.7591477760560151 -0.37649666320942254
Ni 4.762665474816717 6.513691308898072 7.268046127379742 -1.6911875844204876 -1.0874393403151206 1.733107621693041
Ni 1.4115678421003672 8.241034243840671 13.146572884429075 -0.3789006446652249 -0.0763288537697266 0.5185184883015844
Ni 8.086280513998474 2.6139382939711338 2.860833681614722 0.6371509879355286 0.548077947126256 -1.98073159559775
Ni 6.810020906891023 5.745584949375001 6.737411354619995 1.5916750934454458 -0.3657209127501572 0.371854793562037
Ni 0.5494833058179168 5.160888348262727 0.5806910899366629 1.6135361551845953 1.0465531436237203 -0.3935939850113415
P 5.796750442048349 3.856196224021724 0.34566788468477205 -0.16949971879745648 -1.0122579698862761 0.5832809773899503
P 6.130052556589024 1.0688316824053237 8.611766142073275 -0.42967427567366645 1.317510392937731 0.10959558624265642
P 4.758316314809718 7.754738552008813 2.5962929974716444 -0.8534111028169753 -0.5707211384470687 0.6447054032440188
P 3.9170099603080297 4.523117094302727 7.537792765364173 -0.8012691307060974 -0.03922140739446793 0.48725464519129635
P 0.7654773062683053 8.183629056938866 2.2680031268619487 -0.7732806159129715 -0.8727900215642194 -1.5770002650420905
P 8.019646167424428 5.5183017588593355 4.865250704420782 -0.3146639461733419 0.8315374426723358 -0.7667775246871311
P 0.510223522251523 4.5875535784321215 9.665838619384182 0.2752890439201452 0.3524344800538963 -0.5874176252661433
P 6.1832669040836565 6.618154965854197 9.186427079751839 -2.279867364228506 -2.9922447168982016 -4.321003943276874
Ni 7.635355506763153 0.8517303690537956 6.839326049918912 -1.256548765652694 -2.448220885236661 0.4427676185225149
Ni 0.5177120866233176 0.6261942929220979 5.8899090768792135 -0.33379295369330897 0.12566061012531907 -0.9842221467949823
Ni 5.82394433331267 6.4618552819195765 1.367519326038044 -0.33359292186736095 0.6392088989058217 -1.9640867879522173
Ni 4.466773586717404 4.9332885165474085 2.5975474554008584 -0.5332961608313912 -1.1742883768898809 -1.1833764552340782
Ni 2.4084567813492264 9.154553417816176 3.1102445042002596 0.640677255921232 -1.103463740767835 -0.7222591305597819
Ni 6.055381111329667 6.344353457918914 3.8331503324728584 -0.13759001457305337 1.157883453169296 0.7504366214352624
Ni 3.2500332121682654 8.75595802531175 11.593706700876472 0.7076658061266393 -0.2629215234937278 -0.7749618602701364
Ni 2.9228776620914445 6.419546429860054 12.499684226514358 -2.4953520343965088 -1.7263008831838524 -1.6505592693761637
Ni 4.571321060461672 0.2359572967908672 1.6446129711520723 -0.7008014749066382 1.1655083167044056 0.46040564331925227
Ni 7.930558234604398 4.070040789505056 9.086815483531574 -1.535266375638414 -0.5354777418637424 -0.5575136386178592
Ni 4.416241376443362 2.1475816847409566 0.07990161283950854 0.9699779781711424 0.005192085723900735 -0.10549004871471511
Ni 8.785135580562132 7.51951139257244 11.915345243698162 0.031001847698153062 1.1713334080266151 0.596794952715985
Ni 0.5588279463982658 7.563794595641564 9.287456110989375 -1.0932515761215236 -0.526431572501074 2.1370546678039326
Ni 0.44892644248692315 7.117367756036608 4.16006374516171 0.5612754196531367 -0.35171688516158134 -0.648892958962805
Ni 9.138479220445554 4.847162110241779 2.7076268371625947 -1.571506846027687 1.4506925082510758 1.0359203465002225
Ni 7.595225891195359 1.9623093310380817 4.804690281094199 -0.284162178040059 -0.39927200923272527 1.5255823155814308
Ni 2.7674068330617976 3.7029418833896486 4.445146061483455 0.3879997787530156 -0.1875853726545737 -0.2836957799266017
Ni 3.81751011980529 9.139997235608597 7.355580655726181 -0.5497576488215241 0.4856289366624152 -0.3439027884338013
Ni 3.9255965246045035 3.8638980555544613 10.869082628446932 1.1424763745856066 -0.3416191346059471 2.3268874417317864
Ni 2.992352466485907 0.7012270816681178 5.010905656261185 -0.6585140269923369 0.43338849130046003 2.5516699922619472
Ni 3.4738706013935894 2.4269057877172466 8.071344362351311 1.0436105160556284 -0.5135678291645284 -0.6064257909375298
Ni 0.6341745824510007 5.645628773025702 11.644535063801955 2.3212914357012475 -0.9419814929582164 -0.2197599005045893
Ni 6.152133623776594 4.256440013359637 4.796348648078633 0.4286242371425973 -0.9868043056998618 -0.3950199188245907
Ni 9.282979363204868 4.648749146753302 7.246795777692438 -0.3919975870584991 -1.1577032188376901 0.044870378150129175
P 2.444125481192496 7.081019208911731 10.329206589145548 -0.384685369667802 1.2012116836432862 0.8914037800106649
P 6.937897386668554 8.774518787397295 4.9030893277793215 -1.0658706130054094 1.586002725651017 0.0733782557818349
P 4.318334054915347 2.0232348230419124 4.049111737505635 0.5090244327682202 0.5715405490245705 -0.5899442483427388
P 3.0322306316892704 0.364788356655586 13.51717253839594 1.7057677962275075 0.07389659017915015 -0.41097361394036963
P 8.957518774843837 2.399534949900179 7.120672931382399 0.9731707740768273 0.8394176167513608 -0.35943610818271005
P 7.2364248471061545 0.5936603409553932 1.8109045475310388 -1.4373999049072277 0.9440661434013871 -1.0090744299519718
P 2.671185160273113 7.368082395326599 4.7487649261519485 -0.4178019497161127 0.45161735560366095 0.27445112139988215
P 7.894219000455981 6.250683540680375 0.18565232314245825 0.6440299744435489 0.20574533139305212 0.5596579386543716
