# total energy = -381169.80700348486 ev
CRYSTAL
PRIMVEC
9.23642020485322 0.00000000000000 0.00000000000000
0.00000000000000 9.23642020485322 0.00000000000000
0.00000000000000 0.00000000000000 13.51843460146271
PRIMCOORD
 96 1
Ni 3.662268395343905 8.233843905601988 10.94595804048283 0.18154070912239056 1.4136845635681587 -1.9838750263227383
Ni 3.0928430780753047 7.285420550320697 3.7302502967252567 0.7488715909409878 -0.4039334192641366 0.44065674282709916
Ni 4.435273654508972 6.319623488278946 9.411439476406477 -1.032218986389235 -1.4448836148787827 0.6368722803528452
Ni 3.255062329449002 3.7518709095827156 7.763394221987677 0.4912555388205733 1.2418646812779581 -0.5693224583273291
Ni 5.9170541054216566 8.265450936189064 11.95279713654377 2.7314785491845797 -1.127729041073103 0.1099282869917268
Ni 5.032657616309154 8.743638892809177 5.036684695600787 -0.7413683405854071 -0.7188619319527749 0.8855064406896234
Ni 3.7637951283109192 8.236189956381976 8.578771559708619 0.7683484687186768 1.31246177477023 -0.48062402724865605
Ni 6.734477310259793 1.1082780830342145 4.676378401538726 0.5639408823004417 0.6901609644736566 0.14277927208347668
Ni 7.679279988746773 0.2964890946362054 8.652000671515605 0.22896033605693472 0.0910191087920497 -0.2997150381729935
Ni 6.131902480198378 6.780336137514271 4.306121711786586 0.8391039421656838 -1.1693860544922572 0.5414437296391901
Ni 1.4944805289539544 7.66502819207937 11.307453985491593 -0.9488774487471013 0.5691028861173554 -0.8601031701251703
Ni 1.65451998511475 2.6330540708793455 6.844708445805784 -1.8369187400434364 -0.03136334480262986 -2.0204091166930302
Ni 4.7139179849446435 0.6735899719000414 12.578092637131528 -1.1635571065153056 1.2014867916815435 -1.6845253419089634
Ni 4.983704588222803 5.139329035435433 6.9363494380254735 -0.7755285314068838 0.6576776471339705 0.2867443369449384
Ni 6.411821436648372 5.306378934675009 9.141557737998264 0.8850724384759981 1.054420462186939 0.4572131045238836
Ni 2.5296985266743874 0.21501093577565017 5.082782746143461 -0.5094005851607162 0.16012856199520165 -0.292091974410097
Ni 5.195523417110407 3.257703945681586 12.66408371099642 0.2001462400387198 0.15487348424384942 -0.8035520132030032
Ni 6.844575441352116 6.506670237670778 6.900295994660896 -0.9810118673878008 0.9890213679558385 0.2714370171639067
Ni 9.335989005494818 0.028026070400456016 3.9709320157009818 0.1793663271788911 0.7006400096281095 -0.08532077285569177
Ni 3.229200352346778 7.213884474371867 6.528132907739505 0.7951365354457983 -0.9074402646482372 -1.0094099589145196
Ni -0.0473948439659427 8.71612359645649 13.114557788225383 0.3945401509746947 -1.3611715812711074 0.03139368381993303
Ni 4.337330652654694 8.603864142992052 1.1276523984519373 0.16145216590263164 0.5804028845112069 0.15845400250625616
Ni 2.9233824731129854 3.1345916982546083 4.789635388405678 0.2641170864637258 0.9904203051858943 1.252513676351372
Ni 1.8857907153513835 4.80755681489548 3.4156892219468333 -0.5179726431004434 0.45774943664332773 -1.268479198541693
P 1.606361289182252 8.383270714730479 7.141816380608364 -0.949262600000662 0.5841996325494777 0.6834089904618037
Ni 0.05945483807393315 1.7501076997686469 13.433444278674154 -0.5909649762977693 2.5011231325523315 -3.4662216711439853
P 5.40913411155438 3.970727890810282 1.7105555003589532 -2.067066411540253 -0.1735144963838044 0.14738231807312682
Ni 0.4404193099884336 3.1575626757736193 11.569198437533002 0.8211252462000761 1.9004329585469977 0.9444829192238315
P 1.2719566888301084 4.3806771735621 8.573161357961515 -1.299239362542685 1.3395308630728802 -1.1192325735663178
P 3.3678852045574517 1.1632902028988015 10.437002643889427 0.9332983633619217 -0.5834059330035888 -0.15943205014880932
P 5.255477021885598 2.920445291427804 7.421755657183225 -0.04453664895979426 1.308041019994715 0.12370708594337405
Ni 9.337189740145993 0.7271658283934156 6.45813469578622 0.8215260811829206 0.5547671862209735 0.06541323529848735
Ni 2.008431905338285 2.496475122518424 9.371073548360103 -0.7457029634050191 -0.42507045835306795 1.469629968585527
Ni 2.4763766717418387 4.883591027576017 10.239160366341494 0.06455165862914045 0.08628982163718042 0.83785232914677
Ni 1.767555297892254 6.884744633644106 8.941849703530814 0.3698531897509759 -0.06358620939207758 -0.18943271027595765
Ni 8.721000426424336 7.267335639189927 9.465973149694673 -0.1943751418828975 -0.5383617482797567 -0.5835517145528337
Ni 7.895458408060181 8.32908987270132 5.711768196678482 -1.3450625915243868 0.7603500238942325 0.18664229201501403
Ni 8.543033078279464 5.068698128685181 3.694128503849765 1.1452400533736729 0.6030352771987421 -0.5650320584820914
Ni -0.02028133190037943 3.033212748013892 1.943991247535859 0.48436652501022387 0.287413337987505 1.4167295210420698
Ni 8.323760458134183 8.740276835785886 11.009967357452872 -0.10595181884248203 2.1019195146636966 0.35284508522875363
Ni 2.548115948939328 0.6601823840566173 -0.04363192629756917 -0.6624956373479042 0.2590142180195216 0.37098627491415465
Ni 2.978958014621585 4.940579741404846 12.686388742605049 0.1614339110701865 0.8676228755409833 0.02734676744406903
Ni 7.004060712289292 0.1422611941870954 0.6881521122926721 -0.24219560380028612 -0.14417923775479685 -0.4338471761044334
Ni 4.569598916293843 3.637625625733643 9.618230921673817 0.24730490000239344 -0.4382897852568194 1.0082588760292117
Ni 5.016817155334042 1.7017550390078824 0.9349658907677422 -0.9107456748723864 -1.3485628913681613 2.544236418802038
Ni 6.9474876373781775 1.7463854223500053 6.969807447259436 0.6376441255218631 -0.017193738170467165 -0.5686807109782722
Ni 4.136050579436246 7.266550543456467 12.766093508750023 -1.5798958414223307 -0.8417218394045052 1.469073838971741
Ni 0.11670771352601984 0.6964861344138636 1.6240102412704411 0.6733420931441049 -2.452338764059777 2.9878581577947316
Ni 1.3448412821564106 0.8818924955437828 11.421630919829752 0.05344603563428215 -0.9709495980557924 -0.12372765476866432
Ni 5.324380718022237 1.2133885471139656 8.746197381258218 -1.1839354130613415 -0.80072637082875 0.31184087490225004
Ni 5.328869618333551 6.743916931902104 2.0128007321844823 0.7886856376141319 -0.3490179981731796 0.1647578332370969
Ni 7.017776796573863 4.509072653454246 11.573321575596728 -0.030884862504314547 -0.5096661801172772 -0.0901341350839351
Ni 8.700514045991218 4.644764905457376 9.960220470453226 1.0474710274522994 0.7955160302724041 -1.6166119658964415
Ni 7.771237790185966 7.480826260168782 2.23692247303643 1.1088568867589483 -1.082836551435787 -0.2906570417357833
Ni 1.1008981831396871 5.176496391099486 5.766802483952014 0.05411400823558423 -3.4437900816133467 0.9382721624274293
Ni 3.361493601645045 3.1739019034499885 0.7343277487666529 -0.46555067785530146 0.7713944546338521 0.6045386012171459
P 7.462538147789353 2.550720619490338 12.257665511761097 0.5265138478022352 -0.8704122653606622 0.26963621650974207
Ni 8.936624660514125 2.823139602580688 8.096947224379525 1.040052109280409 -1.3252501847841498 0.6361287173186012
P 4.9840001536754 5.144926306193986 11.249960039467233 -1.4255784867922674 0.11815633132847395 -0.4282534840667399
Ni 9.386142768232345 6.111887157205335 0.6459961659740084 0.2737651510764511 2.3407158629744464 -0.6821941442180961
P 1.5447543651565985 4.257463325510792 1.154759445023225 0.30426151989309536 0.9884546968190913 0.002848782302704771
P 3.889336554301427 0.45368003874759866 3.0225326751127133 -0.11143803876803389 -0.6070521116676191 0.5673722765794937
P 7.566300094491631 1.0255844112498547 2.6991849936138097 0.35538739203463315 1.0864630924447805 -0.14400003186445523
Ni 7.737709584157011 6.620065770843635 11.447288772041277 -0.9399626627559746 0.3367738906985039 0.9574281665305898
Ni 5.571519618495162 5.700062881113608 -0.22019533854260664 0.4548464040639198 -1.3430450468737258 0.47632668542488293
Ni 4.5517541520933085 4.962349984272682 3.4222184475231052 -0.2814319235930895 -0.02474198283137029 0.7674506394947557
Ni 8.600261939038527 4.342373738189628 13.586432651506437 -0.3956002168080929 -3.7527338374734596 -2.430728899099485
Ni 0.5354094282428612 5.705410768521531 11.85980393237845 0.8948156339056912 -1.075821296460218 0.022317175439961565
Ni 0.7294112021911123 0.19743679869264993 9.063556167773879 1.3518387339059557 -1.3996350274536282 -0.9781530577827668
Ni 6.922299918964692 2.7999654238130174 0.9358147178019188 2.786242018078705 -0.84436673322652 -0.5494452597874279
Ni 0.9549812137607845 7.216498381343271 5.131070751961469 1.5770647997314386 3.4840733546134253 -0.7184711242722595
Ni 7.148139634009858 5.150893033768284 1.6735285382848841 0.47632488565266995 0.7320516911701714 0.5235581076080209
Ni 6.162973798402621 8.697262826012652 2.973001447109719 -2.2912745776241827 1.7925571832089258 0.4567335937843037
Ni 3.225792113221521 6.055046226102806 1.5311786744620097 -1.2446905807625273 -0.4488955857971237 -0.6053960641214348
Ni 4.395316899886037 1.6217861112396497 5.808993528668172 0.4401134687291195 0.4962635335581259 1.2591208972552443
Ni 5.811962114182693 3.7166154929401487 5.347163272565217 0.7308314456098253 -0.4470179091584366 0.021777757996723785
Ni 6.540761865343745 1.1542477473334167 10.86192693502547 -0.15873733807462986 -0.2800450705478919 0.7650163190216502
Ni 8.503196397121647 3.2723436720055235 5.520672200586073 0.31911015487015365 -0.9582138956566787 -0.8495886437470916
Ni 7.217846898720744 3.283565922783809 3.369077626430272 -0.9992862402169563 -1.2336464071332238 -0.23592236919706466
Ni 7.569135675552483 4.310628161296648 7.3225444948088985 -1.623611022922094 0.6900244388957922 -0.18696393702049088
Ni 6.138063172600943 8.07470961863977 9.609809153558885 0.015613795277856979 -0.8401940899060693 0.5811400197875476
Ni 4.852547418632955 2.404600448862775 3.5446010177389846 0.05783799405439071 -0.2771908889285485 -1.0873292970998178
Ni 6.9143196517445755 3.0981724926424414 9.55739800967715 0.10723094266522178 -0.9115874540473913 -0.9094187285308467
Ni 2.81816117198851 0.9508155881632478 7.82970156035166 0.5055940669304325 -0.4940534132806846 -0.5121442093441245
Ni 2.136088471598939 8.682041205203916 1.9113035557627274 0.6068793335351805 1.5168477639219102 1.608352554101127
Ni 8.816190975001307 1.7536083030978407 10.187356978921663 -1.6333727302945482 0.1196506564858133 -0.1717957139204848
Ni 1.9634597744415971 7.446984015846444 0.03495246205365509 0.22106730646210315 -0.3582557147213637 -0.6382030833491267
Ni 2.826981953464447 2.6118010675535537 12.032177704332929 0.395878410170144 0.12791366782555388 -0.8349017311588783
P 8.3701457613511 6.316732488695734 5.3085134714279825 -2.1228310680053832 -0.8122402850056205 0.7481560529312018
Ni -0.13847241454161965 6.30733904915539 7.479668936693457 0.807340533711158 -0.7915274779383014 -0.2108895945981529
P 0.9519701407124542 2.2140253868805684 4.532284701545531 -0.3131320829098478 -0.7241090392843271 0.4942806988001423
Ni 0.7707681981457252 7.0563942702397195 2.402293191048441 1.0259349531527362 -0.09991743972294405 3.1741443520219077
P 7.192834672294736 7.066831425284546 0.21607958961519563 0.3992190445076028 0.657664791618164 -0.8609390357629043
P 5.97370107169592 8.501792461221811 7.512194067467661 -0.3512743983075241 0.34175617440444367 -1.0745169758264979
P 3.1576458035571617 5.378395304484308 5.216493785972153 1.2341739975019197 0.47820873293894417 -0.08025852784143596
Ni 2.4132457383512325 2.200392430379539 2.7517042036141497 -0.9365875756361548 -1.0254073627840405 -0.4484906370492211
