# total energy = -381167.9488891039 ev
CRYSTAL
PRIMVEC
9.22544269674346 0.00000000000000 0.00000000000000

0.00000000000000 9.22544269674346 0.00000000000000

0.00000000000000 0.00000000000000 13.50236790871819

PRIMCOORD
 96 1
Ni 6.301678437951434 7.530562746587308 4.468352354789533 -0.6538184212888803 0.8287539663899276 -0.39757636669785723
Ni 6.8166887717922355 3.1344271565681434 6.186015373741928 -1.583579718031821 -0.3285450750308084 0.18305406044312345
Ni 2.4620215463160955 6.240938123790971 10.25625021040041 -2.245374986878591 0.6969054822863417 -1.598005406538848
Ni 4.311058558247023 0.6269232556283398 9.798249421727588 -0.9118432788119393 -1.048568631391852 0.31524115883305065
Ni 6.995653133031423 6.253807616235359 11.39181270920138 0.7094303542262298 0.4359300267753912 0.38795478444769316
Ni 0.984077963471531 1.5675041797263645 0.7056808592109447 -0.7412963496968912 -1.2951875610708146 -0.4441925238944996
Ni 2.800143243505512 0.6995560878605298 6.964886281918856 -0.4891783445765704 -0.19076942680951017 -0.5906716134270665
Ni -0.09582836259270817 9.086055400032246 7.832291917759077 -0.2913820928272659 -1.0802747042458813 1.7017684452601272
Ni 2.177914815622655 3.9999028298138377 9.806391797377351 -1.9272621629247002 -0.5185933074035778 0.16670492966113867
Ni 3.282652343022602 7.862752484176911 8.392208016060307 1.5304159895246483 -1.5363277270233926 -0.8749484626681189
Ni 4.387159234357237 8.791265606793573 5.2732011868188975 -0.45099977662432006 -0.24025287825161848 4.745267846568247
Ni -0.011424788131275372 4.888082317328806 8.894765847462805 1.4387661891271348 -0.9660135942067556 -0.36452380711826254
Ni 7.520885257286834 3.9804740476719886 12.371261345569977 0.6178047221984327 -0.05255566260952885 -0.5170503883964901
Ni 7.521014413483409 4.4744319214711465 2.38955477205093 -0.5962485932942118 -1.2738895709239868 -1.6065013598250009
Ni 4.093430367018998 6.680899481979377 4.320163147561263 -1.2217553121225926 -0.5276585029296396 -0.7007215135983222
Ni 5.362343871150354 4.689476988767682 12.17351859589312 -0.7971738775908013 0.3165801893594483 -0.27903385567455813
Ni 2.534893317511948 3.4072880727169905 0.845735993687805 -0.40641376248382916 -0.4697683154810748 -1.4123406479457548
Ni 5.307175724327819 0.2686919386322742 11.920849405990172 -0.666940046272503 -1.9202510217141893 -0.7322044146979518
Ni 6.076808274272625 7.502379019406232 13.331090233134647 0.11292156529209585 0.7671685894779626 -0.5497129116265177
Ni 2.46896830460328 7.707506735894368 12.137251535895 -1.1634048972081577 -0.30834443171321735 2.0121946992030377
Ni 1.0244485003436734 3.001940575210549 12.159246836171636 1.4302067295928982 1.1625523193998752 0.25180484475527604
Ni 7.75158590069672 2.1618902218048053 8.13170642537938 -0.13272111651652624 -0.2842827627783233 0.4971575061273051
Ni 6.434284950062992 5.403489345201943 0.5122334756144491 1.2399227270602389 -0.3616518848871062 0.4566690590949554
Ni 4.9982802293346875 3.321408427437563 1.0065299231574845 0.6067443506192132 -1.2651740454278597 -0.8359276013202313
P 7.5288652651466155 8.509557491179372 11.427634180321316 -0.4043208845105424 -0.2970333775757723 0.10215507080421116
Ni 5.523706087884961 2.1508196906698482 3.3998560561483893 -0.8039160814106413 0.07012838138596955 -0.15647116774827244
P 2.3565655118130198 5.569298225275758 2.4390003768209527 0.762818282929067 -0.3984682823845073 0.2635874392125009
Ni 8.483431037700875 8.235506492933517 4.846512472917043 0.6497352523584423 0.6552885780765038 -0.13218169907328847
P 1.3854216188841633 8.580187479820397 0.7736649909107141 0.3888392439351755 0.0762306376289655 -1.7493901609031484
P 5.405703451428934 7.692902860238838 2.0472428788269315 0.14365241871704937 -1.1504866464845926 -0.6117109505958691
P -0.19988397490721171 4.173986931911033 0.3592894752637153 0.8206943293102447 0.2924151620774706 0.8263242739025124
Ni 7.541734757591003 7.332474042812483 1.8944363375711237 -2.03565215889503 -0.05076334659579645 1.3391657664239776
Ni 2.720878240579222 7.829208774837992 2.363130336776049 -0.8266903989926795 -1.1113356873167441 0.3520169329005034
Ni 3.9947827091639208 8.539069682096644 0.41413934431611976 -0.8485604595928934 1.5402897969949343 -0.3229094740115858
Ni 8.753524321065981 2.995907135741997 10.270481378174393 0.4268743443310261 0.8304259547757119 -0.36063912735187564
Ni 7.2645840106273605 0.4648718983305816 2.8662961248467074 -0.627968292994996 0.10595953215196591 0.5210631091003091
Ni 3.49946869530073 4.000068887780862 5.156365568853348 0.19566300745638562 -1.1468624194684442 0.7108771139750855
Ni 8.651407896788617 0.7407439989481366 9.963370083782513 1.7411906558114916 -0.1643773099692266 0.7582825998422424
Ni 0.34572253935782576 7.920383824176974 11.025668730076605 0.18889689237714566 -0.28518136333319277 0.5549289086098185
Ni 3.2166996537860975 5.340599502912776 7.791622476546292 0.5048443332486016 -0.4253352819786804 3.1339631518173316
Ni 2.96446682731872 1.101277986420273 2.168898790557494 -1.1388606322098904 1.2486914743918043 -1.4907968324711294
Ni 5.748936043825656 2.5635567677088735 10.428419110611255 0.01714360165882209 0.32285470951425044 -0.489305357072738
Ni 8.824117407936555 6.363073758537381 6.198640391957086 0.9021299081789173 0.9260262551805406 0.21238983329276326
Ni 4.74199743356044 2.0185729708201774 6.108849159009973 -0.8148142163803838 -0.256049736074559 -0.7244990756338943
Ni 1.5040515854378373 7.921601582601819 6.6139864241669155 0.2614009730841434 0.9038183516249338 -1.8539065328506843
Ni 8.386360930532529 3.4649839908153397 4.518918850836971 -0.6856239958352515 -1.5940155686531643 -0.7787989746280395
Ni 0.18575336445770066 5.268281258273671 11.67941311501216 0.2634627407091785 0.5897146488304359 -0.5429771355645809
Ni 6.955384076028018 5.603063345237376 7.50564205845826 0.5043149431076928 0.18320498419869094 -1.6916506400998352
Ni 1.284172386212371 2.2753723913807242 4.313250523411744 3.347692015636493 0.5126363184891946 0.7107966384461372
Ni 6.282424939219221 2.0132222141049483 12.668934089625047 -0.34551255612308235 2.5943521045115063 0.4719236712611808
Ni 1.850383926552347 0.6845407574644835 12.22635362827896 0.4420685355729612 0.5422178888010534 -1.1006311564150464
Ni 3.4139488422831894 2.3485670530680136 8.631631315460279 0.5602251240117513 1.84510384695739 -1.8536280823783176
Ni 5.471896002173363 5.27497892961032 5.7308504861281815 0.22969464311979795 0.6244597656211052 -1.1352315200977352
Ni 7.613610180984709 2.363733680722904 1.2735908035358752 -0.22508671203414138 -0.1857578325275317 -1.1188494791952859
Ni 1.7336359502916154 9.208495474384867 4.294927871839129 -0.3491046443497149 -1.691870726530441 0.44594447358859973
Ni 6.595361178076613 9.30136800516454 9.606827022784529 -1.0249954720576027 -0.9089068218914348 -0.41171769119524576
P 1.75873837964013 3.640184371468643 6.679661427580785 -0.24471477067771402 -0.1287258793142041 -0.32305397000925007
Ni 0.04002273768565241 8.73783184318218 2.446534795802552 1.9202973015710931 -0.07019497295784687 0.04344701544004131
P 5.521639588739769 2.0893874683134506 8.210020285172325 1.1940375344923502 -0.9891247263029224 0.5942076516047832
Ni 7.768726773070679 9.171335391541861 -0.015955402998256422 0.5115253448132029 0.42492441969350686 0.6867732789483463
P 4.132841457859444 1.6152827470163154 13.367033480097067 -1.0746398745576073 -0.33023480402840544 0.3006689174458306
P 3.298501653430815 5.660279540319877 12.131607410104694 0.8142269764183461 -0.7232186662595739 0.038725698704972014
P 6.248281576110493 3.9558328904540976 4.211590758543697 -0.03517269124639104 0.8675112896637833 -0.6606364726519783
Ni 8.78586872286528 7.037638122360747 13.588513293615796 1.3023316283147635 -0.2745675923730884 -1.554864866595632
Ni 1.7400568583498905 5.623350093542184 13.693291258086857 -0.7941433182945935 -0.30399823892937966 0.0009585072585273815
Ni 1.1039441393352754 4.44999372399073 4.277901394953566 1.2185805139390367 1.2367438151116248 -0.27281795667183334
Ni 4.060929132695287 6.1996081408871335 0.6904837875954328 -0.8300914542544285 0.41457084437332475 -1.4747251237202474
Ni 7.019168786250594 4.408654515644279 9.467913998103093 -0.426790012147336 -0.9405229061348188 1.039186418846004
Ni 1.8740010596402548 -0.10848197967996374 9.41247370072349 -1.3921127509346543 1.308570410135624 1.4379496067631106
Ni 1.0831684425720065 1.9888301438375937 8.125036430370567 -0.05978200515463897 1.3423953291048687 1.2328995016648703
Ni 1.0452703243200043 6.649505300769163 4.1902707606662934 0.39186877479011867 2.400261069527931 0.014062134520020945
Ni 4.24402649222486 7.513661735721275 10.775726581009904 2.304471278820115 0.3471089540759248 -0.4594772179677119
Ni 2.3363802433769485 5.750033871496538 5.965440576143482 -1.748853057452756 1.3396990132196283 -2.063535515568859
Ni 8.416786440268433 1.78944065265441 12.24219186815604 0.510495617997108 -1.4432375946349272 -0.2150169865029652
Ni 4.511555102543702 9.13325276443761 3.2749860002116447 2.498657187510342 -0.5359220284900126 -3.143596046921405
Ni 3.2854661030194037 3.535014325686554 2.9216561608755813 -0.46139988891172146 -0.32866257444527913 0.824618089844683
Ni 8.351820873391462 6.831255745677316 9.344624260485864 0.35877739155278854 1.7055716210563012 -0.298400433126628
Ni 5.159338006463084 9.256901371772464 7.50272589604846 0.42206740986068597 -0.36113869269611354 0.0905524535682763
Ni 6.112400031871511 6.462376422817944 9.272143648056778 -2.9012767730590614 2.195666821020186 0.6475410729206009
Ni 4.894687734239331 5.091447974277962 2.312834146197157 1.3336450937160644 0.6422492283940424 3.4491269204452273
Ni 0.20386014067318367 5.9586949325052485 2.167224372723332 -0.012849345158842387 -0.9601735904862109 -0.46074142939211615
Ni 4.288520801944773 4.778087365060398 10.061437461297269 1.6715268727667665 0.14852671609021517 -0.4098019622297716
Ni 5.82765674563781 0.8174812305986117 1.0270639133243067 -1.111299177651854 -0.9043148316453781 1.4597091099273893
Ni 7.314041608472779 8.004833525851469 7.09175456872546 -1.2821862637151402 -0.14529458230616266 -0.13272831560537787
Ni 7.714554974050291 5.811484544738161 4.043553934078973 0.9377471431618947 0.8621891061199215 1.8485154437421005
Ni 6.729231575826076 0.8301588338366598 5.2917267981289875 0.39365620570784465 -0.5903751652325704 0.23038344165670643
Ni 0.3513795807677887 2.9496415410404904 2.3220964905800705 0.24062748798221784 1.564086642304216 0.04820381339873634
Ni 0.10297992570589024 1.2337553423352556 6.20451330872418 -0.3968186625962262 0.7298688245862398 -0.6560367690964378
P 4.830681613394056 6.940992385552574 6.972933635509709 0.2620038967754649 0.5965951780003531 0.1831273368832201
Ni 5.0889202030021465 4.0901553348915725 7.646269170377093 0.40073805225529047 -0.512933023794007 1.143802806706514
P 3.3724620268549392 1.3415269629340596 4.331397891574722 0.1890231335423648 2.4322998431310303 1.2053460175266337
Ni 8.591737733971202 4.261527156860703 6.687290868621293 2.831126280185905 -1.6113509746078185 0.7813194270570479
P 2.208155816506312 1.9074801908808865 10.276935497826075 -0.8550514666338759 -0.8636456360607899 1.744498637138802
P 8.910532128887505 1.113400218013051 4.186396074769059 -2.680079368776997 -1.6048036604076041 -1.7618109031650044
P 1.2334140009585945 6.584060010876343 8.11871700218103 -0.07959852565993389 -0.5727728787697748 1.4696446238735463
Ni 3.5793702537672805 3.2951712686477155 11.980597062525533 -0.9476258357281873 -1.1007828515015623 -0.32055434351584794
