# total energy = -340862.27593285864 ev
CRYSTAL
PRIMVEC
9.30391711840491 0.00000000000000 0.00000000000000

0.00000000000000 9.30391711840491 0.00000000000000

0.00000000000000 0.00000000000000 13.61722315714136

PRIMCOORD
 96 1
Ni 2.896755933482779 3.3634031918552822 4.67908218236273 -0.90441099090361 1.5918108476923618 -1.8437712441888954
Ni 9.234342255650251 8.740536863710691 5.743826159295753 -0.12060093621422457 -0.2660572409092321 -0.4125864669534442
Ni 4.761856340261341 4.598935450609835 4.2279845603830415 2.650897347896402 1.9036013289726506 0.7623953364590353
Ni 0.9169382307529252 8.187763246163726 13.170700191301318 0.8337357358752351 -0.47626857849343784 1.0565709328710386
Ni 2.3373114074851187 7.872686098767903 2.690872346547066 -0.5903977909403896 0.5310078790178469 -1.203015055400612
Ni 6.902213129904376 3.8678801765325668 5.927754363020935 -1.1577497558049092 -0.26412608532479026 -0.0926479026447243
Ni 1.2484460954764014 1.5909884056985177 12.99344475681022 -1.7341358058472391 -0.4442118071682091 1.4075550536316532
Ni 9.13332032544432 9.399282095279165 8.676594764103648 -0.8547470480195796 1.3245801553003187 -0.6948804814365129
Ni 0.9641183935890159 2.6140657209779907 9.414675425867275 -1.1819263530511128 0.22033994137777538 -0.3738713097714335
Ni 3.113658149258322 1.2403330798989864 1.340379029217221 -1.7432737635927653 0.17967588799950993 -2.301040398761695
Ni 6.890769312060087 5.934001012858866 12.10831196613917 -0.11763645426926192 0.890008699435351 1.0813759077298601
Ni 2.572272526053968 3.820616278443957 2.039370214321502 2.4732390045475534 0.2442051780311472 1.1404914829450938
Ni 2.6653116955197356 8.162223994145371 4.968461911152107 0.24229047750693758 -0.029284093676097956 1.4233092311421165
Ni 8.329285126838105 3.6332074793890614 13.37826778720436 -0.5674530092187582 0.26040595616072576 0.19429003836825895
Ni 1.4332311899523622 1.3593580893965431 4.819325704848651 1.1304605810716533 -1.474652361500783 1.3262570287821096
Ni 9.20075511547311 0.19817436135377947 3.3609488185647756 0.10177634730855376 -0.2591144910428118 0.4056192916069918
Ni 4.961723084107703 7.449832377462937 8.1881856439931 0.6745921635011222 0.3343542255134177 -0.4081546564343358
Ni 7.103503373043564 7.948531629716397 10.699705453169312 1.4074792060883954 0.14007807110222972 -0.1860779348711118
Ni 2.6729874270006615 2.6070970871850045 6.6238799417056695 -1.7636181315770723 2.114475239841519 3.4707612108855512
Ni 8.191522028610143 6.563941317560738 5.23188650283562 0.8125503600468716 0.4385132141215351 -2.006640602154028
Ni 7.192476730803678 3.7194361816499346 3.319824575269211 -0.5874199392589884 0.7151436025609232 1.8577428758776393
Ni 3.5567758016729334 5.537756494021109 6.29784278014678 2.924309486508809 -2.5466180316603366 -2.1892390631169714
Ni 7.388324182529118 5.900199882591953 7.171592228433696 -1.5529846188537835 0.6367866626175742 2.4660882524353855
Ni 3.2094233663894367 2.2068053644754864 9.279116425563958 -0.0036355398700582547 0.6661705150963302 -3.107364318282881
P 4.455580698296981 4.855965460175965 1.872177896399823 -0.3616917369861061 -0.1687168178848449 1.0769363839012678
P 0.5584238863086206 0.7469621808808306 1.4647910066268452 2.728513810129301 -3.6991929281325255 -0.43096445523999966
P 4.15930676705019 2.1874718250605 12.980930988517075 -0.08273604284765106 -2.411193143059402 1.2265895002864424
P 1.0228540212727548 4.400203784630956 0.6188686435354459 -1.0775184816569832 0.5895326147266169 -1.4977035868932915
P 0.6149470425424637 4.272554044123923 4.239449777236308 0.07547781862334098 -0.7545323887711909 0.0374530026401355
P 7.448501917339576 0.6720963523868114 5.394980445342331 -1.1161133112110455 0.6803419215007057 -0.11289868247396039
P 8.417421132073025 1.8016849088706948 12.06574468532519 0.944630243434973 1.6884976962931502 -1.3453392422245412
P 4.774081687129142 9.105641172528255 4.916580479082912 0.45673436511525217 -0.8648386279276267 0.9327543179329935
Ni 1.3205421478954247 5.747559821166415 12.257842658521161 1.129014849764062 1.4136917626570105 0.06397598863132851
Ni 6.37235505979683 6.004217674054681 9.501648441483873 0.0097899895072283 0.4686475716130703 -0.11105545861763455
Ni 6.372941206564464 0.9780277494241483 8.032853959394917 -1.1019951266421086 -0.6589806822161102 -1.0236695541573273
Ni 1.2358951115154695 8.026917129991308 9.749046105835212 1.262252758016007 -0.11211192490660693 1.0306583267703346
Ni 2.832465867381933 5.74594093961771 3.757427796109586 -1.1531233127764913 -0.012348494263023892 -0.5198963424857175
Ni 8.790443074212128 6.072406081356142 0.3040520058141283 -0.3995751422954409 -0.48283286197451686 -1.6291568924409876
Ni 8.56879586079383 2.377327554272345 7.484080095743287 0.682786012165824 -0.5193458692988863 -0.2804983560352266
Ni 0.8180366632191197 2.655561190559723 2.017582301616008 -2.041760842895929 -1.4407084004551705 1.182510507689357
Ni 4.6694498371479405 4.4463605166029225 8.948653390713583 -1.7919254631621977 -0.20616082166391592 -0.30005725200376065
Ni 4.776128548857389 7.135052955409406 3.6884839107520633 0.4512741133316293 0.2991925900106202 -0.12331602115254246
Ni 9.233858451969029 0.0018542706474527467 11.412580873532967 0.5460197790456467 -0.02066318477630635 -1.3801548072418295
Ni 6.30614838680499 1.691070640292844 12.321652642507562 -0.31787551113210416 -0.2036280279397332 0.03295871431420775
Ni 5.338178171600092 6.1064491134636665 0.4712433933441125 1.429420743356493 0.505439029409807 -0.509138075527949
Ni 7.451107014084618 6.127196848254532 2.8648453591394096 -1.884106967693465 0.6103564934505037 0.13550536412988276
Ni 4.731730257188325 2.8334892982460564 2.8764882808063557 -0.1849898440132556 -0.4585297664527781 -1.5553680314842957
Ni 7.626755662119041 8.329601460014288 13.093055282815357 1.2050361995956989 -1.7859023968965693 -0.11016714247541026
Ni 6.74356273813135 3.3575417241789385 8.616651488000242 0.0018720202117322598 1.0661547199047317 -0.5145160520104107
Ni 3.251886443333613 6.588717648389472 9.377527676674678 -1.4565831627038979 -1.4726186189002057 1.0690017024352234
Ni 5.509212076829011 1.4567607959102549 1.162476042106643 0.4338731442463625 0.45711874503786437 -1.6468635656921313
Ni 2.7951757682600533 2.0017842506407213 11.447904124612341 0.030284252805838165 1.9818009174025286 -0.44570227567080656
Ni 5.092433813290159 2.4196138567945367 10.328935989322977 1.6474975997317045 -0.28608921985944274 0.7599941832167105
Ni 7.62406683012148 1.5191714707878918 9.83619682626549 0.7494097228326448 0.2414263297344294 2.4029879815407904
Ni 4.745909426614909 7.720315850933816 10.748754772919968 0.3179793836998201 1.4142064975098998 -0.03833694790698559
Ni 9.139637685051046 4.587342770094401 6.433238961903533 -1.3155316719448054 -3.08708062833318 -1.0381939730257475
P 7.037324611802564 3.1505667877853925 1.369743121492312 -0.7664044576184285 -0.9643534328955135 -0.4932314316000215
P 6.029859269159446 6.185011388160561 5.408679532654471 -0.4079088589721169 -0.8391718192891419 -0.43134729250071513
P -0.22693369902734287 7.051959673159528 11.440849894783447 -0.62678455709954 -0.2515202236353217 0.1752620752025304
P 0.9822145120501077 0.8412024860244012 6.897109931459179 0.9310311645942999 1.304624023893366 1.4408284709728025
P 4.927931257757735 2.8800554025636735 7.020822254314421 0.5072583420067328 0.1947484660619162 0.4806515380524819
P 5.899167147810882 8.16247519990293 1.9273957130860613 1.0934539219403168 -0.1581650105109276 -0.522888335234506
P 2.7421434416645663 1.751406541691394 3.315194946196595 0.9104888216665739 0.6264976219867404 -0.8338444935389574
P 0.7287934918675555 7.425651497318784 4.109595938804631 -0.6761307116328354 0.013741003735176335 -0.8205156376405353
Ni 9.045054065372147 4.677199999964438 2.232734450613901 0.04280423964971983 0.4597047605974857 1.07381352200157
Ni 4.469471446298219 5.5369842689145425 11.499662744977842 -0.08200019312289103 -2.0581675663887267 -0.5355206792865358
Ni 4.404753400017832 0.2714073524236744 2.937235415333945 0.5757589579812923 -0.6785380355227475 0.3214254332668916
Ni 7.098562993144932 1.4020630681813302 2.825152058270229 0.27177563145024813 -0.4368545954721896 0.960727663217468
Ni 2.4964549068563135 5.921757058157172 1.1063315552925255 -0.0856277625731493 1.4384237181860517 -0.5938081021735193
Ni 3.2969453131058843 9.247944582226147 8.490542476139561 -0.6022837437446983 -1.2399126997579097 0.2826704239858809
Ni 8.134284331554802 4.652907472816928 10.668454526537454 1.8238601070872653 0.20575201626127143 -1.903424179964838
Ni 8.226197727070033 1.021402610229089 0.41629352946593556 -2.650910460522525 1.2262745401491848 -0.28710531982878296
Ni 3.7645601788408323 0.875575807183529 6.378878966359769 1.1635717618033252 -2.106426401395114 0.5911619227999239
Ni 3.258436400864003 0.1346565203595 12.773935583506248 -0.22319617987964788 -1.6018710601418413 -0.26690030563581774
Ni 0.5610959712556775 3.6892077554905067 11.627610210827166 1.6429567744385576 -1.8464061107085814 -0.11557931462991707
Ni 1.2734829359796396 5.8633098518987765 5.641288621019226 2.002575173835403 2.610615103337588 -1.4848766103319524
Ni 1.847934680012128 4.975381234185277 7.8753981905578305 0.42044195844212107 -1.2030402522115924 -0.19183797728334057
Ni 5.134673596227618 3.9185493082236236 13.179755693665422 2.1747642665395643 1.1084812485870845 0.4290800937330933
Ni 0.7341237058862493 5.856834325703959 9.665450412070221 0.33223512228788593 0.000898086334237163 2.90688743437762
Ni 3.982178796221262 7.8083960326670585 0.9448564943345181 -2.304826862387321 0.7774329475184482 0.4474873925956874
Ni 0.2591382771462237 7.305649576541837 7.689782256298541 0.0030837811316463018 -1.4279441588109667 -0.7069543818819115
Ni 5.532202055604002 8.897959138446769 13.416191483070302 0.6434424773711951 -0.212477250800247 -0.8566296097542732
Ni 5.397304563795586 2.0805512115104396 4.9233341923944325 0.8467380616721741 -0.5089084760156461 0.8679206092870602
Ni 2.5994585713718648 3.7932348508701814 13.083277796496198 1.306109864410273 -0.22881301184579303 -0.5178489730383855
Ni 8.758586462587049 2.2042374833982312 4.742102263800369 -1.5699179042740123 2.0235615462790824 0.09216119281629288
Ni 7.086663283370259 8.36259314950685 3.8798189627584145 -0.6754462839713012 -0.12995640928719554 -0.29215933731292265
Ni 6.256651548649202 8.321860601114736 6.433729278326618 0.7693810237482491 -0.33750202711378 -1.0445610528943559
Ni 9.026018251299451 7.5391127644822875 1.8876056514806365 0.9152710735465656 1.6310111720409073 1.3124826007058363
P 3.3329514716891366 7.050601301285329 12.223323265865973 -1.4914915445453087 2.0005715131418125 2.253881995908338
P 8.97503278643221 4.634225207588201 8.436836545957142 -2.1244884011031475 -1.7247713339132036 0.7317058777949785
P 5.799819922655336 0.3046325702315946 10.489714186901685 -0.40322996543920875 1.5894757718012817 -0.21760763004827685
P 1.9013391632854786 0.6559791770602565 10.212494677561484 -0.7468329632444041 -0.7616314617098173 -1.048267812321982
P 7.313678856866733 7.869587894424694 8.402303197426534 0.3267597009956114 0.10525196456198002 -0.1033172094331124
P 6.201162987979817 4.260012364079937 10.786733361895894 -2.4740031364070876 -1.238331471313719 0.3753481514272762
P 2.7334628871534097 6.917545985032334 7.367299191013244 -1.5831760548354992 3.8603419609724416 0.9426137272255767
P 2.463900501460242 4.381772725159787 9.989717038234177 0.603217054192245 -0.4244012002001852 0.4706193506274604
