# total energy = -340864.2177177552 ev
CRYSTAL
PRIMVEC
9.33473722939742 0.00000000000000 0.00000000000000
0.00000000000000 9.33473722939742 0.00000000000000
0.00000000000000 0.00000000000000 13.66233150492551
PRIMCOORD
 96 1
Ni 0.8799660809600917 5.296371245284765 9.691934741672 -0.49532508090425664 -0.7542763068963267 1.0891103002596403
Ni 5.336631967197323 3.719099355620682 7.589807913390826 0.5516186132896629 -0.1614925322222638 0.45406221759972765
Ni 2.3106275202911224 2.861862426477166 9.72242946143642 -0.19731854078193758 -0.0592875820167237 -1.2376915237368749
Ni 7.163748100309036 1.4388284009821544 7.564723607357108 -0.10287395124810671 0.7016931334829721 1.6360525911195567
Ni 1.5896590860420017 6.674187803368592 7.923647056407525 1.090549089588696 0.7339242256025359 0.36288884261800086
Ni 5.65209941376234 0.4737369837677147 1.8859072420098077 1.471051788633718 0.9033761218811925 0.6796130137544811
Ni 8.237000184977365 0.45967606899449726 9.75954997772612 -0.7936190703600075 -1.1805698390232182 -1.1005447673488273
Ni 1.2475129603148958 0.04772197742489518 2.640450859327579 0.20240109751116753 0.014264737449130272 -0.2704142323263472
Ni 4.569101863367901 6.590128494112254 1.1790631987474465 -1.8188220304427256 -0.43338746285919555 0.7280029750220947
Ni 2.1019307987981777 0.781773045979708 13.49007691873177 -0.6979583490308883 -0.5101701163368891 0.21258215180922743
Ni 8.191437332286617 6.674645205495585 13.428746761292006 1.201430998742944 -0.7737606408731835 -1.094247878596522
Ni 1.6807661219489274 2.5595662942220545 3.3606333086972566 -1.5157226491785316 0.3777919849820784 -0.5594509648498881
Ni 1.2006339096668854 7.70182102692246 5.679444593166616 0.9754626554347975 0.02339678165738551 -0.32068752665960254
Ni 4.549284216110687 5.277197694900254 3.5952012545770913 -1.3868324763723212 0.8664285981225659 -0.03039583868303797
Ni 4.3600597565953905 4.5701660234184525 13.401872986120647 -0.34489394870247697 -1.9777997666629359 1.7458487234087934
Ni 8.169407352292728 7.274654113998603 6.200471356022906 0.1878669084507345 0.44472139981477604 -0.9050987609992542
Ni 3.155215880412724 6.245807374597616 10.263280405866023 -0.2142050321246311 1.1972331586115124 -0.8603260847692539
Ni 9.059819937749074 4.032933223160728 11.796384986063545 0.30222083531398275 1.3894429174119747 -0.23195824234299406
Ni 9.365261876469415 2.1360399288395615 13.105673370786725 -2.0385675327696116 -0.7306023603181546 -0.010439964386401374
Ni 0.7953933611530478 1.117881463630523 4.923986171594862 -0.8061238876952375 -2.1348088091925495 0.9892787353822834
Ni 4.86033633193964 0.5248680072492912 7.330127657265416 0.24504412899267478 -0.3512756838591047 -0.22283828231959685
Ni 8.243329136856964 6.809168104517583 11.02581549177395 4.350888903761764 -2.7595344268805313 0.07624477869635256
Ni 8.485957628382868 4.075676985191242 7.050965804425073 -0.4170177632519205 0.22366720597879544 2.6120220109874435
Ni 4.1609591450319865 1.8721095668280427 13.291836036472363 0.4566657166608458 0.7393680223259266 0.8064887272338239
P 7.386474931942156 9.122353342824944 12.790019229475998 0.2071645803380819 -1.343619945540589 0.9446166165882183
P 8.03831963659181 2.1624852395695124 11.15778067277971 0.09482202747790766 0.06322342673602015 0.39911002973356424
P 6.610646246665882 1.698446114367751 3.93506597051161 -0.27824632677625627 -1.4171123583027854 -2.8523142271174295
P 0.4890067470194103 4.554184953185599 3.1959741438226024 -1.2734954208093616 -0.29353076373915254 0.6324664379756657
P 9.186828373256208 1.9795057192982457 6.971751223819932 -0.7049594629390697 -0.36860569049712 0.46403115588698146
P 0.8247119040194897 1.8517971784946954 1.3951969054357856 0.38349597734539115 -0.00917241052788743 0.2298442813237848
P 9.132724235949185 8.57604717792567 4.20799781968758 -0.23987312631469657 0.18337570544860032 0.30968166246740214
P 4.001372476398298 8.2991695352991 11.107311482171678 1.768371844211974 -1.924732454524311 0.8185919382552611
Ni 2.1162129468450623 5.347833651939977 4.284179544148647 -0.21306191965912338 0.2250347757502834 0.485328631813177
Ni 6.29797922128653 3.856805400057052 3.7465798887156003 -1.216121767985899 -0.4276433612865667 -0.7410909185543043
Ni 9.340618170035572 4.935014230224006 1.1558514410132086 0.6625604291475686 -0.15459014867547569 -1.1216280703816877
Ni 0.5753950732284928 6.971947253302929 2.8836263664584156 -0.4501621112143731 -0.4923940233003907 -0.5365236666297534
Ni 2.9245078484004625 3.9856621135467245 7.6733528786227305 -0.7467910542628752 0.6384625076581003 -0.4846318628564686
Ni 6.953949879816396 2.8833976653949196 5.7573747139212665 0.3730223315075769 1.5064818473065538 1.6248469522117241
Ni 1.8375803736088092 3.4597710190909376 13.625402605160325 0.7154865877226387 0.30900726210819685 0.2534138411136087
Ni 0.006380292934670472 9.233623411268649 7.488583889213826 -0.21310022909622656 0.16224740811041735 -0.036423275824040494
Ni 2.758816261582027 7.752377964060975 3.641775992789593 -0.8911818938078457 -1.2090409498797177 0.05231217914015507
Ni 3.1352582120962276 0.6619523581824437 4.194226281770215 -1.4707409422615187 -0.02875984574151176 1.4501515481459413
Ni 4.0822859791894075 8.08285566818115 8.650865097269318 0.3669642982389551 -1.4854468810131256 0.9823688956363275
Ni 4.616830375108896 2.5553003192825603 10.914358728584535 -0.9228805104627072 0.8951221094025165 0.5441621570116176
Ni 7.7086540546154785 3.133335256215405 1.9384795489282725 -0.5384900463275049 1.0283484476902356 -2.881995042011314
Ni 6.025946307311158 0.10701436171522423 9.537974119200308 -1.573158522698497 0.6832961190330232 -2.245603043728997
Ni 6.579608245191444 7.860455552353023 10.923621588392981 -3.4236876544365167 1.0677264352672258 1.4708340161959572
Ni 3.3605987701693003 3.2227527046736473 4.948154739900869 0.4811174219453069 0.7162170381307601 0.25801534444136204
Ni 5.122409081231335 1.7432248491265134 5.374228555088587 -2.0032644865929434 -0.8460466920321043 -0.2657834184225552
Ni 6.616620478528633 1.7930350072821852 -0.05869402763032557 1.043715417064609 0.4975863661346076 0.06170441898833244
Ni 4.8477531060787244 8.372055164024639 3.907440748988766 0.6239550580705447 0.10241680910603007 0.16030005457605942
Ni 0.9845440762437884 3.2317700608914843 5.771897698190118 0.8875191002442779 2.5511424018932516 -0.37959072875371397
Ni 5.738707106297633 6.378341974577793 12.945318453274437 2.3163631451616946 -1.2009715426080219 -1.7129985096479918
Ni 7.490771951633557 5.3536958669553005 2.4491232835018493 0.3705892965860521 1.8742534719381525 0.10965317895346921
Ni 3.840376262434492 2.0015356992921336 2.7130247078277825 2.2344807085635905 0.048283260486420065 -1.8860499503524486
Ni 9.357887434013834 8.93446375074148 0.27922159515897094 -0.8457299321226338 0.08052078036388713 0.09178992551980321
P 3.813352197992837 0.12586586366338373 1.176513881994764 -2.689536400424839 -0.12101848336761739 -0.6786539922753215
P 2.1077836790762148 5.570392458301958 1.1343488736759542 0.5084037684650857 1.0231324507069346 -1.1908614507572135
P 5.357523109242375 4.6110428379918575 5.627568657649654 -0.03330966989572328 0.5424094359865691 -0.515314636652306
P 7.2333852404592065 5.0934713956461435 8.74483509710172 1.2716678806823196 0.051476056392104896 0.1253703325784099
P 5.898200427558466 6.798937232452625 2.7191594971718436 0.9752939910674171 0.33951802910254436 1.5101284429202055
P 5.564371552752781 2.9146597005642123 1.5516172311822172 -0.6412269577771149 0.5184572960463458 -0.7730728707775396
P 4.928890642564689 1.9685187335131586 8.919398418236339 0.0837814533930299 0.46782044772608466 -0.21340181949704537
P 0.4245718559584742 5.7027963719601376 6.432102593552708 0.3491213565202632 -0.0958728373399252 -0.9739665305052453
Ni 6.0511220937702745 6.297437806523969 7.412320019064646 -0.4816473263068479 0.30044934523585676 0.298946278327769
Ni 7.239714192338806 4.364064358890889 13.573936464610195 -0.7265011936655875 -0.07717551804073805 -0.5767850852529615
Ni 9.26254242737927 2.7591803163361632 9.161754335433505 -0.5543133865130065 0.4125455864131798 -0.2344884649640155
Ni 3.8317416304453618 6.382719966364714 5.8595144758259785 -0.31278524109339034 0.6895662683124512 0.2578677631199043
Ni 1.18172173192637 8.322543717462105 11.83278112673989 0.31216329123867526 -1.3593535542257622 -0.5217619349395465
Ni 2.3923158062769323 7.734352586362586 0.99512780137814 -0.5143828688666561 0.7439957509059251 0.5638745478388805
Ni 0.6089861253505289 1.0990626332628628 10.884287805892878 2.2882974972737298 0.8314983619042842 1.2311256975938991
Ni 5.673447957934383 0.6793784457471004 11.763732075038707 0.140304585290739 -0.3144094069603746 -0.21444131650515325
Ni 6.222377184010896 6.649161372706045 5.034091264825331 -0.13751056748536963 -0.5921476837519608 -1.143021191345483
Ni 2.970462760057204 3.985008681936736 2.0963616945336208 1.1455282740380528 1.065485718862165 0.11720168072468846
Ni 2.748305347398502 0.258925075879009 10.157560772212305 -0.4969603025148345 0.5409835021733199 -1.3400013749513955
Ni 7.032184313006555 8.771544580896853 3.4575400168796917 1.355102235148576 -1.4657812842633984 -0.28285580052380965
Ni 2.4345554924940265 9.398960278070234 7.607295610221567 -0.6893585231770193 -0.1609328030640519 -0.44990140135381873
Ni 8.309512424211484 1.053014374233266 2.2594488896493896 0.16531936216752172 -1.9999091969674654 -0.20595384785943238
Ni 2.91359554051366 4.28246008554065 11.530120006256912 -0.8503142090592065 0.35259903065621856 0.17046773913768062
Ni 7.235046823696033 7.850458048720204 1.3677219731832388 -0.4463712767133732 0.604634503365062 -0.7549579063443836
Ni 5.404308812517529 5.388598449665956 10.018915653205008 0.08804897042013224 1.0151818284012903 -1.596898032407282
Ni 5.077331634879435 8.401188879092828 13.37820942710179 -0.27626040669447904 1.6759016047956943 -0.05064456162974504
Ni 8.141935220461367 5.036800205585595 4.9956592179470105 0.6788799922431986 0.4638432082458914 -0.9198833755075965
Ni 7.2238731431652345 0.40709162691756134 5.414682506062956 1.351421700973195 -1.321937318360833 2.456785229866904
Ni 6.60623091592982 3.233188940958887 9.82769729380552 1.160612164954369 -0.018712745918154867 -0.22267964525454553
Ni 8.079364476436355 7.405275092835245 8.613416931700895 1.2982741704159382 -2.1242089221895157 2.22485089878331
Ni 3.320599420900737 6.559081157900528 12.699205304319838 -1.3598778021603481 0.6913387868318417 -0.7262481971145169
Ni 8.385394503605685 2.7980034887067475 3.968661690002289 3.670186770708163 0.4392693755612693 1.5217580567393338
P 6.955779488324363 8.632793045884503 7.494594526551988 -1.7839144199322632 0.7800531587501146 -0.91992631293039
P 2.579776000445261 1.9195300322386148 11.598062891589755 -0.017715157891575944 0.7077876764164843 1.8622556761463285
P 1.0137524692102609 6.027607890547985 12.00219447331407 0.043796685469976185 -0.3266244609693278 -1.0289102337309763
P 0.8804384186667402 8.258395402835836 9.372332006489486 -0.3225955423155928 0.5995257213835867 0.44624323577594116
P 2.6394529759117544 2.029913300640193 6.681426892133533 0.2932176033741079 0.298798182785679 -0.19932194436521153
P 3.736237933276944 8.739769135176855 5.790383278436685 -0.41200822585247104 -1.274416132851418 0.48833527984998487
P 3.9421902420079387 5.928332959516207 8.105751911795135 -0.6890528190111423 -0.2043196546901191 0.7793327356443223
P 5.747052361430909 4.438882278234538 11.803790233152169 0.5256178183505271 -0.9188724177445787 0.9327178082681034
