# total energy = -340858.9620184206 ev
CRYSTAL
PRIMVEC
9.37416495107033 0.00000000000000 0.00000000000000
0.00000000000000 9.37416495107033 0.00000000000000
0.00000000000000 0.00000000000000 13.72003796100202
PRIMCOORD
 96 1
Ni 9.127577289590455 7.141801112101207 11.25499990782234 0.28232795304479763 -1.5009560323923183 -0.9555695160552964
Ni 4.997273455556181 5.3426364311317895 5.141885882007303 -0.6425513330154934 -2.4067471914729066 -1.5978375135024159
Ni 6.907981322193428 8.779898895335972 3.102017961996912 0.12784399092988302 0.8704875986832878 -0.7389489325106371
Ni 1.4130709598079019 7.665798170043917 1.7486735551063988 0.2752507344830421 -1.6754557755075274 2.872449050194092
Ni 8.738661944856705 6.4354109317499795 6.975362817998147 -1.0601673919730452 0.32166814540531696 1.1296956778811706
Ni 0.8315680885632923 -0.15286075396344412 11.67960738462015 1.2444445261899921 1.4504443967960117 -1.0059705942156674
Ni 7.327887655398297 4.375260131595922 3.551993803283695 0.22618945818001693 0.6169603719202664 0.21588653359211207
Ni 3.077407030015038 2.273328679410474 11.611295034261534 0.28626714019820376 -1.8482020262667394 0.4765642553569857
Ni 3.938245947828502 9.582833597848134 10.412836200907895 0.4070819921954473 -0.464901988527709 -0.3590733255266526
Ni 1.153987796055699 0.3518208376317948 0.5778525715136191 -1.1374478110227637 0.3140098575291108 -2.3169020483843004
Ni 3.577612457969938 2.4835630709536622 2.7324415190223625 0.953631418492319 1.6198980928468811 0.09302714036101398
Ni 0.25460793752833333 0.7862177546172613 5.536844750717862 0.7808879959465842 -1.1270366429917686 -0.981906097067296
Ni 3.8172817266454055 8.679810938921532 6.7574884822311345 -1.048728296898168 0.23823250538748003 0.2833335114911765
Ni 5.924303350258506 4.417387627720909 8.725751845243147 0.447490735029797 1.480442742930315 -0.08200276422605232
Ni 3.2873508224527805 6.49228398893518 3.870957256254232 -0.47262609664484406 0.6580697403660667 -0.3902183836708893
Ni 2.7406401634618183 3.769323500082113 -0.04052545137915723 0.657836541309338 -1.115546382963982 -0.3596428248768774
Ni 0.13393993994949788 7.984266667118726 8.68669063838885 -0.6299238740594699 -0.9534938644731902 0.33597710582882134
Ni 5.816378592161715 2.7592103837162907 10.81975837859814 -0.2049644873629696 -0.6754066889826175 1.0961582082453574
Ni 0.15139182235623772 1.6956364061130846 7.740639626110378 0.3988282368270873 0.19873393307222548 1.1691248304110704
Ni 1.3423335130435148 5.19863988730092 2.8609435060341424 -0.15704349531197467 1.3212030112979698 -1.1729053804994252
Ni 3.683306164870079 1.4364407523845804 8.169061450521285 -1.553437647230802 -1.151377019509346 -0.5541899735612649
Ni 0.47023716085165784 2.5502790010652636 13.636016178962901 0.6851113178648911 1.2248972001856842 1.3238939278665716
Ni 1.5767719978209531 4.878034080676377 6.896623584252832 -0.28927635933817275 2.6808193322668155 2.005279203030127
Ni 3.8362644101463177 8.225135828874746 0.4381587692762892 -1.6265611066893535 0.3969906693977163 2.803167333079134
P 5.2320025394390655 2.497418086368156 8.83918954959519 0.45743164829259286 -0.5939628825838287 -0.9159418743613451
P 3.1527471916431025 6.4038856158914275 6.296605800325432 0.07743442812907954 0.3674692628998316 -1.0413266051174583
P 4.9869243777364245 3.3266004500173825 12.812017728388245 -1.7953879677895015 -0.15489482440008806 0.18555342982620948
P 1.8601717447837072 2.0395745086555377 1.6556105977120008 -2.86395104002541 2.8792809855142605 -1.129438824675358
P 2.887252099241703 0.190740816066573 12.552037457075034 -0.2385510650691634 0.2285214487473032 0.4863095076692076
P 8.896804103207513 4.963873306759267 11.967343620169332 0.16068520582962004 0.8534229298915174 -0.3521485733823612
P 9.72203994352149 3.692633458738428 3.977549008131848 -0.5989215121406847 -1.5458112410337959 0.19755482516245979
P 2.0904481004379822 5.632832447496105 0.6502323719320108 0.2516860597892246 1.3657008366000287 1.9521393857823541
Ni 8.607217407548168 0.5105132594500129 9.86038480345967 0.32140743554476253 -0.9631275309082121 0.32766781463217765
Ni 5.70025143995959 8.210090294544392 8.133196833826895 0.3300705105363993 3.232860634916194 2.4550031982658167
Ni 5.423488601598637 3.238192702808937 1.3403471275453207 0.43580044317606237 1.3277302708935261 -0.30798010639526313
Ni 4.195735503583098 2.588694327972295 4.8156368282382935 0.28695413896289934 1.4355754501039792 0.5495756147177051
Ni 2.8261887904392626 7.062730032925803 8.664629479203148 1.8163391161198716 0.14316442333703733 -4.474948745058867
Ni 5.289447420670468 6.9925550360429245 6.499319299536383 0.37489743704310274 -0.837046802526339 0.0037093305307871597
Ni 4.889986140658434 6.440079265766499 9.742447500055558 -1.9362558817828783 -1.1445234869226224 -0.2356158937002394
Ni 2.6245973787419214 0.25431077650760303 2.2535576286589807 1.5289440329648118 -3.094422670520548 1.9147658302299027
Ni 7.995862508842493 2.884402353175393 1.7817118611462084 0.2493399281545512 2.8956733108293546 0.8936401255403513
Ni 6.069284181382016 7.49408222121937 11.198582435041159 1.9432994188932209 2.1078919301970473 0.14708921231274025
Ni 5.030767346000013 9.381289056974254 12.562299355163157 1.875497628757899 0.6212109196665043 -0.6384771629461198
Ni 0.01767030044405898 0.5161705678415194 2.883595237595429 0.2638088111946876 -1.0644055984241088 -0.9083882303838035
Ni 7.397950162304873 2.2345946309039215 9.014298008621703 -1.2330355130221022 -1.0576721363550172 -1.3371045130195747
Ni 5.472365496301727 5.341174061439867 12.08104192629981 -0.6431838243931697 -0.8510536583283923 -1.7669387113098731
Ni 5.683387317679028 6.433732956270145 2.8210180011952612 0.4714598442508849 -0.5310271622915563 0.18790238967436024
Ni 2.035496747014601 3.425704119139182 8.860551396094884 -0.42369620371336064 -0.5097623393755091 -0.2500058438733243
Ni 3.5384940687110213 7.076931892433892 12.187688048332637 -0.7900390663182328 0.08956052196865222 -2.5795394649787062
Ni 4.630237411213112 5.4995411997432795 0.5722383842796951 -1.1144636914227646 -0.9859740964890825 1.576491443726472
Ni 0.8692475435420165 3.4140426582625722 11.243598111307692 0.5194204312905636 0.2087974879558146 -0.22972575346804955
Ni 8.360405025377542 4.07569932470449 9.566021970889844 1.07389322619957 1.8302598399660222 1.256626670078481
Ni 1.4475303892149898 2.9061035444369296 6.0528137740185075 -1.6705282562989232 -3.053731620559089 -0.37722120008027293
Ni 0.020406619117597873 5.6010915258496405 5.017787877567735 -0.516268258814827 -0.6012429611850097 -0.7176342301932609
Ni 7.105710578037744 4.522012679846183 6.041344483518079 0.39915219582540934 -0.043122285110770896 0.40586663173110743
Ni 8.625834498626098 1.820190932373144 11.958521593777872 -1.370314681222956 -0.7705107664773182 -0.8242396234593418
P 6.208893616137119 2.2180023593994203 5.038299487329881 -2.337436420892226 0.44578557941323227 -0.45354722563652206
P 6.524128026393254 0.2883811780799809 10.523255424229177 -0.578189936020288 0.0321884118070865 0.7858949622428724
P 6.162800848347497 1.2788329214212042 1.47800486121159 -3.7627955925848355 -0.8781302028302103 2.2659741511861813
P 6.959867323762587 4.897138628318283 1.246729219601168 0.5073444739626359 0.13526882263904447 1.0749414649584264
P 5.366606170248744 7.118243836230692 13.216484812345703 1.2079520876909131 0.5386029177562853 -1.5925726655590506
P 8.772080841983003 4.175112341261118 7.4689144638548015 0.36810535382193377 -0.7009979071881605 -0.5018783086417421
P 0.8608970376345535 7.242882729972977 3.97270537723559 0.5351062174569364 0.05984988227809693 -0.6995208084220017
P 1.1035454158490776 1.7285209758519489 9.809922737507195 -0.7246988503495262 0.4845634715123784 1.072099881744573
Ni -0.06552166152986454 5.0996299598260375 0.8256379919792542 0.2402410511770766 -1.2137293564943226 -1.185159258166114
Ni 2.5009615206216593 4.403082652401209 4.783641866728681 0.9588926668912582 0.4675257993038012 -1.0413307188825163
Ni 6.532124188875367 7.927674834874278 0.9168111177717835 0.6294492484158966 1.7151294399480657 1.50397039373861
Ni 8.08535765915519 8.670277413429963 12.57145135215177 -1.0716365689549092 1.096577298060647 0.4516811189620608
Ni 1.3289940766870716 7.628695226193739 13.304635707441594 -0.12963913515709288 -0.22124162725643834 -1.5962344306813543
Ni 1.950623059894967 9.420941773620603 8.927737909274013 -0.12997980632596323 0.10031030428598853 -1.0452547365272709
Ni 7.826574468673124 1.917147917780519 6.1543969097012905 1.3215200283177562 2.19860867725733 3.203254124903671
Ni 4.5170724950536005 0.564550631815943 3.867527249393499 0.9519640580922248 -0.9656770368029433 -0.16368336922599552
Ni 5.849694373476401 1.1288650346816522 7.0731044209902265 -1.1628531384697456 0.12926246854396448 0.4342143296358651
Ni 3.7708046181034187 1.6012854384900324 0.811682673002559 1.8981331067692278 -1.4258623365812733 -4.751678635190597
Ni 7.541834216159441 6.2817871207806215 13.32059241057999 0.33009082225137343 -0.7279507816279205 -1.0431855127030678
Ni 7.750624986340092 -0.21729501238905888 6.807841807873184 1.9385541908987516 -1.5583230003475614 1.827296129352008
Ni 7.890600013518176 1.1005363089830071 0.7495197746817694 4.083807849573709 -3.595513193153672 -3.5617481808880855
Ni 3.217278941381512 4.416543952898646 11.127060370692066 1.498404469615058 1.0079122913230707 -0.8596933362812613
Ni 3.588149019083531 3.2992372632819937 6.735578247096971 0.5785789439285907 1.534912077622789 2.817342081917619
Ni 1.9018680293328711 1.6396445204089127 3.935564936726645 -1.866372269417863 1.5164602986755045 1.0719168191994894
Ni 8.546810290274154 6.711339469453361 2.3029079186790065 -0.9385189883309127 0.7040027554527553 0.9945243000519388
Ni 7.931546364891996 1.8981839826089906 4.001352824533757 0.9900222984165271 0.20847018652338287 -2.550057653469505
Ni 1.4846802038886266 5.726686584390491 9.932827410781496 -1.2519922566302633 -1.2134272518728715 0.10040672065453675
Ni 1.690621228002967 5.61031570390638 12.315586339138264 -1.810544878035598 -1.1252042177687203 -0.28807925370627807
Ni 7.16819875987334 3.8278557844177654 12.596092281460658 1.2546456350927102 -0.5981013302322344 1.2731712047007233
Ni 2.3439817586926344 8.75267632107096 4.589187944027683 0.1514508317155456 -1.3080438482081924 -1.5522431127020686
Ni 6.234147615816851 8.877952658012287 5.249011961272352 -0.7316331155755141 -0.20425769110393208 0.3949494705979714
Ni 1.199789964739875 8.243331082541546 6.533056918262202 -0.060018546645477275 -0.8670140383123905 0.9488350255449403
P 3.4600416844052764 4.974897324436835 8.934626045489555 0.6069487533205353 -0.19294663696648706 -0.052075894759632896
P 2.9741412317700755 0.979009637918402 5.797058438731897 -0.3073792395864706 1.6875371321520938 0.9458947119696935
P 6.797216192195019 6.638211610692563 8.891092424660796 1.9445538601256125 -0.988010410192821 -0.11318716024865667
P 8.81301781919213 8.386905788961284 0.9095489523850394 -0.4452307353510268 -0.1557592292829124 0.4127168218837215
P 4.286243063682508 4.363992385636368 3.225567577802009 0.256107585895688 2.094317533946722 0.5932599429795331
P 4.260557852426953 8.162403918757162 2.6909936498375315 0.4759937275654963 -0.525617561240211 0.20713089888666908
P 6.814764628498084 6.660325265200539 4.993531289011211 0.749816214242444 -0.5882612042133611 -0.5637261951864743
P 1.9856918100070224 7.801976660521819 10.266018033504789 -1.7621531169957716 0.6382213381815718 3.4927721679390036
