# total energy = -340887.1953704339 ev
CRYSTAL
PRIMVEC
9.10240669929457 0.00000000000000 0.00000000000000
0.00000000000000 9.10240669929457 0.00000000000000
0.00000000000000 0.00000000000000 13.32229228979133
PRIMCOORD
 96 1
Ni 6.578181956916179 2.2629402508516483 11.346023546279872 0.3831915587310949 0.22267270327601005 0.004767082371340177
Ni 4.817102904696542 0.574238986260966 5.786017698377198 -0.317485217672221 -0.9392381258851245 0.15544426914565487
Ni 2.753232290447452 1.6910451343403465 4.8402284793994435 -0.22002909500557588 -0.2883679885912905 0.8375075442128416
Ni 3.9466943573493496 4.919796258155621 4.658992278189282 -0.24856602610300416 -0.44234570049374783 -0.04822618199623952
Ni 3.8008555956828567 2.819943829846636 2.5800617318981742 0.7187331196843945 0.39978005921739534 0.8297153018619323
Ni 5.7576637012113565 4.704588054305859 2.7699707063024337 -0.23062692512608024 -0.25246818937088783 0.20860568365998264
Ni 5.60230382203749 3.335440433857277 0.06547270183440994 0.36512338837547437 -0.09511230502481685 0.47407285639369967
Ni 6.098976648796457 8.111937501842158 12.263476972905375 -0.7772663400335968 0.26310227204596626 0.37858157076290927
Ni 1.7497647605736848 7.070212556209792 0.3301288203563139 0.22253797747035867 -0.7644915568664318 0.03881594442593315
Ni 0.5862377788978884 0.36824787953163146 0.3770635605124078 1.073947219365957 0.19122862583411582 0.24254475960958868
Ni 7.97144185296422 9.094105399816062 6.903704959434317 -0.12346977312158736 1.2863329388936622 0.34406528215359455
Ni 0.0732643620507698 2.5158324188319363 1.4133088572542964 -0.26461999424207333 -0.1811218764174171 -0.27397083932935395
Ni 7.0476840993926295 0.7267625554775694 4.395463947869255 -1.0959229523060998 0.9109369649475859 1.1086126319586262
Ni 0.8360560641035678 7.952290389067933 2.5563881923062253 0.9989077738316152 -0.7186837545036977 -0.011142389770064681
Ni 8.015570321105473 3.8474326112519144 3.771407489220278 0.2632539671324821 0.234745318169828 -0.7199780478350891
Ni 7.779244533491744 4.265396926456135 12.272469240577971 1.3384574275030432 -1.6168415654087445 1.5094003065049295
Ni 8.729535802870215 7.1724325845155406 9.252225128730116 -0.3515960433130009 -0.38292416400232115 -0.15574277422268015
Ni 7.1902277897994 1.1518640678496024 0.2793829024752318 -0.9849047746843037 -1.5763767725254787 -0.022658617939780332
Ni 2.1960284585029783 6.837973749246935 9.158330161678904 0.18388529809516718 -0.1584779137656561 -0.9052221739509959
Ni 0.5207450517685299 4.823802276097523 1.2556005571273676 -0.764511868581406 1.3373225425676518 -0.7204264482264173
Ni 6.4770633198326015 2.1815101196652518 6.695065052327692 1.168082505189485 -1.377616614201008 0.9373108269554244
Ni 4.069413005757018 4.708292733871348 1.083712527695479 1.1244575694106829 1.7291375813016994 -0.3151092612408767
Ni 6.737264720469124 5.768777739907823 4.75540588120062 -1.0343226629957993 0.7171130675824682 -0.026434282932128666
Ni 5.463710576179668 3.212030002533203 8.634511227135766 0.0619648717385707 -0.1338212915592405 1.6261096209742318
P 0.3337388348911367 5.9102928583467795 12.375343731932267 0.3539367756310356 -1.4540413701186508 -0.5087141006166529
P 4.344378510214726 5.79816030904148 12.565653212235498 -0.3870029620573851 1.4535078662126837 0.3590337305379688
P 2.6577480431698643 8.81612699870927 1.1253023345816588 -0.02172453616128517 0.922180141961573 0.8675215740764286
P 6.412773020640838 8.087807021429109 5.702034342084858 -1.2702702290038446 -0.35178604783661993 0.8937589105064027
P 5.163704350629428 1.326038621868348 12.708068558706461 -0.5430146736707357 -0.588369190546135 -1.4319761627884953
P 4.2044745177784515 6.2159971905505715 8.201562529865924 0.9515341696436581 1.7075053477439044 0.010734098588052481
P 5.019986449746127 1.3752644378146963 3.49565007537142 0.6568883184634557 -1.9773122855035559 0.0037700085653935072
P 0.2399931473113583 5.916145705915845 3.5620748889565674 1.4421898700967033 -0.09963358993393809 -0.2579760065629944
Ni 0.44773282638597645 0.18669400432433117 4.992502642669868 1.862712818288405 1.2847216285424843 -0.27856514356825574
Ni 1.9725461668767315 6.88467819851112 4.49595360864331 0.3394478379862412 0.5672696895633585 1.6217659992935554
Ni 6.213530438309178 5.832685738014205 9.091425651255669 -0.01781080292917578 -0.12386906544253505 -0.8463847920978133
Ni 8.740131004379379 2.486477156918664 10.319514183845715 1.1169278366925408 -0.6012560738111322 -0.3946905605096299
Ni 2.883924647207376 5.200205001876628 6.890489175008929 -2.0831008392952963 -0.06775551027841879 -0.6334815095037413
Ni 0.5221531940996875 0.3193370068603837 9.326856672281467 0.5053780942648844 -0.565758909345787 0.10867924507597412
Ni 1.5083507275616561 1.2754201376823933 11.469920956367467 0.2817939349181986 -0.012986127847022796 0.08017985208470063
Ni 4.521793521052426 7.229677620848119 1.1448952652074937 -1.2033683249749727 -0.6574778724183385 0.22807587656945236
Ni 5.744392392104519 8.0365786759879 8.052313096373414 -0.28665794787871923 0.014834493909671228 -0.26208437230441317
Ni 4.974529030212831 2.8117880733584837 4.992888584717969 0.054058729517616574 1.502611308607554 -0.2188888107535456
Ni 0.9196161584799505 7.978377886941868 7.32127878138704 -0.5832434392837955 -1.8518424512328044 -0.20646755427105734
Ni 5.3044821741180055 4.791971159536063 6.800257926692627 -0.27319873705001985 0.31304132296825443 0.1656446067174244
Ni 1.1885376648259038 7.743535791635694 11.305350351757928 -0.24941320459464786 0.2935171368923978 -0.38865978093451775
Ni 4.747524107156992 0.9665936799479801 10.48909384291444 0.4018798791692176 -1.9312836253792673 -0.28218654237092694
Ni 8.163011106367852 7.639659125293289 4.7195423984290565 1.470894180009931 -1.51173666794759 -1.8914484956602005
Ni 7.748041482999126 6.687683910657778 6.8718246898761635 0.006510290314692014 -0.8661249508392179 1.007071283479014
Ni 2.4037271767470196 5.846102685629759 2.4119739573031205 0.45148468668053854 -0.1758842821675616 -0.17146429872299504
Ni 2.694485356993729 5.613763752192159 11.179374862199078 -1.168206175251543 -0.16456294361747142 1.2415492069200682
Ni 1.3447076582045092 3.7011751388728604 3.344881450184857 0.3652385737971 -0.30084220979890125 0.5052194571998331
Ni 1.8459589955812679 1.2212426124396667 2.7677460780817813 -1.0682447696645407 -0.41525270093169775 -1.4690514703742377
Ni 1.310955933809343 3.3671441167236105 8.187414658984746 -0.28638592516425515 1.2843184795667946 0.1440170011453197
Ni 3.6232312294888773 2.44020962318063 7.169764669083982 -0.20274511111414759 0.9010433599829578 -0.46363443466919513
Ni 4.240784018482961 7.290345162135548 5.788469886767722 0.3234167526653075 -0.7094164702691589 0.2987691293199564
Ni 8.468924793927927 7.656798957287922 12.99014122238956 -1.1842447167716443 -0.35435020901937037 1.4861847876204148
P 0.47485890887519844 5.648079825808603 7.730299981915357 0.448332257094486 0.782365351823059 0.6474449136623688
P 8.824601339435242 1.8929729266764768 8.081515437852534 -1.4795474848095551 -0.08441008811596432 -0.9678316212521009
P 1.948179023887017 3.6768353031035304 10.41988460309076 0.5130127279920068 -2.3716161520977286 -0.1419999707152909
P 4.152763744777119 6.66546493567164 3.5577585276544674 -0.1388971634202511 -0.28037442886285263 -1.1488563099700213
P 7.193331710516432 3.999497419166059 9.845786704135111 -1.0591806025797434 -0.024696474305415533 0.9446657246585989
P 6.6734204392103065 8.017026706192643 10.098323878250401 0.11086416854243489 -0.29463890920166674 -0.33811292122490155
P 2.3856862064797006 8.629773424399065 5.923610589728271 0.569614021425819 0.474027604978061 -2.530468675593984
P 7.342984380629951 4.079817056723488 1.285149700305369 0.3163863281810874 0.6559439522723155 0.12972269600983466
Ni 3.146428956762986 2.0649446982508772 13.203857541765654 -0.2349083261102535 -0.5967980380397786 0.9318418334210532
Ni 1.5127198828231665 1.1847510635992615 7.196822483522243 -0.21529466564438404 0.7714170803416714 -1.5459058576301312
Ni 7.076138223033214 1.1293629182528249 9.211272490319574 -0.9150900678840111 -1.0154703061759864 -1.0094469828000423
Ni 2.774113211634753 1.5301509918352332 9.278656697580896 -0.373550436096905 2.546890568595433 0.21342598786676145
Ni 6.785853367939835 2.2104284660523725 2.2873447137092215 -0.868346383970569 0.14828888904779622 1.1058713217680634
Ni 4.528802374284432 6.91677328486963 10.474785769673673 0.1328260175255067 0.9024368978963748 -0.19187937204423727
Ni 7.478191531160102 6.176046727128138 11.095311404726942 0.17222277415557435 1.7822426886567952 0.35592912347071604
Ni 7.735243499045619 4.236050766949658 7.710862702445713 1.2673895650219398 -0.12123239915063637 -0.1393532771210632
Ni 3.5279563375675704 8.503668680663727 12.32362658724618 0.025839072550290984 0.3193371832792952 0.11022910606159726
Ni 0.09596576459703325 4.707646462988915 10.272100657092215 0.9789449575564431 2.725102984675539 -0.8038687731124736
Ni 8.79496390291133 2.4848660309159825 5.7698982461842645 0.25206246929203685 0.17079015547410586 0.12604601848919583
Ni 4.010001596607274 3.037900960548432 11.116214171690551 -1.2953909353308724 0.26174421535617504 0.010372601483575685
Ni 1.215926806871496 3.6859468123051387 12.436227000260732 -0.1439360113957392 -0.12570174777589965 0.8486697314772481
Ni 3.173690665113451 8.832720686296215 7.849840980110955 2.374154602248866 -0.8907548335727562 0.6052880777886608
Ni 6.061720497785287 7.7228187137707 3.3329846045040363 -1.2784972448993273 0.30630091892062733 0.017219706312396152
Ni 3.49756340127969 8.74753126110356 3.593275208727148 0.45666211711641996 0.03244629345416347 -0.2386127715450342
Ni 3.3743805301254866 4.448510043947387 9.120534237944801 1.2804032036727884 -0.5936713194853389 -0.488977541419674
Ni 5.6148560410075365 4.631450215709537 11.36129101319681 -0.12842300336180465 0.3207147803531122 -1.164219422689653
Ni 7.949632486283848 8.98474908458318 2.333172601199066 0.16106881442128387 0.888206870339922 -0.1137142363967203
Ni 4.857972711205251 0.49662731472499355 1.339343609880326 -0.3541905435130545 0.1754669921244849 0.7879199630927011
Ni 6.353306997050325 5.868840497803202 0.16969799035705643 0.28588610270970116 -0.2008692342476734 0.20475442823469256
Ni 8.139426770362492 0.10141446530440829 11.267555338264508 0.2579456675456912 0.4801501729360312 -0.031771378874325934
Ni 0.4401596239326921 5.013733096278091 5.517134422139784 -0.4081078623568004 -0.2054789651055429 1.07311752437581
Ni 7.745947929436319 6.15647655251929 2.302345480107073 -0.72885735260259 0.33151984138841617 -0.537374444665823
P 8.790130524903285 1.6947316090922457 3.492305851115006 0.8574058257986653 0.47915875555703924 0.0014747847733135892
P 2.391202264997357 3.6312595522819024 1.3053743379627636 -3.501774371437614 -0.4815930760301448 -0.8756161781591048
P 5.165752392158261 1.0781254704048229 8.044666164425092 -0.9723462212930026 0.20639607760317358 0.3845470443177248
P 8.660767119535404 2.0193507426156594 12.489742780529475 1.5712433079536552 0.2476244881253413 -0.6991063465924025
P 6.635044692163375 7.824401573600812 1.1872469435423993 0.09356090137729693 0.12471521549291424 -1.2906104832230936
P 2.2200315052209 3.688340745292174 5.387175719367521 0.5112528078781067 -0.4467358591416435 0.49101334090278015
P 6.908954317432886 3.927834170470497 5.678587452422098 0.7798562122479601 -0.06870681844809458 -1.054734650993248
P 2.842736256460847 8.754858698573385 10.146697708920756 -0.56547711643931 -1.15803129160107 1.5099631209869349
