# total energy = -340861.0002776051 ev
CRYSTAL
PRIMVEC
9.39758666375634 0.00000000000000 0.00000000000000
0.00000000000000 9.39758666375634 0.00000000000000
0.00000000000000 0.00000000000000 13.75431800502486
PRIMCOORD
 96 1
Ni 0.6336670478604689 0.9378471913074414 1.4817804437187847 0.6879498157549507 -0.40100853230785777 0.12425113137230216
Ni 4.102450648969248 9.041502650206633 8.953029071121133 1.0854490493579692 -1.032518519907525 1.0246409169316613
Ni 2.130818184229128 7.913482137341404 9.541081173363342 -1.8057816523189996 -2.40350271639368 -2.846960933225316
Ni 4.300871292530905 0.28436533209195897 3.70142461653107 0.7766755005271334 1.1138810794464171 0.5770596790705868
Ni 2.4772132264609503 1.0329733219500732 8.198385011387124 0.27881814011932626 0.531814176969226 2.3562820928438195
Ni 0.04938149832923379 6.744751279306661 8.772435649347695 -0.1674574915564471 -0.014656316460594112 -0.7608935551025283
Ni 4.064428013568544 7.355904528939383 13.010442726048282 -1.0334292046472524 0.33508107637711326 0.6860505418497088
Ni 5.951829909574974 3.291636274343111 12.451784395186774 -0.06741483910954842 -1.120325035299548 -0.3840806462042676
Ni 2.2560786160768753 5.360110869039794 8.424066174170324 -0.4628481913224738 0.11605291183222592 0.2224868125174491
Ni 4.1124308859429375 7.076645845408161 10.411949885425136 0.3728420971759708 -0.13705291112266074 0.6845911836953629
Ni 7.096390174863643 1.9165062217197217 4.973974372817354 1.2139689833089544 0.8385645247224461 0.4296606488269116
Ni 5.995246759686504 8.24172104225386 0.10063499591002968 -0.18246579203982125 -0.31536739999826974 0.3536408416571716
Ni 7.328115865350682 3.024105778893965 10.499220573425292 0.8378857534878665 -0.1736618205949461 -0.20244814869901906
Ni 9.075681672686208 1.5637584109434415 8.494487929147763 1.6618538684533768 0.5809114487165092 1.2337960453372105
Ni 1.6995347422013194 1.4083035333363116 4.597779583463526 0.10382140276304055 -2.2911491077899124 -0.9446734379680828
Ni 9.099598530593967 4.064334037702501 8.829983650436002 -0.8050828480252328 -0.4970652035238149 -2.2911658199604608
Ni 0.6828558956643161 4.903726473192094 10.506758377640544 1.3049698372685592 0.6988003853162094 2.848632150280152
Ni 0.20518690591670133 7.383383072170144 11.11678955543272 1.8068247488715334 -0.2378378410522227 0.331391543340668
Ni 8.823300086843076 3.359016970295421 12.464067040878499 -0.8671251099689582 -0.34403802846008497 -0.633990845039992
Ni 7.4509423222679345 2.5656445164067305 2.6365098374718885 0.027348310105965806 -0.8649700112991685 1.3486148276520193
Ni 3.618521926784557 2.560945723104617 0.3994500571646487 -1.064390171805141 0.6560197998155733 -1.0507628108296938
Ni 4.07444584088865 5.019551728089198 12.59967045654286 -1.866258369547818 -0.9531076847783649 -0.739364937002133
Ni 7.934401165122414 8.065347136865718 12.683379459220015 1.2404582878487347 0.7250130391558353 1.5856024048888049
Ni 6.6152619334870115 6.488742225034298 7.860689315074835 2.0274842783722566 -0.37170155581362435 -0.6649155596433065
P 7.605109730510286 2.1457133589968285 0.5610885467573602 0.7679854289523033 0.28972655950171394 -0.6892669919044775
P 2.6959326570877393 8.595089093746019 5.223312080359377 0.4770913315050493 -0.2380288740171062 -1.0699195862638025
P 5.0314020847971275 3.8397129226882574 3.017642118827577 -1.319276226588902 -1.0292156807865371 2.313814153487596
P 3.514377872036509 1.3127958606775487 12.177729155358314 0.810686053144623 0.5629934307855078 0.6203519141003186
P 2.9634725501234898 4.746608222756016 10.570454279885336 0.48056540609657883 0.12287996205638839 -0.5445815039372234
P 5.886253550250674 5.050610751816169 13.530259891715856 1.087818320921094 2.101491168877026 0.5113834199186998
P 2.569864032792028 5.953822197935069 0.2971761221508418 -1.2313046463739246 -0.41433584554438324 -0.1058795708436499
P 4.883765999244715 1.2356980601764669 7.883700245633946 0.7417676329063548 1.497214563072015 -0.6821213819986316
Ni 0.042873669605806304 0.5497137079316033 11.212726697799296 -1.2298653428242368 0.31540005300841806 -0.00608991494782177
Ni 2.2043918897536243 3.4102620100482737 5.407400464590927 0.40362462977446617 1.0063369764161507 -0.721277483372803
Ni 7.958214649577526 9.331427594533652 5.709444536602758 0.4101349200891582 -1.1825099934687249 0.47991106034203157
Ni 5.977842429295475 6.570520023664285 11.97020412989448 1.4144276123817705 0.2869762504500864 -0.08340967187590796
Ni 5.289704150200922 4.99190402829956 10.18058882129834 -0.1330219355863967 -1.6433439825746474 -0.2796648043903377
Ni 3.0982809299611316 4.993294871116985 3.5864113131165722 0.8797350854234849 -1.9817368969338127 1.02043973436612
Ni 5.5011592463826435 7.883221908475791 2.3699106428552215 0.7406427752732921 1.2045309778245061 -0.30887922117076483
Ni 8.155968064490283 6.645371800966956 5.892927716256996 -0.17896832040952404 0.32518772852280126 0.43612183107122304
Ni 0.2635365211423493 6.651602400885559 0.26012425744635437 2.5206540034964076 0.5627427482272824 -0.1312491599566901
Ni 4.1082301647308475 5.397945552708414 1.7206652156809246 1.4754694580854395 0.7080118766121484 -2.1797018130504977
Ni 4.463693878035749 6.328193855487677 8.142294575981133 -1.6805326758098027 -0.40232313735422326 -0.36982747871936306
Ni 0.6627600964698362 7.6132480405095455 4.844092207877648 0.623423611047107 1.043513842576764 -0.35888100701018844
Ni 0.219775719361104 2.8134776703334157 3.25893455247772 0.39445453323942387 0.4907423466295806 0.6919519949358083
Ni 1.4364774979757855 5.961330869631847 2.4722832525283724 -0.6974970931237536 0.9308964387886484 -0.8801868282489228
Ni 9.237273174345898 4.628612125353337 4.882205060109753 0.7009277160718574 -0.022525691906341853 -0.23289412389370212
Ni 8.51137539227556 7.028267069569598 3.093510715000826 -1.470923233475654 -0.40389510982703347 0.4739327312714096
Ni 2.264837166792015 9.155749110554225 11.144490821466 0.954893315923878 1.8633229410685779 3.390562589747773
Ni 7.601463466907845 5.953465089644109 10.164990707052642 0.4303389058408588 -1.882070139769094 0.22852376274014838
Ni 3.564072309999663 1.0805627005138807 6.118773336805771 -1.8059747421664123 0.9841555552231052 0.06362400460854849
Ni 7.0845210229825035 1.8497645616564988 7.515620272312869 -0.7185672835304916 0.04085405790188448 -0.3387914353491649
Ni 7.839852046297282 9.39871431461992 1.2986976012538867 -0.5756175473074215 -0.30188633479269944 -0.007462369815316179
Ni 5.352489426303765 9.273115569654422 5.876587192669566 2.406763903643455 -1.0170965289254998 0.0754492793782507
Ni 7.780666045863857 9.183218256198382 8.011738604081904 -1.1376406437598598 -3.153340527902679 0.49959696880673315
Ni 3.771467648768358 3.3625316676854027 8.38573247865302 -0.07065725730624606 -0.37347638832586 1.4426382704880314
P 7.065133801817982 0.8685164961347538 10.982685054831734 -0.10009613139265341 -0.001487897399436147 -1.30946258293259
P 0.5043534369103185 2.588067158044417 10.33260136293234 0.0997919698886733 0.1404249129186872 0.5319113646687227
P 1.1800455523062319 3.0814028644199394 1.4487836376340215 3.0824757825713167 -1.323638874432972 -1.1564827161670277
P 0.6303139889600807 5.630968110146837 6.91876545069848 -1.2306335884488289 -0.0010806346586884614 -0.6536057910574422
P 9.376094323663544 2.275992102091233 5.498246934293993 -0.6814225561593942 0.44984046620889623 0.5136822432552056
P 0.644942272268221 8.209008043284543 2.383182854416372 0.8400601354313663 0.5381077232874216 -0.015496295863386213
P 4.017618634692887 8.694073873448346 0.930299049746926 0.3251687023594077 1.14317879996927 0.9277167555090862
P 8.573568620422337 5.875831626706587 12.306950669959743 -0.6072647418990573 -1.2506611965236656 -0.5053158735683814
Ni 2.700415305897956 7.707299087244654 7.191513486230292 0.28432184354637485 -0.6777345657848457 -0.13376884105475026
Ni 4.932191763016299 2.3804932651302417 4.7978090938518285 -0.7899884155859556 1.1231067118097433 -1.0535259753971276
Ni 1.5595013042117267 3.857417975850622 13.22602806154256 1.2500569872807632 2.8749995845300873 0.22137892416525098
Ni 6.0711698618620575 3.636255172706734 1.2724219491084667 -0.5959585728576189 0.79510388243565 -1.5994963892620775
Ni 1.4860027793800639 1.6897048666132972 12.944174704349912 0.02006154663656545 -2.071885173085135 -0.46160660560588884
Ni 6.559562437683756 0.9004541942092207 12.966236478661996 0.5080620688549508 0.19049586143314934 0.27177383167803515
Ni 7.649146821337695 4.172528452276971 6.69726621395416 1.399762297060112 0.6311330638762228 -0.14860204941284083
Ni 1.4621047166455137 2.9616024303892483 7.56608531237757 -0.45561387835756373 0.9037841559528886 -0.5361349158317669
Ni 4.985598247688123 9.151022124492298 11.671529092680265 -0.2701715201879218 0.21584796704469278 -0.9863232522983851
Ni 2.8442735616354686 2.3382417157576354 10.389007557248235 -1.50539427066933 0.4736892478020358 0.5506171686083421
Ni 1.31600043770959 0.1059662467906079 6.656759796413959 -2.5046815393275508 0.505937052092148 -2.1574841393028783
Ni 5.307409203363287 1.318725737824816 1.1529006233999213 0.22638897578533268 -1.6796649284928684 1.5263194508577713
Ni 2.2661622265032113 6.600169409400622 11.810529735902051 -0.7609262081126766 -0.9846034413938012 0.16962313174919819
Ni 5.6003507729902635 3.343877458276011 6.861341497753348 -1.8764006001881426 0.96289124652769 -0.29262702097796056
Ni 6.191712705234481 5.8709730744322 3.287241023088314 -0.5848714618055217 -0.6711767100616699 0.22496072797923838
Ni 2.9128665462597247 8.225369241562504 2.823266196540379 -2.3776983537360663 -1.1375359998611958 -1.2337042569543526
Ni 2.2009147827100604 5.869168737804189 5.354431907454859 0.012933677342532564 0.5607198042599827 1.5792350679098803
Ni 5.166736729484606 1.9799117385384442 10.028548086904525 0.48039365640540493 -0.6069027305739483 0.10221317773565623
Ni 8.68792785180918 0.4146553522902887 3.5485587740334052 0.7074058675970333 -0.1443018793755902 -0.3914064904417195
Ni 8.98527688955354 4.3239705604040966 0.958611158909482 -0.7440111775248929 0.06807381284978599 0.15303823080732354
Ni 7.663487538495746 8.157311919374688 10.471189452102204 -1.0635838738537617 2.9110577637052253 -1.259781927878011
Ni 3.2725403783633205 2.31611039930468 2.9919359604303737 -0.48316196317916144 1.3151143819017286 -0.9814211870110775
Ni 7.551505896519772 6.249930754247671 0.8433272050007826 -2.597651344088068 -0.04214372324758548 0.2864340047933712
Ni 4.386248366830311 7.290591302040002 4.307508807949471 -0.2316512526255365 -1.2230146384509906 2.0412448224914588
P 6.501757882481153 0.20890928997063582 3.6462419879910466 0.15749266703425135 0.0042076103234443656 0.1649234122806837
P 8.007354629931031 4.905248882221979 2.787216114567902 1.0706096703522916 -0.5999399261028701 0.6715695746247144
P 5.9158465504673865 7.8703942027610205 9.410525201464115 -0.819747392015943 -0.819681314664698 -0.9517750820098705
P 6.054404567360115 6.329471927265852 5.4282790827495395 0.4686434578480122 0.45811736150570775 0.926886546298307
P 0.7814619526264931 8.709307361333797 13.293864540445176 -0.6740252352540587 1.3992673597015644 -1.1833173198613685
P 0.4370601385134273 8.92670173224939 8.475190924814642 0.5863171931131127 -0.7744083017595115 0.8323450261752955
P 3.6179956619347204 4.514450243285181 6.628673229329904 0.22298483519979018 0.8279240142894644 -0.24564113914672533
P 6.958104687982436 4.2296187908976535 8.778596707125427 -1.3636308414448775 0.7874715627013729 -0.9845558759853174
