# total energy = -340858.3453332227 ev
CRYSTAL
PRIMVEC
9.34918919659451 0.00000000000000 0.00000000000000
0.00000000000000 9.34918919659451 0.00000000000000
0.00000000000000 0.00000000000000 13.68348341974252
PRIMCOORD
 96 1
Ni 0.20551948464172512 4.262304666765856 4.789041721186564 -1.3717773818114116 0.2403325824496184 0.6373607899534895
Ni 4.330927714870733 3.8081023611757856 12.980713341464599 1.0191366992839803 -1.856456295855732 2.424359248127715
Ni 0.3078407499930892 4.033184089121958 2.388465390803428 -1.1809673315719533 -0.7564717718857488 -0.5640776649886221
Ni 1.7186146890843264 4.225347322193843 12.775283609038379 0.6431066912983311 1.751378394977771 2.412781570592445
Ni 6.618019848099069 7.066500449950695 3.634210248391552 0.027114853938921043 -0.24951193495604126 -0.38330468727019146
Ni 4.80651161596705 8.835348332150485 3.231012444018941 -0.013758744346989208 -1.0467369774997521 -3.0256500318315247
Ni 6.5279871569206 5.7151873536315305 10.010932200024298 -1.9062302819550652 -1.5082983316900023 -0.43735981724338224
Ni 4.445128059911751 7.026551364861848 13.209473975327564 -0.2118540153939513 0.8477279363892691 -0.05818946385653849
Ni 5.957284605767196 5.326541562116582 12.694441170760058 0.8167296882355418 -0.18376239936405772 -0.9585100867408589
Ni 3.4471956137653557 6.146213019405254 6.781206204427595 -0.6965455278437618 -0.3451497734670249 -0.9396628721273689
Ni 3.196141838457419 7.14475316284413 10.997580174908759 0.9036237191156244 1.6053770164125707 -1.124073703708703
Ni 0.6201606964912256 2.4081921798363015 0.24013018274584683 -0.46010071048432366 -0.9247383896070526 -0.01757477565896973
Ni 5.7261446032744345 2.0252026477359917 6.428172409170996 0.14909647255075612 0.6062931220144074 -2.187657834672781
Ni 8.622831914375015 5.442780030384692 9.000871985757788 0.5880364897970646 1.342643697670249 -1.6614232086738612
Ni 1.4003495932278944 0.4492631289805603 12.510192961193022 -0.4849951597331583 1.4391006896484182 0.4741677301003512
Ni 7.335457922414059 7.8091345889308945 8.899778268937236 -0.20710801606853363 -2.521575229759096 0.33378781148698644
Ni 3.30928572512843 2.494943305635368 2.472660448298425 2.325258647879111 1.1583601356953985 0.08693131187592125
Ni 4.593471643601134 0.899352726278896 0.8148566248943927 -0.670463228934413 0.1532953411234521 -0.007395778243438876
Ni 3.8520622483950135 5.420407420832244 1.1729193489760072 -1.9124063288587905 0.019470450019785823 0.0037931484938450804
Ni 7.8119580440436565 0.8037049121178945 0.19418078808292477 0.33725700098250955 2.7408440495598794 0.5782066481908364
Ni 8.016845523501201 1.181382234963001 6.935378072611336 -1.1405920130787002 -1.0170965289254998 -0.8829134831514666
Ni 2.2429172146594607 2.2767425808779134 9.20021352623225 0.18339318895009707 -0.05491027888463446 0.36486653516966194
Ni 0.14922334238511542 8.52400163623923 3.17020344817647 -0.08408278668353261 -0.8470903028052702 -2.1036436964436542
Ni 9.088056913931794 6.86062195644695 1.3975766237363538 -2.7508906351626043 0.8138132859196953 1.00491181393385
P 5.339078824719938 6.335225575745348 5.280333194915171 0.9116445325375719 0.7732232803124748 2.1614732058576127
P 5.98646342499544 2.1439466986869506 12.790594776052187 0.14525370176589822 1.0964901376634792 1.37083044451711
P 8.190272981586414 1.8196607250403902 2.2245918690749416 -0.4428745764140244 0.49405752704574263 -1.887122100370705
P 2.9803064585460866 4.514639280982562 3.354574132120914 -0.08763168037705554 -1.3188185702261932 -0.30950991277622825
P 0.9997461888347253 1.0476794814278727 7.7195646826136235 -0.08491145323241506 -0.7570510414279865 0.3534287256463655
P 1.3784724906985466 9.40780853085753 1.1357974586755681 -0.8490785368798927 0.22399913539691746 -0.7245492121455392
P 3.0511078677147827 8.580265056333937 8.980948863753497 0.5214449179197601 -0.6670822282773221 -0.5906980957896278
P 7.525975698201685 4.642124823756145 2.521578210505393 2.237083693404076 0.9781222045448316 -0.7214343206656414
Ni 9.01839610583514 6.256318419613855 3.9872571325129127 -4.666307982933576 1.717219232597559 0.21165578334021612
Ni 3.7725567441601533 6.429100783650126 3.9159938734019297 -0.7650859959173211 1.1342187625625046 -0.4376634645267301
Ni 7.92666324529689 3.515239012145096 0.36130689270455635 -1.5448704743870814 -0.40453685717609045 1.4418484275968846
Ni 8.142377085749727 2.389063738906795 11.796545048145294 2.3895092303280654 2.617707234297679 1.2108605195869597
Ni 1.3884013295387891 5.95813538197667 2.932165613954584 3.8024600010539933 0.17616890328751597 -1.8006931820524987
Ni 4.762794807664816 7.507651287536079 7.911954166062094 0.18203307537777683 1.4277518402945022 1.5279857828166006
Ni 5.350961644085238 3.3964014693029863 10.779847844525971 0.26506659486118866 0.06991009472757638 -0.1272752629106066
Ni 4.0795841147002285 0.6228766359291639 10.28242610749459 -0.27637019279946595 -1.57157703714399 1.181642760372423
Ni 3.1359050129887924 2.0950878363714076 11.961361903055495 -0.9685327610841835 -0.1793043635927041 0.04434433044333008
Ni 6.274053831365211 0.3795424860735702 8.802789781057129 -0.13763680865058875 1.4292988730666483 -0.29776588486642264
Ni 6.590131216968707 1.1960137159281419 10.966162224887446 -1.1284880307263145 -1.9076680428428563 -1.7009708890594966
Ni 4.745311824019568 8.93070071193545 5.411215298094272 0.3446756620440838 -1.0210799390532803 0.5225335229982484
Ni 6.67112324227287 3.3053497165109706 3.869592912904748 0.7157434409284511 -2.4564286178584336 1.9858928280837156
Ni 2.4094262727994953 9.084326587474868 6.4841647027813645 0.16213505090226912 -0.5966203748113338 0.5836797554902657
Ni 5.870580225913704 9.224452233932075 12.798203146154059 1.5434476258976257 -0.8430883807347287 -0.8529079379283119
Ni 2.020144736424719 4.025891721612176 6.499039262663497 -0.06302030958627856 2.1986989229782905 1.1346548216586587
Ni 1.4133730136652367 8.441382852029042 10.550608532180311 -1.557506675093853 0.7934853729956205 -0.4895827791038408
Ni 2.572868796909775 7.995361086914688 2.183883629829948 0.9820295100190377 -0.21206227475001543 -0.7563591575672844
Ni 8.609845890694134 7.028486647008674 6.948350072508545 1.355028444487847 -0.8989548528850454 -0.4978383342444136
Ni 8.897370852740096 1.8771208413418305 4.182712215072226 -3.0676189200641426 1.8819811795997137 -0.6140696806360327
Ni 0.4269054781306963 2.4840982462618455 6.262437463889691 -0.38299589778052107 -0.49632164048957106 1.67190585337274
Ni 6.818475811916052 8.315851289780515 1.1554419748442284 -0.25441451446398117 -1.5218609008657855 0.20017375084254557
Ni 1.2110659104034622 1.7829090626289092 2.4992336485202897 -0.8428960622182644 -1.4126458378909994 -0.4148739774360403
Ni 1.2841391725271292 6.440628333829051 5.5092032142907845 1.1967852724408161 0.0588756912902857 1.2555046406588957
P 5.095476353136742 7.181663761470569 1.8596948877501849 -0.6383748330403006 -1.0225948330359098 -0.38430253240708656
P 3.6314494328458613 2.777559943395902 6.319744253489644 0.5153336628156996 -2.419544343237575 -1.502607451952812
P 5.475558287422253 1.3125700566261658 3.9766252346512143 -0.30278390690630436 1.4613175920650896 0.5473043021850251
P 7.911732590280066 3.472111202757113 6.531810975268678 -0.47056998544676376 -0.2515806445596119 -0.8160252059693495
P 4.472726866179543 5.780743867706652 9.182643595128232 0.2847188218744774 0.3183974450738452 0.9230481463888233
P 2.673596960435925 2.9199574428080783 0.48379622881502665 0.9872938437417708 -0.9508610548360333 0.37442101162731645
P 1.2312695080812057 3.369372963571215 11.061659517103696 0.10344730725307345 -1.1572453053646652 -3.015076627191052
P 2.038936606546082 8.10953338438836 4.239567438837919 0.7175462984651448 -0.8554674711253718 1.0136826181479444
Ni 1.8122842148285716 2.769220466705227 4.60669513668554 3.3021958309769066 -0.26736336131516536 -1.9566141337242562
Ni 1.2841672200944745 7.57232897783438 8.2971444972801 -0.6377829650925726 -0.5909832311302144 -0.46769754899497523
Ni 4.553756288240165 0.37513621324362084 7.418760132348563 -2.2646860285023775 1.0184805537572201 1.851705668544624
Ni 0.8317992254087874 0.4187137186280406 4.863794097675304 1.1411406864933187 -0.6255288303155678 3.095692538371907
Ni 5.4982394202155 4.826874149859751 2.624341692501902 -1.4541223598682311 1.6343435788482497 0.22796249092003965
Ni 5.9288350232899285 2.739555489642997 1.664650234593024 0.27059472376826943 -0.8814446119154239 -0.7494719435291479
Ni 8.121070283756401 6.957264524329798 10.904600619321208 0.8762394135654006 0.9376509839036625 1.5052955403079364
Ni 6.416862695098453 5.997149548154006 7.334853029878311 -0.3968885966022132 -1.2413314344823072 1.2059628251750263
Ni 8.94976370854115 2.6518787941215343 8.66958159962619 0.12561253049620302 1.188228898230373 0.764997807078889
Ni 8.782375826624296 5.042092483289487 12.633741560430233 0.1311170052542 -0.5047803127798856 -0.791132813603044
Ni 6.732444573678849 8.22983874992154 6.738773039790864 -1.2271320030534738 1.7527732184427682 -1.1635555638534092
Ni 8.613052662560614 8.259606568064038 12.948707327447943 0.619040651488063 -0.34821504265591 -0.6846264078086726
Ni 7.2983322924379745 0.0251633425033073 3.2725826785003473 -0.4628957567309576 1.1058486960602438 0.07950905126992114
Ni 0.9780186733312193 5.923739715222196 11.13332011675207 0.8016206005082452 0.20007450626051995 -0.9306827801159455
Ni 2.5521977397762763 4.79627425388601 9.493012365858046 -0.7066003409766024 -0.3820623302226582 -0.993400727970457
Ni 3.0247338052210693 0.7695186671995985 4.163350044414842 0.6206031108791763 0.11013911745095227 -0.07229119336524324
Ni 4.462218377614164 4.155219054641434 7.656579195545156 -0.02518729789890501 -0.120605821310231 1.0125724158029015
Ni 5.51732111519943 7.816763527248821 10.641097463787599 0.09708974046616183 0.24949882232991866 -0.031434564360197474
Ni 3.474383055712084 5.097589269876755 11.496890448141393 1.0683897798828375 -0.18671171180036875 -0.22013425312487248
Ni 6.575602577083834 3.304620479759992 8.148473691971688 0.6515908175099424 0.4765164328381858 2.385276166083324
Ni 1.7935110430854393 7.642775117816702 12.87381751787921 0.7690002433700628 -1.0065768603410987 0.6903504547766433
Ni 4.691301558501602 4.264791551070474 4.894664185214472 -0.9478906593537999 -0.33720197937485796 0.5812595760845473
Ni 7.233710697274362 5.1808811957032335 5.375364897513487 0.5513895279979922 -0.10968403219140464 -0.9369033071043605
Ni 8.623458310045725 0.2004036083579392 8.932291009003928 2.2751558176854494 0.32853221951500194 1.2849440289659355
P 8.881467882055302 0.4439247419958349 11.16265693727636 -0.008086890773192525 -1.4751750667734722 0.20392087658980368
P 7.517739062591277 6.4144038583611795 -0.16473832172163352 -0.3744117556559359 1.9953591157029378 0.38097603913701483
P 1.267712647251888 6.0371360299993135 0.46555035133798617 2.4063797808311587 -1.9696539976273497 -0.5313063840948721
P 8.104120203890714 8.824942684665372 5.210287200226976 0.7127514481796627 -0.1473676627851075 -0.0038132030985031096
P 8.045753216245108 4.086231388161068 10.363980019064568 -1.1802016570505223 -1.301628688710468 1.3078163055784187
P 3.855035290533617 9.093105476053951 12.639392210331403 -2.574059672811057 0.1634918220404797 -0.7578871641760366
P 4.6291481492643785 2.1537352996904664 9.047984419546628 0.722593116860433 1.6813739407641752 -1.0804364266347264
P 1.1021946031580547 5.3110967016984265 7.951909795583322 0.3857490350456259 1.3186349934604775 -0.9521278373635991
