# total energy = -340892.30931805074 ev
CRYSTAL
PRIMVEC
9.05124985288241 0.00000000000000 0.00000000000000

0.00000000000000 9.05124985288241 0.00000000000000

0.00000000000000 0.00000000000000 13.24741907404831

PRIMCOORD
 96 1
Ni 6.328715214114417 1.8631725859933304 11.530539890858776 0.1413001164347889 0.4959781411072232 -0.04816781795447833
Ni 4.566174421691428 0.43950243421248175 6.006154020210394 0.08759208538837172 -0.39216830830840843 -0.3118498737633145
Ni 2.8102500927600653 1.756204917670405 4.3947781481344315 0.8210414282370182 0.07024922323454998 1.8845635956149094
Ni 3.623179028515286 4.113159376881612 4.98088367287208 -0.5720174886609891 0.5589393153207922 -0.31309454480369303
Ni 4.897287236261511 4.439828027875239 2.5949172431687875 0.39035413791780516 -0.003717815171219403 -0.10377486579582128
Ni 7.461198518641077 6.214895749809053 2.7222647051958844 -0.9058747199333302 -0.8940077932924152 -0.13005462542795665
Ni 5.064834918468794 4.809336243445986 11.671571937226492 -0.4031937128846346 -1.474924641325563 -2.407583828441589
Ni 5.524946143001505 7.997729443939608 12.37155213889235 -0.3556673851688972 0.2051308377375048 0.7673871332466718
Ni 1.9365058106296764 6.467860074930828 0.43857920674853373 -1.20366271628694 0.13553416048528916 -0.006686925101872355
Ni 2.5809276317150807 1.8188848214727622 0.2464917764995252 0.8887118350007985 -1.343671367603815 0.24190995423906728
Ni 0.6495719821342907 0.07064138299146233 4.592337058794779 0.41786031375787397 -0.7828242937373485 0.13218092774234008
Ni 8.751399848258867 2.226770335544881 1.4185733931048763 0.37940149556104336 0.9329150118805739 0.09135026687922332
Ni 6.9825322323329395 0.6485627677987004 4.866240544848881 -0.4980460793798455 0.27853429033032034 -0.08686831984846974
Ni 0.6690004895006099 7.623722757294526 2.6034489510856256 1.5764109681975238 -1.2832923522951252 -0.17514971799438223
Ni 7.526494233591288 3.8578417268517353 3.7891463625342814 0.01873974250134837 0.32704740743935934 -0.32279326014869575
Ni 7.7156562999545315 4.031010235089526 12.76774253329616 -1.3024972073583505 -2.2339477188782557 -0.01236572065420451
Ni 8.024312964151525 8.833205042564385 6.86819051092297 -0.1213020760463072 0.8824707391870932 0.9051548110481702
Ni 7.261392182693491 0.5278181923887618 0.5154885801202318 -0.7616607722858559 -0.1218576914394611 -0.6862863120095987
Ni 1.823211318803813 6.429609493924508 9.276584127000483 -0.16622824713503628 0.5963277832715794 0.04648503093541672
Ni 9.142576755483455 4.8344082049669295 1.5687861219890868 0.15300609201780746 -0.680890337805008 -0.0337711829131741
Ni 6.653999023912123 2.194701758047155 7.167622141480201 -0.932207187180272 -0.6492706540171981 -0.43904311848307614
Ni 3.188302687997156 4.303977821930173 0.4587064705875665 1.8325622628469536 0.2393887304791103 -0.7390762021171207
Ni 5.881592532824505 5.516935787064308 4.792956196960626 1.5599296827130489 0.3316982759478094 0.1840763310600507
Ni 5.248041262564608 3.1409465498464075 9.179799114529928 -0.4974428985782077 -0.6509187311435822 -0.5984520287034338
P 9.125741431140874 5.50342227134201 12.531568276268738 2.543131358663317 0.943918304969613 -0.8608598457855366
P 3.874088719967292 6.157130674564773 12.677885347305073 -0.6387813244500998 1.4978617097377107 -0.023617125198307713
P 2.5247374739092994 8.3984735220406 1.3794403152580184 -1.1106407181322486 0.5357999010898514 0.9221534024886957
P 6.369482042522478 7.85850312187638 5.871746583458989 -0.8300454315078415 -0.8577740077713614 0.3647420937766557
P 4.494063115757365 1.074093693056768 12.753025201370871 0.4917283646919338 0.17806226365548689 -1.408761929455561
P 3.834706732755154 6.11602894991979 8.334467610165023 0.49698344244328596 0.3510789944672663 -0.4712919512144529
P 4.961967466235756 0.9305680274114283 3.8057056237626443 -0.8367135875566364 0.32590275231195487 -0.533559698905423
P 0.24114701358323756 5.589155707994128 3.834015217282158 0.024040842999287628 0.3544939336860863 -1.5587202357859802
Ni 1.6921311214224792 1.175295715354841 2.5165985902271215 -1.1666020639892165 -0.07444243538029115 -0.918340970721141
Ni 1.9982986919666716 6.234238270303731 4.9736906447779665 1.0248409487576093 1.051006037188751 -1.1396612737343148
Ni 5.887883151328857 5.7312422249456665 9.32529523722332 -0.2907372601544154 -0.5492693963311959 -0.13085552406269718
Ni 8.520964083507359 2.276398337356913 10.143110942662712 0.2794778851905122 0.6156318829168301 0.7720004636489672
Ni 2.3307510914844447 5.100741225816657 6.988636395094573 0.9798222179550737 1.0925998014701377 -0.34552798274205004
Ni 0.6050516004978064 8.741199089907205 8.738301784895347 -0.012992555604926011 0.3592214210687426 0.6046830972148102
Ni 1.521859013071585 1.1935973421401644 11.471655176033218 -0.7692717518638945 -1.1348391697553228 -0.7633831542936014
Ni 4.215583317881968 6.96883769161771 1.4891957684720807 -0.026144776716167877 -0.7026788944350092 0.421215603383352
Ni 5.533725855158657 7.861327111766103 8.065756826033148 0.030020200511174103 0.7498948899991795 0.23530247622487863
Ni 5.650079669365056 2.8108836802353236 4.855801738631515 -0.6391888443011636 -0.23214156199839373 0.18879816201575225
Ni 0.578315114166863 7.180130063366767 6.667862822995743 1.3485294670270647 0.9833608272359515 0.544852755320739
Ni 5.108027481782129 4.78348587445544 7.061974145355743 -1.1672854632094865 -0.5714569881718288 0.5119619181299893
Ni 8.078267463294608 6.977870838764966 9.29122271305385 0.1435799136079011 0.5510501423807026 0.3622062147286794
Ni 4.398798713227428 0.37510731860210345 10.461724886595878 1.0825563011912067 -0.015915642788991942 0.7098412165114033
Ni 8.192394670087955 7.249263508167115 4.804441327637132 -0.6961272093594205 -0.1597884050469635 -0.023515052402804663
Ni 7.240737231000065 6.152478332246447 7.1699265896402125 -0.3528497132144439 0.7591619171234023 -0.9164260130866153
Ni 2.296220574082857 5.444371918647918 2.6573265146067127 0.16190133762490827 -0.525233695538231 0.18733751830982576
Ni 2.198267950407896 5.227277695875423 11.556054458487436 -0.8113599392831963 0.5454921886769508 0.24324769921388428
Ni 0.8524331148375873 3.4245674575210447 3.730076097090968 1.1863183114712215 -0.17554078278521382 -0.16654809236830026
Ni 3.945285849687053 2.388733396720242 2.254048086604688 -0.22912051578388282 -0.45683078148380035 0.3801969948791452
Ni 1.5408847398286327 3.4357095458359472 8.190746437527316 -2.5312888575024344 -1.9349926987997383 0.33249711770002094
Ni 3.728526523151479 2.64987100027285 7.0757112269443105 -0.2368875613238114 0.3390030371393387 -0.3638905444096378
Ni 4.32001663630386 6.917372286127428 6.047460303097389 -0.6622251572953369 0.2724731717379049 -0.19640657049062948
Ni 0.6322189263119256 7.535264894498795 11.309851416851636 0.4238180740032056 -0.7049702615723471 0.4214793985677
P 0.32126777032953147 5.561187346586291 7.977450119106513 -0.4649891489248766 -0.49441285350263237 1.5324381621609995
P 8.67639214243791 1.633270844970966 8.089615920101453 -0.6336907973010699 -0.3156535637801209 -0.8541230412823355
P 1.673639418394578 3.0367666664146196 10.37560315133392 -0.6062522414741429 0.48587910500000847 0.8476292060278757
P 4.158144087624963 6.0189995537087775 3.760717292519433 -2.2117763249875395 1.2300664030914492 0.16503191283408997
P 6.706496271862112 3.935094142585038 10.464613140358091 1.6214785499601234 0.019521100752063158 0.4157134426182002
P 6.144232643818439 7.789342523327092 10.285707044969353 1.244542228110121 0.35153202284428486 -0.3588588955230013
P 2.491012517726255 8.428930977101238 5.704457766991597 -0.29535624698366547 -0.8340990327519248 -0.8790398591286732
P 6.696349821008329 3.851107597114703 1.5837822324034907 2.2292695966762963 0.23326204875608214 1.0631933232835624
Ni 5.40580454390397 2.9657867666863766 0.19238974198720327 -0.8743249701515072 -0.21111533745571387 0.10598370052168199
Ni 1.3598235418990512 0.9681850209424891 6.663676620034214 0.8213653872353402 0.5132855220374192 1.5998303755627286
Ni 6.699427245888156 0.9690267871596182 9.289196138257985 -0.6304488933250045 -1.2754016366931389 -0.8002031513354283
Ni 2.7881469411231907 1.482377462113335 9.245479507590115 -0.752521014768117 0.3413046886893219 -1.1095829662916954
Ni 6.556951525201816 1.800311657198042 2.573112782770249 0.003196395450110624 0.8433560325738184 -0.060072539811864285
Ni 4.045483183274358 7.037509522686084 10.432209666623441 -0.7146689769173499 -0.7620181556252748 0.21110479593275255
Ni 8.24977959284708 6.9323883092910545 0.5600415462554437 0.2873518886219503 0.9079552566114427 -0.35802020167178983
Ni 7.766442861721322 4.04899506813722 8.339567989340853 -0.11042322435027434 -0.6300827682348374 -0.20263249679568326
Ni 2.8663768918183203 8.439774374177807 12.47334520779234 0.989102357705419 -0.1529086472079947 -0.6103888893503359
Ni -0.08815464593257147 4.755979126779576 10.294926647859329 0.7735590663853388 0.24138673474574557 0.4566927132440393
Ni 8.73260945399263 2.392028051591587 5.807072689359496 -0.7225406663559427 0.29591031971492265 -0.2847892701010966
Ni 3.86730028273238 2.827628492081441 11.278322293832845 -0.7688634606818824 -1.425807572083938 0.8901346834902542
Ni 1.0578285974419182 3.2670033036739063 12.549345835699524 -1.1726968640330449 1.355188624214795 0.18146229047597134
Ni 2.9785128236894254 8.288808581323003 7.765875348368483 0.3693525959654736 0.09013619196646412 1.154935940505198
Ni 5.617241735647373 7.7446565038220765 3.5155334215938345 -0.6034350837403221 0.3140108859703753 0.7866884046784451
Ni 3.0571862856172363 8.527263753261355 3.5108973715248717 1.0392676657059006 -0.9628161703153806 0.69059573801823
Ni 3.1088055623515096 4.352926980018715 9.66204426494831 2.4002703254993114 1.1340986920448728 -1.6035936992599027
Ni 7.160778491622445 6.020158113663536 11.514073857501774 0.2971099964499786 1.3338304702539932 -0.4452983553641686
Ni 0.6414240472024667 8.929121135068874 13.658883317247216 -0.11239757446782578 0.5493048775548217 -0.5259723734764683
Ni 4.895956702563469 0.24422986921285242 1.4932751666877808 -0.5880249198328389 0.3340595770911343 0.08565141672223313
Ni 5.898400703418148 5.471525667587567 0.3469588373262983 0.6199819323554097 1.5894382336951274 2.2113181544041978
Ni 7.887240839504176 9.041546706928667 11.174462824638544 0.07984843688721087 -0.7305437391660773 0.06349673500206483
Ni -0.05901324257053984 4.907334123369181 5.8993673768804 0.15288962104460121 -0.9853994549325351 -0.2934299764952301
Ni 7.753798265965092 8.664725081643507 2.765134138896838 -0.2505966833797878 0.8044716968037952 -0.5667032755369272
P 8.59427920564441 1.5720300898624104 3.6176713431053606 -0.47246000338062505 0.9651011096948152 -0.8424803148370846
P 1.9083745267281997 3.313707751850103 1.6808324464886912 -1.5423117125209695 -0.4762019869215605 1.3741962756655495
P 4.663185715403148 1.0423600117959644 8.180333879933926 1.2152694472879328 -0.000833551644888887 0.31556486072105655
P 8.508518615243352 1.7025762635145976 12.432954006244612 0.14892806529369187 -0.24785383052732796 0.1451158906364533
P 6.375464918538846 7.712325440084601 1.2386137322572799 -0.22620257080613945 -1.212913802571563 0.6703200184883293
P 1.778742529290314 3.0586706905592704 5.918442885510503 0.8282371746545091 0.7685960659531086 -0.3523542616352641
P 6.908502061473809 4.152957721577491 6.191565248720107 1.0209693816173449 -1.117475481665895 -0.68351749101521
P 2.2904096718097726 8.574375507671647 10.1306989640224 -0.14360511041888172 -0.8190179700490863 0.64472391518678
