# total energy = -381165.8900970255 ev
CRYSTAL
PRIMVEC
9.21532335888898 0.00000000000000 0.00000000000000
0.00000000000000 9.21532335888898 0.00000000000000
0.00000000000000 0.00000000000000 13.48755723489739
PRIMCOORD
 96 1
Ni 7.940198891514847 4.190990741823729 7.617866239671809 -0.10353215365739589 -1.091974766291629 1.2161148260073638
Ni 6.75085085426372 0.3560395393533315 9.556891874108972 2.2187692113656046 1.512062169607809 1.0572928986387276
Ni 0.24866996618988804 6.072179165064757 9.661528182424135 0.5364524470721858 -2.4872576874241488 0.8015046437556713
Ni 2.883594414935164 8.709014871832734 1.8332687428261425 -0.33320159996621324 -2.051893817564873 -1.7203081559355275
Ni 2.548672710127746 0.6904931057443888 3.5824974245923653 1.6318316110596736 -0.0022710554223638307 3.2525665979855534
Ni 0.6680620876486443 0.4499427607878767 2.7033113618912106 -2.52430188466164 -1.5424556942980017 -1.5018947421565036
Ni 1.0945500079380663 7.1475152242210855 2.5611926481684506 0.5840348248368394 0.14258412535353507 0.11878239494824704
Ni 3.5240409436800997 6.601295374753495 5.439329748730212 -0.017184225088770405 -0.30877432016178435 2.11831055442721
Ni 8.20654016139004 1.5520723720223357 12.024615342563557 -0.8035221884063323 -1.1967670176083711 -2.0866240219572063
Ni 3.3879029746860434 6.558250600288509 3.346154796189206 -0.6573120362644357 0.19082753374095524 -1.8087505051393367
Ni 0.8630500318537576 7.839198949717321 8.769043486875534 1.2323562275668904 1.7572752200781803 -1.8963672731180565
Ni 0.7978700511663576 3.026164679492603 9.073511313246977 -1.8600090462039967 1.808628891959808 -3.625763507397781
Ni 5.681043989001416 3.922170550019382 6.759370420522097 -1.1321438823113468 1.6124809744472037 1.031582895467133
Ni 6.504893879211167 1.8471285888538325 7.260769702752403 1.3226801100641286 -0.07810188650974936 0.9624019655960975
Ni 7.273737505498524 4.334500969343153 0.9334560223033272 0.5658584110381286 0.8603368834025313 2.057081018192767
Ni 2.0812623042963283 3.8681964022905397 13.02269474003562 -0.07651782985208112 1.004562401014231 1.6545357375254086
Ni 2.5887870118288987 5.408040040483923 9.155353519734023 -0.2571684230600345 1.117757788793004 0.23081770098064763
Ni 4.671579059769241 6.171363688200412 7.641267631295955 -0.6904880087957722 -0.43819799687396144 -1.3762207622947458
Ni 3.828404636899872 2.2138892351676787 4.804294457742895 1.5515764256523472 1.142887493981096 -0.16141874156153493
Ni 7.272373637671331 -0.15728068491249303 0.8797177868472966 0.07720277173424768 2.558054812742369 -2.6903758656069985
Ni 0.06647934125249598 5.271607181148852 3.9222756047033687 2.6165129568792613 1.333780076632032 1.512965912369001
Ni 7.2962874012629895 7.438986680344622 9.36646090720485 1.588495924386516 0.2823091839917202 0.5502914098378071
Ni 7.391066999929738 5.131543484490038 5.492146451870571 -0.7361466871751515 0.9815127182836192 -0.8069181014617588
Ni 6.056079995509986 1.3748340617493588 2.1914038466653096 1.0343440031520381 -0.8229934097570665 0.732022637704449
P 2.065006474247894 6.914634792727902 6.911213143239816 -0.8934753178277128 0.5175823496405603 1.787358669727122
Ni 7.818925238772562 1.3523210272775197 3.8989829538924723 1.7907635816436125 0.7318082077007977 -1.7034365769911697
P 0.16489162030761867 2.056500730974252 7.379393028554819 -0.7477858140759767 -0.6544118318985052 -1.352728592710077
Ni 5.0858539122790765 4.4362934289321565 13.258376629768444 -0.7529689009388129 1.112681145601045 1.4672997777904535
P 7.167696781934278 5.156950130433084 12.584538377565174 -0.04096024446244559 1.1676395041147956 -1.8917117766239164
P 8.007737994930364 7.370949949478642 4.884829009874004 0.7788439689333618 -0.3861298154238124 -0.08933323644919454
P 8.300186275308514 1.8527315053331113 1.7247481758004262 -0.18736374356207086 0.7841419841075077 0.26033705059600326
Ni 8.00937832245226 3.617300014025991 3.2109420456400835 -0.8801834858148131 -1.2514088733229674 -0.5941863114485444
Ni 5.419540763783496 7.9075582168937855 2.923872749388506 -0.8769711495251026 0.1417343757587301 -0.550765264150432
Ni 6.723619574335645 7.015579442586489 0.927845733565523 -1.4874397430734383 -2.5806604659570263 0.025964028163929478
Ni 7.590320717224092 8.482023031836688 2.976178002093669 1.6051512735550097 -1.3766861319669388 1.5708170190495139
Ni 1.2230484740352112 2.2655964133999706 10.935009355499066 3.2140314180248324 0.9789588415135142 5.305248972889992
Ni 0.15755530154256295 0.31763099396848565 5.553016425917579 0.8245859510551671 0.26251091831887047 -0.859248792544675
Ni 4.341476968972781 6.9271399862515555 0.5092267777196146 0.13293348963764848 1.4740509804713582 0.12524563407508754
Ni 2.5143732773384766 9.181530566692969 6.065300847860589 0.294753323292344 -2.061941431608862 -0.29888457185189815
Ni 5.107565213636282 4.9134997232791555 4.431107966591877 -0.3249403883986856 -0.18277946662549813 -0.17036360945964854
Ni 0.31346658943396905 5.077965595656934 1.6564202407226944 0.5851388565342954 -1.0156649386852958 -1.1780146767015327
Ni 2.1528192886081707 7.467646335361986 10.82555804083452 -1.0924517059280476 -0.9535121193056353 -0.023316820349069522
Ni 5.713924262024553 7.301217599151828 12.27654937621555 0.29038887567606114 -0.36672621408622 -1.7269683415645225
Ni 3.645572625470773 8.09661978677682 8.503297526876265 -1.1743120310389645 -0.037746365510838216 0.3767380897962673
Ni 9.124460070383472 3.713120944209447 5.607397890929948 0.6079915927627528 -1.7125097429370313 0.4343624251779552
Ni 0.9063270324622927 2.3521651591340915 3.8941006756840477 -0.8726627519577359 1.4170797052926367 0.34186107541342414
Ni 1.9419174028437372 0.6751486711561533 8.23948125554601 -0.9624641862926006 1.3856248292174653 -1.3005773646278183
Ni 7.479976437745663 5.4608622728181775 10.390584650982401 -2.7119731321618006 -0.7544850804730232 1.1638661531152923
Ni 6.448044550657431 2.694910673301555 5.0563234092234035 -0.33065209407148216 0.6184071316691221 -1.2484459340399015
Ni 7.873599751061315 8.232140329119376 11.801680087821094 1.0595914648649172 0.005837432617383495 -0.01067933409071709
Ni 0.18294075224234815 0.6485191518302125 10.171573280840065 -2.3873016811537857 -2.8101046836289156 -2.6993868108563577
Ni 3.353059837830528 8.578424527379017 12.511961256979882 -0.4779487944093382 -1.191745910244696 -0.6896382592009671
Ni 9.127049576190506 3.2314636487777575 13.169978642387715 -0.24392081402150895 0.6257671715786192 0.9611164140154544
Ni 7.357901051888743 5.937018020325311 2.981802113816208 -1.2616156386526403 0.6397084642500596 0.1549408471466751
Ni 4.523479601317776 4.188004977120956 9.316677888447678 3.9037974610529154 0.761998615241249 -0.06901766482029403
Ni 5.944003235278096 3.2910867896016627 11.470412258645311 1.1835515473593616 0.5412598957631581 -0.46306776353244766
P 4.902496627430045 0.6220739389674057 3.76629243729134 -0.8315261298184259 -0.3411367956528899 1.1269636236619882
Ni 8.317409714288402 6.8513255226413134 7.220928174616689 0.3014451334902227 -0.1591962799889194 -0.8923391473407406
P 2.592510002384209 4.42617500410609 5.004828183423716 -0.8047133805009561 0.35610575825789637 -1.0250535789890474
Ni 1.8307621749275178 2.0904591968067234 5.887952875242047 -0.373512383770118 1.3916761776178679 2.0114400804252
P 4.096957584332674 2.2927263247733207 7.008201654867228 -0.06173244401279045 -0.03306515798508499 0.8563311046772478
P 6.637880207685629 5.7726443011791 8.161927860456098 -0.16381835214196303 -0.16022832079785954 0.350690500779596
P 0.860783983889523 9.104564187688139 11.990761931415072 1.3264876567356767 -0.9019956965938981 -1.2254258189956444
Ni 3.6194011077057207 1.7535654128437699 1.7930355634562685 0.2833394250284475 1.9268086203270496 1.5444331297393465
Ni 5.078490869076867 6.352500080168676 9.925587738285726 0.18656952979554964 1.4941287250578397 0.7546797129823325
Ni 0.25347114955453326 0.727145210535566 0.25996334471843446 0.8436941326395275 -0.06926629049599038 1.617268625643834
Ni 3.580853410941208 5.651923567826217 11.676798636062959 -0.2567850715786868 0.8265363899133185 0.3608342740818173
Ni 3.044549249190237 3.848328165564676 3.0462863376052765 -0.19197501708183712 -0.4742276368040091 0.7618695458625524
Ni 7.057020750822207 0.3664021702430504 5.654226477083079 -0.7850698952384156 -2.3390824411360813 0.19060204799371044
Ni 3.5574464901231684 3.3087986407088565 11.377294182743716 0.35544807006923945 -0.6527586125657984 -1.2285893043252905
Ni 2.9420195637486968 2.8836497068741043 9.16528026583843 -0.1729462825851602 -2.7730471166549853 -1.4122794556905163
Ni 1.5121423767843174 2.6550451853256334 1.7818951592921235 -1.1954035616019414 0.33753699411677357 -1.9847152628358462
Ni 8.593132183137122 3.54901446943478 10.686298841887288 -0.7651291904504307 0.3835713106680168 1.488357112681385
Ni 5.3463250213034454 3.443535880583093 2.387783304667086 -0.12466713586379818 2.1195994484419627 0.06168410727335828
Ni 0.8883718968237616 4.933441682590273 7.379622490101421 1.2368227479786764 0.9670957715273409 -0.14721416792637873
Ni 8.912618221657054 7.213303416236828 0.8223920260863592 0.9648319151938287 0.7618402352865137 -1.2348211441676151
Ni 4.882775835874689 1.0650517585134418 8.682830452615262 -2.8206348937362775 0.7751122698050716 0.41057663561226704
Ni 4.674223857515216 0.3182806742510336 0.6177178557112294 2.3256864794451495 -1.227462904030331 -1.2317044529155046
Ni 2.6286709304511335 1.4781378343360625 13.203994243223757 -0.8807293310159542 0.04998713055140423 -0.7723174806687537
Ni 1.1562189505027602 7.427246358642975 4.855682785793965 -0.38889837930788507 0.019348065509308614 0.7850688667971512
Ni 5.901916854421408 0.5696544162551 11.986459297033205 0.1291753081467969 0.32348642956097834 0.09298548848980115
Ni 6.710294217051045 2.8572478060301343 9.482871633917341 0.20768368606634557 -0.4780740071332928 -1.5893479879741659
Ni 6.73111163206205 2.3345915378742483 0.030473230614604063 -0.6016970180032928 -0.6992706400844086 1.328295142258061
Ni 8.412631648466672 0.05766857078236687 7.614130347664079 -0.4797539659388769 0.49018493146421394 1.4094407006901406
Ni 4.799238931459125 0.3488727825343592 6.274951292740342 -0.6955111730419764 0.2798290978823439 -1.6120623988525462
Ni 0.18222380010075623 5.763041934449809 12.197040489551787 0.048133879392749365 -0.16259939213319738 0.3556213624223101
Ni 5.880620242606255 7.206917197289229 5.306517589863411 0.1216723149015324 0.34321424700720893 0.3480893157113231
Ni 3.2550087994431482 4.3141074591973565 6.952511613966606 0.03139188404772013 -0.18743804844343204 0.8023556789020568
P 1.7078481946633381 4.479946414725485 10.989405565028486 -1.0401667804814023 1.150856885339818 -0.6787362675764826
Ni 2.6382087899183273 0.43827800473611495 10.309807735852273 1.6961223027179435 0.36933202714018326 1.0727223458199202
P 5.1126797179882555 5.746021232579369 2.2359405819493667 0.8589862829119078 -0.8217446249516299 0.22372762690308565
Ni 3.0996476663441976 5.319803321258438 1.3369065562332931 -1.6917138892376027 -2.0236906156577787 -0.661801439494357
P 4.605366962888289 2.328767453639208 12.868720513071754 0.08338884594030155 -1.452618778739511 1.397158797998994
P 4.956046870293679 8.727712762517696 10.386753841146158 -1.333840240446006 -1.4170187701477144 -0.05168997217512388
P 2.068370067200093 6.961070806114557 0.4369049215857653 -0.6334187745866058 0.3905515986405919 0.025415611859627197
Ni 5.911740388906459 8.243705559681047 7.6885145931203995 0.9600463208797272 -0.49753108741663993 -0.3055293308619254
