# total energy = -340895.4021704716 ev
CRYSTAL
PRIMVEC
9.04389542507420 0.00000000000000 0.00000000000000
0.00000000000000 9.04389542507420 0.00000000000000
0.00000000000000 0.00000000000000 13.23665512556149
PRIMCOORD
 96 1
Ni 6.166389980575675 2.04363089738149 11.586771660649704 0.6600687730739664 -0.4586740053401262 -0.5292345891675079
Ni 4.494228032244702 0.2875361757983815 6.1123563246620245 0.46083450332655473 -0.9072872840101406 -0.24799935496625677
Ni 2.985344566802127 1.5698031431171207 4.798816472332773 -1.4343426061381426 0.6754804796433463 0.2542124257555041
Ni 3.402304308415436 4.318957344398399 4.810094209574483 0.00844144589913385 0.3014078524943841 -0.20409442605319045
Ni 5.054036097621291 4.678280342273603 2.4471260879078245 0.3288525789688982 -0.04714863266134461 0.13856754799497426
Ni 7.363132449097336 6.137992149830711 2.4456709251795234 -0.6588158745034718 0.3594507634707293 0.4893212979123379
Ni 5.096732326585294 4.705683344552978 11.447906268306832 -0.10783129525338203 -0.0885055983415766 -0.5032011412182237
Ni 5.584632381690161 7.655783851987868 12.392037370898848 -0.4145027101395507 0.18111082067382356 0.5272026463391436
Ni 1.770695185899882 6.335700741523591 0.5497648198217212 1.1424020697042454 0.47810074660617013 -1.4441871030323903
Ni 2.6697488019370814 1.7622301000472433 0.4138784865385291 0.38730918044389423 -1.2589753728163156 0.1849502490245718
Ni 0.6992739723568683 -0.17571383870824614 4.518371614715005 0.335126584903068 0.12355333397432915 0.5074666013627971
Ni 8.68043908375311 2.28539230230963 1.4298895633273259 0.14071056247990607 0.20612328355776116 0.7161095660186182
Ni 6.778363233129635 0.786001309207792 4.535208634300323 0.5044118736968732 0.00984835354898949 1.387095757336037
Ni 0.8242578900467313 7.229734995757143 2.44516718022013 -1.2867265747876548 0.8855905157629974 1.0860452881810714
Ni 7.7685069610341175 3.9020247344705155 3.8364990010002975 -0.48830236972952035 -0.3270983152819528 -0.5200801763617494
Ni 7.599476560835594 3.5506151448443064 12.792075080312507 0.40369996309709183 0.2495510157240928 -0.43517669354913435
Ni 7.963601867031045 -0.0062312437526368634 6.460943314614507 -0.013186673893603095 -0.05303877289353447 0.34025336460667205
Ni 7.0037280561658575 0.595012331605201 0.26754826314569247 -1.123886527398561 0.45009680519407647 -0.1390210905926251
Ni 1.9103329268878546 6.618901273991037 9.122768760017939 -0.4938747216109753 -0.8906807858017112 -0.15468579371307553
Ni -0.022251599606658547 4.865054864740158 1.418214799088895 0.7059501089871132 -0.9376023900539143 -0.44868449822758205
Ni 6.292823634656753 1.8612697957440882 6.823468755759389 0.7162990563216051 0.7593835462159051 0.23288435370168922
Ni 3.2341511660456574 4.256020878107253 0.5755733833876135 0.2171098644762519 1.0547631902383383 -0.7972708081799816
Ni 6.118222195050937 5.6588646730133005 4.681182528224577 -0.68624903101376 0.1495225043445812 0.2438668208551219
Ni 5.455756875920821 2.8902027899113576 9.440805472181731 -0.7232451486221351 0.7116852116986776 -0.4041059402862589
P 0.2765378949165503 5.5640213446622075 12.34821065504213 -0.31112507978214804 -0.2651930931367239 0.8859422426754614
P 3.824165841195551 6.153258244829914 12.749903397266722 0.7711041770869429 -0.3296884446066322 -0.6583780156351049
P 2.417288469056301 8.389343230826952 1.5391976975680663 -0.2675058004303006 0.4695279173354946 -0.6061756225999367
P 6.287361121991161 7.735650489984293 5.8184234018299135 -1.0490512274552257 0.8179440202586171 -0.2792981650795383
P 4.613146209463021 1.0753643518247984 12.69396509703623 0.1208223081964113 -0.49906757866582435 0.19397996332700787
P 4.0409027882665844 5.927884377898549 8.425633668862083 -0.8997331258119665 0.8665031601142432 -0.2610289344567053
P 4.819455545435666 1.0899431107932318 3.888823360732164 -0.6682579937529781 -0.018725858544277427 -1.3973107501958257
P 0.34184928807190934 5.480166348908291 3.647664279220461 -0.6859122164996315 0.39517392790395167 0.015011385807167694
Ni 1.6381026392273002 1.1768458992099047 2.634624121985716 -0.18816104265238562 -0.48503192650836474 -0.538960301095704
Ni 1.8545773133392245 6.570389820450916 4.931474135050376 0.6659486288935111 0.09318217788163952 -0.604762544302494
Ni 6.086007840556173 5.619831221581689 9.237173129171032 -0.7195527873722124 -0.09494209799553971 0.7435902879373903
Ni 8.597226204554254 2.260738644153334 10.239479087262083 0.4354266047764114 0.02762778901959758 0.05978689025064542
Ni 2.325917996439624 5.100856342769913 6.814626539479341 0.14257281249962545 0.10924103111671508 1.9262041539738308
Ni 0.6244420707858331 8.929743097229434 9.065586019815946 0.13994745906163641 -0.5606719817411828 1.2339960771631586
Ni 1.6298998263337707 1.158197387427703 11.521264014969768 -0.5878380006330134 -0.03849018565539823 -0.526327442823042
Ni 4.322692473091925 6.86766265375886 1.5808140854521502 -0.5223486606809521 0.17788768575083555 -0.48555103223662827
Ni 5.406639481406204 7.757645242968927 8.073009484118343 1.3742574679207882 0.5029203767530113 0.7984146919764379
Ni 5.343558312792791 3.0975159982447322 4.711680351421445 0.4584351498564427 -0.675112040560334 -0.27986509332660187
Ni 0.569883868953965 7.487730192464649 6.981368834207013 0.39008648607871527 -0.9903285168030364 0.43060630056963256
Ni 5.190074368342863 4.679835892237977 7.04636097786387 -0.09513210251915874 -0.38426293741840273 -0.13802067435256876
Ni 8.03199180209264 7.043331272991398 9.153650044368815 0.8376121881115057 0.9767492354567049 0.08349400405959814
Ni 4.506193105517181 0.32993847817027977 10.48111387765824 0.38770050234504194 0.1879826080929924 -0.13860431477018065
Ni 8.093218972202004 7.199257069129587 4.638083845926767 0.155182530843836 -0.13906582778763146 -0.2614886477019432
Ni 7.26985371460576 6.327136172824393 7.002667207265735 0.2510214296220322 -1.4376156204624595 -0.009800273919873445
Ni 2.333632438995501 5.270474596152647 2.7767190892836906 -0.17981472757021938 -0.725160363366977 -0.8177010510098756
Ni 2.3885831458765194 5.1985123225100764 11.367070124751217 -0.6205146649304282 -0.1457337267261103 0.05816118172176435
Ni 1.0253244800057277 3.178585474295003 3.7895747510575455 0.6999075023374591 0.8241720034461999 0.8991708255505932
Ni 3.717511185789387 2.828089318078107 2.56383393715351 -0.6821725469515413 -1.1117959147826144 0.88426408364209
Ni 0.9211207201829673 3.205599589083285 7.9994401103090915 -0.1570326966786973 1.1210500863910307 0.7426690616747016
Ni 3.9072521058624226 2.675256534078382 7.0113900441299135 -0.805845180112554 0.2899229917832362 -0.4767635158519854
Ni 4.150822289818904 6.771019590274568 6.254716278087652 -0.4302502027817945 0.22944987409884354 -1.0021985287677448
Ni 0.8847045720053657 7.442763945820077 11.481209507776658 -0.14037580484830664 0.08848374396470567 -0.11611693230094196
P 0.15308329989515004 5.468508768070628 8.002815291975976 0.8038461474046544 0.28875031163137366 0.2306832322853124
P 8.631213162496794 1.394161655570008 8.019929959142145 -1.7555646651449766 1.2916324967297046 0.20678739950432126
P 1.8449455650133055 3.1742534485221245 10.481207029778199 -1.2010425050552733 0.0379962767381152 -1.1922531888984176
P 4.085850947120874 6.127492187571188 3.6848600111592784 0.02614837626059368 1.1643176388304142 1.759710826102866
P 7.076757509435151 3.8934330340858927 10.569072088637949 -0.9210102900231881 0.9560456843607664 -0.1601154493690791
P 6.366251019312281 7.986491965634707 10.333141282907668 -0.8955931355016641 -0.6550929171259299 -0.693725027675831
P 2.303217819633937 8.41458474216746 6.036205823179329 1.4167650022656957 -0.2666084854270118 -0.7755087339125418
P 6.914274889319223 3.9360026485179125 1.7064428328656172 0.5670220923289268 -0.2004077212302226 -0.4406490295176153
Ni 5.114042341886523 2.9222453103984294 0.5361573751915073 1.0409432536361105 -0.24989091556201481 -0.4886358418095391
Ni 1.4348682276028362 1.049137055913845 7.0429722303542714 0.8914814273261357 0.3602010113731926 -1.24608771822037
Ni 6.783418770513849 0.8419242348165439 9.180215581958068 0.5869440280638343 -0.7912256304271663 0.1480448913577902
Ni 2.780491297947297 1.6325135120297245 9.104501900610718 -0.3000765352774703 -0.2172150225955485 0.7361577429187451
Ni 6.3795998085414425 1.9027089232833947 2.370366932282091 -0.3143356162996458 0.40048556992485224 0.7500327011286244
Ni 3.9270853679081887 6.89863799461921 10.50292775274004 1.1182470697245968 0.023118074074702122 -0.09213136801962198
Ni 8.002345913818122 7.219298340763612 0.16100123009171546 0.40013795677744635 -0.3307150860989337 0.6868375565273784
Ni 7.412041834023694 3.9027120705012854 8.239115993017554 1.1341267170693308 -0.4512594580436099 -0.531370147453272
Ni 3.1053299236471674 8.400331563424126 12.507328041775828 0.1861273000518085 -0.1777629872475132 0.9397556889514912
Ni 0.03066965720456042 4.860541961064445 10.258512868977322 0.6120763043550878 -0.8160660865096138 -0.592443874836141
Ni 8.491023743905176 2.407991344850625 5.908802663539059 0.746738603758385 0.2622018717188839 -0.35555065708537475
Ni 3.6281846334747363 2.780979668284949 11.556817375550851 0.692153569423653 -0.09088104055228864 0.046368045741578205
Ni 1.0743062160932186 3.369800549276137 12.57982571401079 -0.23318003056523715 1.056383499450581 0.3405924931136457
Ni 3.1827908855358973 8.51487249539386 8.137100855819085 -0.531913935771884 -0.2302461447478938 0.05008637513342987
Ni 5.716347670533997 7.9145387358872785 3.583638927954253 -0.9561590700101791 -0.5030108795842886 0.029988061721658035
Ni 3.0539334675568406 8.44773061786182 3.656811274766785 0.8111678778770481 -0.9599984983609273 0.4307495110157162
Ni 3.3087361692793236 3.9871458755442712 9.125164487840976 0.14265843023489627 1.1877997811127543 -0.17337745658530784
Ni 7.376372711584797 6.241526661412985 11.365534471356156 -0.3005064237260373 -0.8803022707808646 -0.27358003164883854
Ni 0.4855658257687923 8.9929870559554 0.5364124130345035 1.0806228316139197 0.38182424606992305 -0.4895110453256408
Ni 4.436274752176637 0.3165381387388109 1.7084948926732706 0.3439778646461108 0.39578353646349257 -0.5309019495676018
Ni 6.170215548220616 5.331159132553508 0.21178812764949131 -0.6550417521730203 1.2885358600822516 0.899520238470212
Ni 8.004407921910431 8.895683788125762 11.328736670803574 0.5851285721216504 0.5116991513869058 -0.062055888790480226
Ni 0.13166464303104283 5.0183941068678175 5.768772417501936 -0.9650034077746864 -1.064434137669199 0.3567598469021275
Ni 7.903251954750426 8.971553024469552 2.4104738940670236 0.8086445972345622 -0.8785022414576482 0.5350187999494528
P 8.641722168651457 1.4992878926972228 3.7278791071798416 0.12664328575356254 0.8723655324322912 -0.11971390562358092
P 1.6827071300662042 3.2405994632816952 1.6547144658235895 0.04905356299354133 0.22146248501799276 0.4073550433511759
P 4.829467137357536 1.1620681745483539 8.250168537270236 -0.7711124046170591 -1.1506403984536377 0.04722473731491867
P 8.73116629160295 1.6638325209054594 12.507990054900203 -0.606260211893943 -1.2953554541072465 -0.175051244743305
P 6.300203453092387 7.828992531741862 1.4003847598170176 0.17097090402634427 -0.21783311579552161 -0.36238619194996946
P 1.951464561992343 3.0955715607892644 6.007389260089304 -0.793484344554356 -0.0057479582273707456 0.018669037164413007
P 6.916888575015177 3.999924899379505 5.929624423323814 0.5217351954666692 -0.1779095401277065 0.46935796741653363
P 2.412296238938078 8.525345325967958 10.340567225208526 -0.06273106048063389 0.0069129250697493845 -0.9718245444615778
