# total energy = -340873.5625801806 ev
CRYSTAL
PRIMVEC
9.17814208208054 0.00000000000000 0.00000000000000

0.00000000000000 9.17814208208054 0.00000000000000

0.00000000000000 0.00000000000000 13.43313867794395

PRIMCOORD
 96 1
Ni 6.875419678011398 5.2075126253483655 8.147144884082078 1.1434521082353144 1.4621267182299464 -0.16760430154695652
Ni 0.6548273980724708 6.395577230478981 13.379930441538193 0.6257671715786192 0.9107125076416057 0.6744638654533739
Ni 5.684886152653812 8.196842687966827 3.8452762530684375 0.7108236350293307 -0.2924128480846255 -0.0732450726380803
Ni 5.874662597014627 3.328618441913633 5.148492582524831 -0.5970368935234621 -0.6320404061818405 -2.969112244645796
Ni 7.099733471123471 3.545663146476411 10.379450771887303 -0.8477531332002496 1.3608645915536497 0.08038091235191318
Ni 4.65606231309171 3.749271050993523 11.703837403929308 -0.9054389179474922 -4.016915972847166 -0.42199027676584744
Ni 4.163232794476904 5.096603956118975 0.019102467168746192 -0.31090910711659997 0.603577008634825 1.636780727534833
Ni 3.4225383701016785 0.6991569066384282 3.6447870812395204 0.48339644778747065 -0.33081870155633347 -0.5146062977313718
Ni 4.734406934122997 5.525158945553592 2.7110093279020773 0.9671453938183536 1.0161555051684694 -0.3275282037305198
Ni 1.0064108165351109 1.008999052609481 4.646133398959605 -0.7898153803432011 1.3940295083413927 -0.6248618861555303
Ni 4.998875098956236 3.9795047457650594 7.198510472114909 -0.9265008808241141 -1.6522649392133608 0.6062926077937751
Ni 4.690085685884935 9.192918916488672 8.772712365115217 -0.3980525350033274 -0.5115613402574609 -1.3703954138622203
Ni 1.7257293479415132 9.257074129821461 1.6199292326092667 1.0217003462460985 -0.3996952128130729 -0.8054006363759678
Ni 8.457300004699004 8.979894238169065 0.0036785993567642694 1.7329759812111831 1.3361732594545568 -0.6746309871588575
Ni 2.805565301338186 7.088701344310021 12.569790522719302 -0.46166831208175974 1.3974508753181158 0.6081188623692365
Ni 2.4213774508521695 0.6059629694911011 7.568338201459226 -0.4919564215423399 -0.6265642135586178 0.893355761530713
Ni 8.387885715938504 4.1082006543991625 5.112155400106254 -0.25590138342215285 1.0702792835960666 1.4782819878335702
Ni 6.3864174446555015 8.81879030975269 6.533314526903375 1.0263532716370776 -1.5292975596494889 0.4117763123473231
Ni 6.564629429960621 4.609767764300495 0.8554019266229896 -0.020801510126383527 0.32045664159571907 -0.23881794557730482
Ni 5.241379969725761 7.404043950846216 13.099258266813818 -1.046432815995772 0.08533877057782077 1.0105708119918402
Ni 0.5758100192246898 3.5277015223716512 13.395821476783455 -0.20170407144414293 -0.4737684377794035 -1.0429494854328618
Ni 8.204680821326798 5.0183235820824414 12.129895938710629 2.626086973720942 -1.5264577762078486 0.5473117583841929
Ni 2.187509211805986 6.440458345385611 5.680712851437443 -0.9694570726706657 1.472971117143618 0.6893089008860064
Ni 4.163609098303319 0.7779558457040461 6.246919780574851 1.114390414982668 1.9856357177675865 -1.6539045316993128
P 8.141186434225762 6.141875026338068 1.0744924390615729 -1.3901234884187672 -1.6014393719210613 -0.9455093036058169
P 3.007264152296898 2.6787417336940527 7.097023165759069 0.7042894334552388 -0.71384545257479 0.6425716447304676
P 3.809130893819912 1.4003917446500385 1.5123430508228626 -0.49810804296603245 -0.2257364298029983 -0.3341752767333922
P 2.3162142985821967 6.625875172245271 1.8928100824984198 0.24628905714336938 2.3864444753598124 0.41976601542101893
P 2.418991133904169 8.81596344198352 5.5091715398161965 0.03705833830487811 -0.7183114587659436 0.12900870066194559
P 3.9618735347761764 5.750142743039525 11.405258673952817 1.7956566480698557 -0.14526552884044014 2.0999071122193578
P 8.363022128968758 7.561559225698482 4.805531110758159 0.15396537060728321 -2.9157034900073526 0.5002140335654417
P 0.6966476025861843 8.099994932446425 11.982131522033578 0.6540971288715639 1.6042650142953145 1.0490874800097998
Ni 3.927042485477473 3.433102411667636 2.6979653523386204 -0.18939105840474482 -2.171195575351699 -0.35325183374886904
Ni 0.4737564215008044 5.811764789150591 4.030667381130196 -2.197002252002158 0.5521701149177587 0.14443454829871255
Ni 6.018071067447366 1.769711004921589 7.396783122624818 -0.21302515288391702 0.4517119721999962 0.6351488699038351
Ni 8.539884927384046 1.9886739411848755 10.871022885033355 1.590509355272119 0.35380230693570036 1.4339260874260142
Ni 8.620175314542164 8.977948472042232 10.32804216231368 -0.4000901342586464 0.3101460036983304 0.22437888733383937
Ni 8.952717759388179 4.360058051976429 2.0164084510059093 -0.3621830748002278 0.3891999697087039 0.7092884293317268
Ni 7.737219687497662 2.442909372236823 1.141765467268347 -0.04096435822750364 -0.4526583952736656 -0.5575673746739301
Ni 0.26772089839620683 8.57045731874478 6.442802442879917 -0.22916268187572794 0.5282776245708772 -0.4076448066774528
Ni 8.197209813651135 2.4323453306708656 3.667904985580383 -0.12691607979897496 -0.33239478779420173 -2.1641304409748017
Ni 8.393163147650428 2.972818584966718 8.35341077855358 -0.8921586558988183 0.048389704157297306 1.6580362944794993
Ni 9.065361097475924 6.0526818413354855 6.7333741616816525 0.21224045219909252 -0.24087302833412066 -0.29734216706544275
Ni 7.101734306102948 5.927253351291721 3.5166207514050307 0.6332046016932708 -0.7038418043948589 -0.5282619408415934
Ni 1.4450709404302993 2.5368293004248685 2.002263098389529 0.18415860636121184 -1.1637429972738669 0.6768830164178278
Ni 1.8077085132474475 4.182130589076648 6.298207238672653 -1.0975106085081936 1.1165984783775802 -0.1309352282606971
Ni 2.8491155856392005 2.543547700447702 4.874469971757481 -0.07508649672219327 1.2415242672194038 -0.15879878744018458
Ni 3.6009247401068443 7.397408154102352 3.850796905546216 -0.5025663358477023 -0.6636662606172378 1.2532266432579966
Ni 0.690835085189381 2.093203801649417 6.996126013940753 1.6047072440390557 -0.32076568819570567 -1.1146467539678482
Ni 6.521069967517499 6.460310666764555 5.762950840350815 -0.21931895631242876 -0.3156743897157273 0.7037117065748977
Ni 1.3610542275764568 8.04649554210067 3.738133375545835 -0.2481834459526048 -0.5040532048058738 -0.18864543848797188
Ni 3.610846311725263 0.12834713923401084 13.028680189634063 -0.6443896717758129 1.475504425088433 0.9071235047387667
Ni 6.877558185122491 9.241287725396226 1.586628179599916 -0.6154534483574368 -1.8151504951284094 0.6609640311947262
Ni 1.792573756911858 5.021921413788659 11.955439649155977 1.0957002947723324 -0.22908632011183772 0.07669909262495178
Ni 3.6155730549107257 1.8640164150781582 10.698568348272392 0.43694175586935713 -1.8423085436004398 0.07073104796697496
Ni 7.735191318091862 0.15805036053714508 4.021558992902519 0.9265795565808495 0.6946408546218811 -1.006169340490035
P 5.300367889051918 2.7691372553127436 9.445618867511426 -2.081444020418164 0.9884446695167621 -0.7527516427216843
P 7.113785206690352 3.5756481367422515 6.794790617409506 0.9975520311346692 0.7083132099026511 -0.17298819156668918
P 2.533112152871252 9.170469180893251 9.69586458333458 0.49649853238706754 -0.83760061814728 -0.5398103078008253
P 6.218567581789969 9.021838347601232 11.831666895948443 0.7392646639788429 0.3296118257324259 -0.16401812685759495
P 7.693100358385971 5.67541430999867 10.149286830995786 0.19964847446669487 0.3212858223652338 -0.14447208640486733
P 9.00536358251792 0.7470346849432207 1.978688122571703 -1.476671963033973 0.9924198521144264 0.8251292251531468
P 1.6756717608861433 5.328792595159451 8.284955605643333 -0.8649317018620652 0.3889127774855883 0.09082216228989519
P 6.197503745652809 3.553565526831137 2.715522220376431 0.8633805553248614 3.193255876040378 0.6245145301184405
Ni 2.983667148938013 3.8101955583044047 9.484212037260074 0.5264390287002417 0.7280775370137719 -1.0150936395628583
Ni 2.9464681389755247 2.722337908705606 13.345595011913305 0.8026449280077016 0.2264342272009713 0.14482587019986026
Ni 1.4063483588779329 1.896910876392138 9.34417194498086 -0.517315983353051 -0.2793902105727124 0.6242268236746927
Ni 5.776997986846642 1.380465998134232 -0.01171406277205149 -1.8167782605398195 -1.2929859254338054 0.3491763781279148
Ni 6.220981433164293 7.354977603138477 10.183178956356873 0.24741365766611587 -0.10823393000843941 -0.7036787964544333
Ni 3.802072902539094 5.662500664053144 7.757932918606309 -1.3963183043755694 1.5703673331066053 0.18586556174998958
Ni 3.9044458996083273 8.264623267432157 1.7245600526369929 1.039317030886597 -0.8238475302272457 -0.23999396816327698
Ni 7.390689754079519 7.2235007174457415 12.490884199391026 1.8043924852809567 -0.2046451563503379 -0.6974510703771666
Ni 8.682100239342784 7.662573857735776 2.2987593079217823 0.07069505252271696 1.085032273535525 1.0427522818203914
Ni 4.042531047618603 7.709639370464037 6.610702785527041 0.29421596273163525 -0.6775813280364331 -0.2963430363769671
Ni 7.9278772335008165 1.5569433145809972 5.924510922429943 -0.43376130125884654 0.34756532488705305 0.058778503590789094
Ni 2.548714994454334 5.205254802389872 3.6474331396091686 1.1714905024297693 -1.3583785919070026 0.6257435174295353
Ni 1.658086440607799 7.578584679308257 8.08014077543906 0.1490692188572465 -0.9248648878825878 0.8467786851021223
Ni 5.191946496333714 4.975369877018429 9.729072019294433 -0.576868131885071 0.5835504290012531 -0.9484976968101793
Ni 0.584124498160051 4.2562073740278565 10.0901942808496 -1.3630862817953169 0.40194569941014646 -1.191180524659529
Ni 2.3002626875990226 4.667562525152651 1.3368753300079441 -0.6551844483984717 -0.6527796956117209 -0.9964192030818065
Ni 0.3901747525828665 6.831896928136707 10.381505757905217 0.2822351362206752 -1.9088042133298286 -0.8926042280766693
Ni 5.751657136487296 1.6342049148435758 2.758252896587228 -1.5442721786814502 -2.0172985960885064 1.0234363551005987
Ni 4.268607044015353 8.589951692581524 11.001552586460576 -0.7842733674790493 -0.6791746406654819 -0.49315301295360225
Ni 1.2907680153157262 1.2298251517206296 12.485806851177047 -0.3074280905465351 -1.0116686730417093 -0.28751361101079514
Ni 2.9202553651159464 6.441275200033196 9.93637137256726 -1.689807159133193 1.4519001554059319 -1.9132072274935308
Ni 6.560664472570096 1.1734438247530572 9.635241119084831 1.5595247339651463 -1.9566987230182624 1.1155427834195561
Ni 6.0747644512466 5.3544638586346744 11.985744956581378 -0.5334900220097523 1.583840942113008 -0.045418794454431456
Ni 8.077187249308803 7.65873739433476 8.420146885447053 -0.49017696104441394 -0.255481779386231 -0.2668509404551211
P 5.8886041948762164 0.9862464383245043 4.944375291120741 -0.3790914205197923 0.8418159417802084 -0.46583221365146227
P 6.074021021735877 7.0891602514154055 1.8909560977926654 -0.8580118348137804 1.0535300891621855 -0.5843844948667742
P 0.9545634917687402 3.5365859639319 3.8957716375023446 0.7795268539329994 0.12928740824462895 0.66815360696463
P 8.366968730075065 0.6959922832396949 8.030505382920643 -0.40928157094992734 -0.27824812654846914 0.51475053661872
P 5.6829954553796265 7.1621999063084445 7.942370437703078 0.38869783326130475 0.28783191358216237 0.3874253943067844
P 6.677419618322088 2.8836896469588886 12.459074594474174 1.898854044095652 2.3825595384831093 -0.4595021576683764
P 4.044944898992927 5.449595301580936 5.406072551706245 0.9605764823515843 0.158345759063166 -0.3174780185833694
P 1.887448211879104 3.0008027402530804 11.27126330606573 -0.6556719295578515 -0.987582321516467 0.9010986387009255
