# total energy = -381164.40374688385 ev
CRYSTAL
PRIMVEC
9.25043140166671 0.00000000000000 0.00000000000000

0.00000000000000 9.25043140166671 0.00000000000000

0.00000000000000 0.00000000000000 13.53894140428315

PRIMCOORD
 96 1
Ni 4.274605857670761 8.119270163867977 10.704035886326865 0.2421362113172604 0.5543632659143355 0.39948309680226685
Ni 2.7619198095132944 5.62404029215283 3.4387424249452017 0.40512718246192164 -1.59992524926938 -0.05928141136913662
Ni 6.663206006423743 3.0217366767674236 6.848971320085721 -0.8118978140645373 0.06610871870361518 -0.32390191983184213
Ni 6.502331753622926 7.013908362365586 4.310988729483244 1.8891427303451596 -0.5381190361413313 0.2953760444780074
Ni 1.10220740438865 2.43159615398662 13.454336228935261 -0.5417525191288605 0.0038450847777030555 -1.8202194250108843
Ni -0.005155265429584017 8.476956595530861 6.188948413153128 0.05860701100993133 0.22294806842458376 0.4831035991374002
Ni 7.98707224846481 2.4950911152438686 13.347703730843671 -1.1239163521952322 -0.3469778278146992 1.0766602474217455
Ni 9.320272175807242 7.005619975814524 0.2314809457326835 -2.7655441234097213 0.2676286991614101 -2.3707810577909427
Ni 3.1069701518583748 4.12114120043624 13.013968516209818 -0.5760839454208789 -1.2820086004866955 -0.05423407875321628
Ni 0.02359507541941495 3.421105552402505 3.9711066031717337 0.8911099029193299 0.13343228365093796 -1.0840652816365652
Ni 2.6344673654278674 1.1857110488043237 11.081785578693545 0.22986176482528156 -1.2000850262380107 1.1621512273067147
Ni 6.523533742434349 1.7449088784899212 1.6934644542416786 -0.15553040110155797 -0.7714733875009037 0.6354255206039895
Ni 5.292551082267413 2.2322956090729513 10.649731228683994 -0.3157093567187208 0.8871594029120141 -2.401533765592767
Ni 5.1237399593094395 6.259091659470921 8.455393839894112 -0.739464695804791 -0.6740267779159553 -0.731494790225437
Ni 0.6296259892910844 0.7990282148167063 3.8743979679060128 0.7972561528919624 -1.36755897285469 -1.1611199578287228
Ni 7.118539992141335 2.6720796195758822 4.590811504766373 -0.4037035626415177 0.2597924909464429 -0.5872954978659821
Ni 8.828435987711867 3.553525478159719 7.543356804608976 0.15290376211198828 -0.23782241443325494 0.29698349817444336
Ni 5.845430867294109 1.0815511910309235 8.419109947697809 1.3095152905473961 0.8623006919971213 2.2581122319396014
Ni 2.8364135337272547 7.170915934833431 5.192752802907881 -2.0069357647969435 1.142011519134046 -0.6515396525570328
Ni 8.991724603112939 4.8038137886972665 12.683537555678686 1.3137632671904727 -0.5964403975900439 -0.4322998862219716
Ni 7.508926698868958 5.9656032218531 8.133708237226124 -0.38043225081840293 -2.7409399517077953 -1.3707052317931554
Ni 4.7714465291635975 1.9100753314689678 3.8426625128382326 -0.6069454108864257 0.15159635615447442 0.12871868022535252
Ni 4.780363945051124 6.538056919761546 6.018898657428203 0.5640151871818029 -0.790739177709051 -0.04019456994101464
Ni 6.293558766936613 7.988783578277252 11.923203895485972 -0.6571006915845781 -0.25659815237886135 0.22858444077475473
P 7.794348760289764 2.6326635313012408 9.403241145286922 -1.335395757858584 0.6638619215678114 -2.444016617347326
Ni 2.2209360792909143 2.844664918552643 6.929135558759281 -1.9397512965306465 -0.5291718542503725 0.1614205413337478
P 4.340293171174217 4.866540964146773 2.2861183192389154 1.124371694565096 -0.024196394740545427 -0.35322200895219813
Ni 8.623529681358528 2.2422028211222687 11.172388929222992 1.9226722295611727 -1.8134024020890511 1.42758728969218
P 4.727525480788099 4.291719155795165 11.214603273001758 3.0497052730085152 0.7382855878950253 0.4367070141507317
P 6.429336599298777 8.856020774202122 2.9440968808279986 0.16368928276326647 -0.6170102513215954 -0.6477878988240844
P 0.5826430481160311 7.699827852054542 4.337903784738793 0.29532333686320106 -0.27318639575484566 -0.40843953466460625
Ni 1.2896766475179335 8.874540137902153 13.30458191974274 0.07833380001489734 1.776655681487321 -0.26143722563871746
Ni 9.223087143323465 1.8920924927912155 5.631996588215965 0.03210125140991891 0.5626810417514115 2.824775655377529
Ni 7.618276048668192 0.4638739840032407 4.530048195907035 -0.4962085119504745 -1.2602151587606878 0.6758743726476554
Ni 4.103593132035161 9.053045712986817 13.05290728222326 0.03695266596494926 0.9474147481586456 -0.6384262551035264
Ni 8.445736389493097 5.154738154993157 1.2766316891314287 2.4634862960361636 -1.671935421059095 0.12810727189359875
Ni 1.1721776676389166 2.519105235206546 9.542422211367986 -0.6595396400433737 -1.8867348922346152 -1.0211642712369704
Ni 0.7067829127104587 6.68142010588696 9.6227622082385 1.6557446702318455 -1.4237082663527483 1.2240762469462854
Ni 3.771132626850791 1.3671212593544264 8.951488001571468 -2.9929625689008326 0.3533973581877978 1.0365667218349697
Ni 4.525607063782967 7.2932066381872795 3.4204108450029684 -1.2147120321225662 -1.2231848454802676 -1.8005885381538345
Ni 6.797068999482257 6.120834711488572 12.810167636411 0.8478379796045722 -1.296583927197709 1.0232815746902892
Ni 1.4952397345019925 5.100761887665644 5.565466560410274 1.0004087838571738 -1.4958498215140046 -1.4206057161680243
Ni 4.489909648938602 0.2267956022191642 1.9404148964356815 -0.805240970869652 -0.32909092023194936 0.45002430008492816
Ni 1.7365279876246724 5.841212670567228 0.7613706335547406 1.6163193743566875 -1.6851889436348915 1.0279650962088878
Ni 8.742286719910474 0.8781924818539162 1.5494232114932815 0.5788247413908096 0.6666253432455616 -0.2825950906632552
Ni 4.588426743546658 2.7312176276349716 1.6172131480581848 -2.6811872571291953 1.3694176233299837 -0.3068765889184392
Ni 5.10817148323194 9.07175008531522 4.653767165871917 -0.24846369619718503 0.033608174972748574 2.0141358820898088
Ni 0.15791226466058286 7.925704886433839 2.1114923750912116 -1.4209204191949658 2.1129860568905032 1.8979271614060087
Ni 0.49006473047871385 0.12905369376398632 10.358021649027968 0.10547025122037318 -0.7008608673896639 0.5289970192354051
Ni 4.36690666236552 5.997813224052654 12.292506093881189 -0.018507571885884252 1.7463606300482053 -0.14719437043203684
Ni 8.684009001973315 6.956231922470635 11.561727562070889 -1.0652507200332235 1.0260007733936654 -0.8271205445515627
Ni 6.545855033447423 8.820887635674293 0.8097531650034275 1.2188077994584947 -0.5217542216300628 -1.3877102509915844
Ni 1.617289926638959 6.212691495475239 11.88534928003479 0.8669327914524941 -0.17338516989479172 0.3973215703745738
Ni 5.967185045625679 3.9244770284768706 8.953870912704899 1.803296938223933 -0.10979561806860445 0.5264058614694612
Ni 2.2841905293312794 2.9275765353575265 4.406194169643443 0.6859160731543735 -0.48233689617470477 -0.03679454312053018
Ni 6.665759125495276 7.733055401710142 6.542097508205189 0.930095797264224 1.30246866811326 1.0948981105860112
P 2.931396963533407 7.567898199162514 0.32591212478314563 -0.18176208110457728 -1.2946586851505382 -1.6321290876954344
Ni 3.159253590236285 3.3409320632975263 10.465980658984986 -1.8398564825155215 0.10896309486498007 0.7090243770370628
P 8.317812173405322 -0.11976903574914068 12.505500052423805 0.10107083660109692 0.08907921145685949 0.16530727798266368
Ni 3.880833493043931 3.5769568209430247 8.45769534723106 -0.6122087161678941 0.8055759856115674 -0.4302478887889493
P 7.972410314666335 3.1672459629819523 1.959775124351663 1.6860230095004123 0.3303461327952891 0.9441805574920642
P 2.9100932199763787 0.5235818186377158 3.6816985308526546 1.1865139724217955 -0.07245882929135908 1.4610458264609418
P 6.219731073784792 0.7125107798448539 6.510795898370942 1.015535355085967 -0.5257728558711525 -3.039256566871366
Ni 2.167625843025541 0.47583109165491894 5.996004764710318 -1.3752416862109282 -0.6013046676608805 -2.2937091552076048
Ni 2.6731989217775323 7.853088999797854 7.4364125669785786 -2.4758926401203167 -2.128310088842083 -1.1211999817053335
Ni 1.321747893246209 0.2472649568622353 8.116906678640527 -0.41226790727176094 1.0600732895973421 0.8654397518467354
Ni 6.546160297684237 5.841573437392554 10.28369258249326 -0.16109375412194835 0.1919819590603726 1.688271439214957
Ni 7.521322276969878 4.805340109881336 3.5352207244685996 -1.07996797163874 0.47850569535407267 0.3838186507921325
Ni 5.178076993462277 4.077664172768834 4.338987010257911 0.11471902351215081 1.916769233813176 -1.1478414955522618
Ni 7.198241709243965 3.935318534099466 11.597213142035768 -3.050777937247404 0.33766040706851524 0.35675059093074685
Ni 0.7122619432396936 6.1368472082741645 7.288351086735659 -0.5350123721915495 1.9598701787677086 0.4950941958403732
Ni 8.651345728634249 7.7291887213771675 8.437075210555864 -1.849404788325589 4.148165389914173 -0.7621094297875004
Ni 4.322698850616046 8.53115487321242 8.340150115194948 3.027516395616302 0.4101302921034678 0.7246042337531908
Ni 8.559951466218513 6.064573587600668 5.488646352694538 -0.4960743003654553 0.04775772700025323 -0.502291999140393
Ni 5.538066782548391 2.8803808342598454 12.927874750996935 -1.272792738315382 2.693645537497206 1.1585100310097016
Ni 8.207093759756136 0.9245898707201724 8.126154334929698 0.7799888811710826 0.227745232702911 -0.6985404467866034
Ni 8.802229515502981 4.61669606196189 10.174094396088865 0.5579604963472907 0.32849082475410524 -1.1118846178416786
Ni 4.211453162376 3.6106468921695543 6.30734560992289 0.776148938599702 0.2129433918033881 -1.4115546617093497
Ni 7.263059482194074 0.16670664981024289 10.488482333410722 0.8084317098928077 0.9471542954084075 -1.7514560422932415
Ni 1.405288539387557 4.514432542629303 8.531292704640558 1.570622643650521 0.3598855370153028 0.960757488014139
Ni 2.3575927026378456 7.686146463986437 2.2717394486418483 0.6767776011882151 1.2449032109939657 2.0558263198500595
Ni 6.29015460817457 4.657009442084136 0.9120370352851365 -2.261198584174409 -1.4831287744029102 0.7654143257910172
Ni 5.865411799158277 0.9791859169527309 12.196691050290504 1.5122156644665377 -2.987053402505249 1.7816557058050737
Ni 1.4080451679502988 3.701069859286338 1.7357056242715592 -0.05179178786031081 0.4552438966126547 1.3452592809162252
Ni 3.1710201390007398 5.526253981626843 7.321845973859257 -0.9474456013965811 -0.19252934692341037 -0.0150977748733869
Ni 3.049349214551935 6.073602008665218 9.987244006821486 1.1181748217257645 -1.1324367309614174 -0.7214286642386866
Ni 2.0477772535662004 1.2470044073839466 1.9298814301793255 -0.5595460956668556 0.05113667077481516 -0.7292381329807763
Ni 4.06068038068429 1.1992351795383125 6.600206868290531 2.0088723196980243 0.9121937201728226 0.1933346164335251
P 6.566575999825081 5.223561364747518 5.8261316922254895 -0.13835723175638107 -0.7402663657704799 0.2087717769242017
Ni 4.951256415078282 6.990819285544768 0.8266814544994597 -0.05288399248322506 -0.571919529630544 0.7939754252581616
P 2.278927033854098 8.09287868303072 9.953870300349472 -0.16584129610926276 1.4614147797645862 -0.6073894404023797
Ni 7.070937272061236 6.558454121039552 2.028065509256312 -1.1309676026150588 3.2359302749804533 0.3706448324143359
P 3.090569136953203 1.8287640392995017 0.12491227561788053 1.7835866042791992 -0.5561260142417133 -0.5564713133962739
P 1.2434892434448797 3.7132064253075376 11.343994607512522 -0.5183233415716428 0.445721044723884 1.4651703901522768
P 6.2689711202259835 7.785200083616772 9.396932351059437 0.4474560251371197 0.9500390731553703 -0.03228637083753149
Ni 0.5238944832196644 5.892857829177254 3.10183893755048 -0.36947806579974435 -1.056004004623975 0.9032509091572379
