# total energy = -381178.3563684504 ev
CRYSTAL
PRIMVEC
9.10108852282279 0.00000000000000 0.00000000000000
0.00000000000000 9.10108852282279 0.00000000000000
0.00000000000000 0.00000000000000 13.32036300528659
PRIMCOORD
 96 1
Ni 6.490359435552505 -0.0174131128459065 8.035642372477875 -0.9177388183607679 -0.43669827239998343 0.3042170398084051
Ni 0.6728161779957821 7.589051954169908 1.9639148110099398 0.12361838288430968 -0.06111126548902378 -0.6708545508355608
Ni 7.209627569836117 4.488456680666114 6.32328256087845 -0.3102182516971625 0.6892597928156259 -0.22359264398711814
Ni 3.1985684924376696 2.134341796402949 3.8026041033390836 -2.542557488437718 -0.639291431317299 0.32206975171910984
Ni 0.7172977485985981 4.6723168728539575 12.113511631285675 1.0163606792007398 0.561136322972111 0.537008576685972
Ni 0.08261968244140448 5.809479693044375 6.216733386143239 0.5386450838481304 -1.5248752622120771 -0.8652397200207872
Ni 7.528247581137189 6.716994744227968 2.7914686077363893 -0.5331192689338947 -0.3922369567628148 0.3028834085986461
Ni 2.0155361856307423 2.131447650223574 6.686502456934326 -0.2949219876597243 -0.5111494495310229 -0.6349640075865387
Ni 2.4791365385589974 6.261740089559105 11.881124434605919 -0.14942428820382006 1.0223858023488972 0.598078190303783
Ni 7.019988186378137 2.5657880032565754 4.460483574700934 1.414566709062796 -0.6064198774002588 -1.843741676502541
Ni 4.058275525129887 2.236010057314265 0.9264862704002815 -1.319560076377908 -0.23855723571675044 -0.6108370326313479
Ni 6.609192349590554 1.6814352225965983 12.586038331926922 1.4005647383567492 0.23562540678193614 -0.2701967169989024
Ni 6.248343287118727 9.035515270920264 3.6788848148239692 1.8504229451774583 0.35625693912378 0.33723797481911594
Ni 7.238041168490232 6.1247140993808955 0.4849997425872634 -0.994996354592351 -0.2911566070800211 0.1429787896887925
Ni 6.042249135445936 1.5434172137594204 1.5929153044064868 1.3830377852165792 -1.503147126506366 0.6543755793439311
Ni 6.0227455025453045 4.9778404176389275 9.484471972267972 -0.38989776710667695 1.4582929463061531 0.6413267165797729
Ni 5.407065958870643 4.0597681036626465 7.562729785679378 -1.2652447507647953 -2.9710084332272446 1.5641437207943965
Ni 4.975756268346233 7.622798790752055 9.771898002343232 -1.210017454860374 -1.0067442391568984 -0.5047810841108339
Ni 8.147294527599174 5.496010897899047 8.639867286022469 0.16672524137611286 1.2579728996937305 -0.5560249698874747
Ni 0.773162050731428 4.153136171757642 8.010479682676818 1.2242284562534336 -0.3904184154968373 -0.7520924118711304
Ni 8.831414257654023 3.0445416687277853 6.003913529984415 1.2403104494169608 -0.7046966961959864 0.49233488792768115
Ni 2.200670530224601 8.711480111893632 3.6118034209739074 -0.5956837219296773 -0.9690387541863246 -0.05200056143700722
Ni 5.013753313311298 5.425086114327129 6.019325313444018 0.7838275381908822 3.5999403756870905 -1.3735028491429506
Ni 4.298489658018015 -0.0007781430765300819 2.5751193494129065 -0.9517663402591222 0.35931243812065217 -1.0378581869528836
P 2.622496886412821 1.2385307451774588 12.714139794609862 0.2175847472301414 0.06986124376751195 -0.0028516105161821856
Ni -0.08318121960891216 2.0428121482080597 11.980041436429106 -0.7015782051716627 0.05446239271393846 -0.7100466476539901
P 3.1702459046696974 3.270831136035902 8.02475929071279 1.0368063486496015 0.45309522570076805 1.422391090203221
Ni 1.5871388434629352 6.477381283188389 7.603502662671832 0.8281811246055931 0.7614995641176434 1.4446576149109056
P 8.652523259849634 8.105930079846784 4.052880399799278 1.7981251642150067 -1.6215317717955622 -0.9506579376862917
P 9.137310947072184 1.1795374887790027 7.089616974931365 -0.10870521321790312 -0.5362264471043087 0.8942947284052146
P 6.418515442030533 6.748084062934713 7.52115692299772 0.15710751578069074 0.2030721554362632 0.30323642106269066
Ni 3.2421627069005825 8.594312697072015 11.251804179316014 1.2793331105370611 -0.27083589324479806 0.8670443773296939
Ni 3.4373537544133392 3.9002442224296727 12.719095337360397 -0.662383537250072 1.938794846154648 0.2871878522402602
Ni 1.6225420781729005 5.305179271832582 10.056674705522845 -0.46107927234750906 -0.1456203410766976 -2.0094186791197974
Ni 5.098220516741423 7.004243303075247 3.9642603696344088 1.2103226448056188 -1.1657659412411665 -1.2230094962446678
Ni 3.318784771945106 6.777726308551772 5.30424823046733 -2.158740894528114 2.1709850020027903 1.6088022400440358
Ni 4.9996375248703835 3.2690473226674817 5.2534450437129605 -1.1266432642080921 1.7683237645828578 2.695293357513274
Ni 4.323635965859566 6.4106612025563185 13.156083197071323 1.5559434443717912 -0.30895121205928083 0.10046354203440117
Ni 0.7514959991760184 0.19325615607333768 13.426526595792136 -0.7679365779922387 0.9458414901342549 -0.27571893236871226
Ni -0.06767751515430404 7.216280465613234 12.750717979859944 0.24975181888098924 -0.9317986388879436 -0.6190121122429727
Ni 3.298298221474121 1.6643706814446229 9.696145091261382 0.06461953575259838 -0.4798123299806383 -1.2361488618401035
Ni 2.1741954634453493 1.0700877971023857 1.769210671738053 -0.48954164145326007 0.38622571757172836 0.5604166711972671
Ni 6.310030465747042 7.728526137185388 12.138807196980503 0.4326711535184613 -1.8311831231112399 -2.4687745410182966
Ni 3.838256707877083 4.375129925239768 10.266643190618781 -0.681588392313297 -0.9878355751778536 -0.4183981885392149
Ni 7.201864341248045 8.559473729856142 0.6030235698474944 0.9816998945937611 0.7761576803504504 2.069768126742132
Ni 3.845537578768593 8.12100148259221 7.591900594906211 0.16596162373721096 -0.9746231902526376 0.7688740022048436
Ni 5.1585243299003505 5.319194948298738 1.8541811653685536 0.60931339689797 0.6089917518924931 1.000162986394955
Ni 5.745025783477287 3.8687999612669657 0.2385504538894185 -1.4100364252926103 -0.4386559103469865 -1.612193525113772
Ni 7.561002399060367 3.0294065583620595 8.442926099169165 1.0664624809531376 0.19017730175146602 -1.828162848227677
Ni 1.2479776751591922 6.082576059096284 3.7760962726408205 -0.09647756080345965 0.16381423837690498 0.7924533321866803
Ni 4.955888591901026 0.16230790424011493 12.961286226695568 -1.9667784758517675 0.4236008157860769 0.9733494657465366
Ni 1.152452649062587 7.966592413160521 5.707376400097292 -0.1274387850716644 0.16725565995828615 -1.0609243247437274
Ni 4.463455990242393 1.3961342967127972 7.346100213826571 -1.2814529850935412 0.22507899872465753 0.4618140936310046
Ni 9.146230013914282 4.853182806887669 1.6387511169951237 -0.6030283352202066 0.9359082901809431 0.9818595601000769
Ni 8.546004118706849 7.876710062004836 7.3334597118500495 -0.48127528767940986 -0.3949692680923133 1.7051106222594825
Ni 5.477062431403893 8.335359422726864 5.899162730359405 0.1000339106961503 0.39883337903340993 0.36708565430816775
P 2.6924933589460704 7.365465510180265 9.515587684131699 -0.22334890340742822 -0.36735253481630925 -0.5628283659625533
Ni 0.2198176831944259 2.7321559031275684 2.6418412502627002 0.5073239051373457 0.2406611694336307 0.7241879721513785
P 5.352040777108059 7.570722361700533 1.4406367998194263 0.1402603623163649 -0.027976687718584074 0.08538247933156264
Ni 7.958319523610043 0.19889610068767324 5.572280750814193 -1.1146873773977966 1.155639651440442 0.26772280153711314
P 8.196586023534692 1.7482827184692702 0.7369824931626556 0.5189391207787708 0.4302897977704783 0.725266549927538
P 5.000229095630319 1.3086364307740812 4.738372574017179 -0.10330409680698982 -2.4058851005829274 0.12847802496945615
P 9.042750636368702 3.771008764105378 10.167846323165303 1.5282266951828132 0.23641293568023797 -0.6152315621546179
Ni 4.718331976888298 2.4250578700123104 11.55907786344153 -0.7251752757653124 -0.3769895436854411 0.6152912117479596
Ni 5.032064703603444 3.048509743363658 3.081292774661541 0.6767878856008602 1.1451593207344084 -2.9062418303738204
Ni 1.3309431989679437 0.5312178008977045 10.67515192383757 -0.16618968058761702 -0.05510542561457607 0.7488587354251813
Ni 3.4559654806297604 4.98894374574848 4.058541276917428 0.48381810870592157 -2.5651957946625243 -1.5283105131458712
Ni 3.6508652933068566 5.610256863275446 8.305939243671997 0.25985856829768794 0.14554423642312353 -0.3910120832167782
Ni 2.809733582476603 4.436707890804709 6.146601307389634 -1.063741739587865 -0.10644238532565539 1.1303297119207436
Ni 7.68276586363225 5.497940328685297 11.223018346137572 -0.41461995244370525 1.3312557675482815 -0.14384885099857164
Ni 0.40692969434419096 7.500607575015295 9.972662556523439 1.7409705693808857 -1.3391793932707323 -1.200673551751629
Ni 7.893228537839948 4.05772035872441 13.001060714267025 -0.2591270894483021 -1.922333101054199 0.7691650510827012
Ni 7.126161486153574 3.2246522124065025 10.628344114984914 -0.40407225883484604 -0.7707807323092533 3.009390889660185
Ni 5.451797809410355 2.4696987096658787 9.41287461824745 -0.18274938471851107 -0.39325125695994206 -2.010319850777828
Ni 2.8387205497134254 8.155849550896697 0.5764092564124428 -0.1398710972977462 -0.3934402330422966 -0.03970426056815743
Ni 0.9026823731293525 1.9728156756748099 9.000369597018087 0.1965667502175776 1.2838304841867825 -0.7418290822719095
Ni 8.352169133397638 0.6226018316747636 2.717793475185205 0.09850281876360456 -0.1350255962799868 -0.7548476060187645
Ni 2.0582384934094455 2.95517807962312 11.167579064843034 -0.8542125156723482 -0.9602211558946947 0.0396788066468607
Ni 8.560220019122523 4.562830776822883 4.168141136556182 -0.9419881778264356 0.22141106295476706 -0.5988518352450138
Ni 6.48499889435863 1.860353523666831 6.572187323284457 1.052240938037117 0.3306148130756435 0.5580509991785678
Ni 7.368341454182411 6.782668199669383 5.3728749891641145 -1.3623311487968472 0.3078816331441859 -0.8085173276280785
Ni 0.7896286503614383 1.4305637149410226 4.5558839158835225 0.5286596905006444 -0.5164407798369492 0.15890908776580373
Ni 3.255195465796385 6.616418613950377 2.52676617571353 -0.9308699564260872 1.497246444751215 -1.5265855600349645
Ni 5.792078411613668 0.4753280157167544 10.60925640183396 0.32438040213015745 0.0076929977688835255 -0.05776034673891988
Ni 7.142989399001577 3.540496391680186 2.0165964624543182 0.7202199886425661 0.8760902895820459 1.0034002623853302
Ni 1.1831051155158423 2.998553867959288 0.5937195269570068 0.34524773249746993 -0.7730960107059911 -1.418597170378428
Ni 7.2425644095315835 7.501581391497035 9.799284998201646 -0.31955701259958513 0.07569199151667609 -0.4054405999372824
Ni 2.9122391435404427 4.3013382987543185 1.6605027187835084 -0.4391680740967146 0.4688671438230441 0.7315130450578821
P 8.520703092358854 8.764675974844724 11.270638882203489 -1.2442128697951602 0.6633245610071028 1.531927541073168
Ni 1.657572168249676 -0.19348914394186598 7.985344296141603 -0.13476771463290985 0.6562193174208891 0.5509591253287931
P 1.5383934128442789 3.6692676944851472 4.4145148862185275 -0.2126482291604725 0.0032707003314717863 0.07579792096692108
Ni 8.033931367818369 0.92172185051065 9.578686441604106 -0.6829551907538367 -0.44333120433546874 0.5658625248031868
P 5.271869287503926 4.94944502116204 11.642596733438037 1.145218456107118 0.37432408103813597 0.9855439509301994
P 6.205895809821226 4.894610962260359 3.73058081837141 0.5848339236993669 0.13047731478767205 0.9489733508950174
P 1.4580216992906283 5.836446218608804 0.5886347487481487 2.3391297494342487 1.3899414543149482 -0.578415678877849
Ni 3.1712197211514366 0.18578325221206454 5.668999839737006 0.4320170648742302 0.7323959618834678 -0.45559022420847983
