# total energy = -340892.99800062465 ev
CRYSTAL
PRIMVEC
9.05744420719702 0.00000000000000 0.00000000000000

0.00000000000000 9.05744420719702 0.00000000000000

0.00000000000000 0.00000000000000 13.25648513772769

PRIMCOORD
 96 1
Ni 6.453573908009534 1.599626161826058 11.49768088357716 0.06505816595191377 1.8312831390242137 -0.757404053892031
Ni 4.629975266130733 0.16980715227809778 6.1585783850465035 0.22751151942555015 0.23561846480340068 -0.7771064174169648
Ni 3.0382290807542818 1.8235352397694358 4.741208832544503 0.375108010392012 -1.3597878135497035 0.873187257002638
Ni 3.4751601887187062 4.424153904244672 4.84897068059835 0.3570809776869721 -0.6100358768862914 0.4946229126309094
Ni 5.258897018695529 4.5364843271504505 2.8869842546093163 0.2899574445655974 1.1528312354573693 -0.9801065819647121
Ni 7.279467899481922 6.122560552460862 2.6321675540950884 -0.7385424411008378 -0.13474971691078086 0.3928136552018912
Ni 5.152707542953925 4.576445770938573 11.373679943826186 -0.5731091790632711 -0.16618942347730087 0.7529938406394774
Ni 6.019975939508851 8.094474843031982 12.445599480477185 -1.8289228663221533 -0.47567465366318085 0.2398114198388257
Ni 1.57624889835889 6.557218241932355 0.4666386191794435 0.6576298246151706 0.001390966810255669 -0.9113820229048045
Ni 2.3257161757142857 1.4656393898501514 0.4577260940916119 1.0082917861496763 0.12599691041881528 0.5912123164218851
Ni 0.38202125827695504 8.985156732830854 4.940585822885857 -0.23949517414998753 0.46912373991854045 -0.2014467040176982
Ni 8.759581085155606 2.253501173147943 1.5322505516930778 0.6720863663601329 0.7639685944834262 -0.3460092932538428
Ni 6.93319275046476 0.606984622724625 4.7846102936378685 -0.1619350190763211 -0.11115058943460211 1.0668466037654336
Ni 0.8647703534459573 7.444277154053246 2.5692790018162865 -1.8970352457193587 1.0242971604389972 0.8865479945802603
Ni 7.633450933508988 3.7568014159607 3.7153291904808596 0.766709390453357 -0.10281738697855841 -0.40989966414990053
Ni 7.742149321292592 3.9447343255617335 12.564191314554934 -0.6952674324622864 -1.2555884586219537 -0.028493222343686415
Ni 7.657851688170186 8.742987847390456 7.0946589023837285 0.7222421612789174 -0.1415464281176401 -0.417794493516945
Ni 6.955465005740145 0.7675549934127119 0.36596874993024375 0.08496287529564077 0.16436702555658145 1.6177216540208523
Ni 1.9074796325682395 6.615928595204025 9.100789499890112 -0.4977563160535686 0.16172341728614728 0.9832330434088357
Ni -0.05442618216745909 4.898465084401658 1.4731135927998251 0.15642334522947254 -1.0357190291226939 -0.5887016341848893
Ni 6.391575702495095 1.8657248148295165 6.803162270113209 -0.47157862921693616 0.3529327598465534 0.7051026733851534
Ni 3.6374967610248086 4.6468583421101215 0.8827693065501636 0.17277299023208953 0.07386033762457601 -0.7561539835350138
Ni 6.174405363032761 5.636239201301372 4.858329737684992 -0.5354887976073359 -0.2119188071936157 -0.4417414912508457
Ni 5.029843312449419 2.7499849766941686 9.54185895410721 1.3471055900963447 0.1186049888301183 0.38173091502516837
P 0.16669682594155172 5.470687236306062 12.395317079028915 0.3119714869428434 0.058577957544208796 -0.20590011180336154
P 3.970493696852173 6.087318037098309 12.504126873376118 0.1459468711781809 0.2205795681924072 0.3337176203706833
P 2.317356154722346 8.53836206813813 1.4358231893047932 0.23123961900941464 0.3788314819901863 -0.9597141343512892
P 6.316942362328701 7.5784813046898325 5.716620395553882 -0.7316194887287594 1.0479047725556083 1.0786677647700775
P 4.566183686665695 1.145549312000592 12.504484642421817 -0.7187706577905493 -0.5318936240569098 0.389210254121349
P 3.996615365910411 6.326353046847255 8.306248757242964 -0.7514763755536864 -1.4387103961885352 -1.3317535331203063
P 4.718747276685445 1.0225854496099405 3.7230171491135335 0.8820390509663132 -0.6357314818801826 -0.4719264994746582
P -0.025049267665555812 5.526888677535731 3.606638954397031 1.9768849681581502 0.39240305002703385 0.27671574906434276
Ni 1.460431359438055 0.9059255683789746 2.949926245808868 -0.14791042266245494 1.0207379823328293 -1.1765473481273867
Ni 1.7506137565558872 6.555035397881372 4.919892280133653 0.3424550002436812 0.37858208498354157 -0.5704439735262821
Ni 5.976346230821773 5.435698329380967 9.017697412590053 -0.46556764713616594 0.23271826043747018 0.8546629729462055
Ni 8.713514923980085 2.2219993822379047 10.141436398969205 -0.25752092130344684 0.7572901540219862 0.1343951617848395
Ni 2.3247651440738153 5.249604080951509 7.1090683903534755 0.48521396061218375 0.3569470232122691 -0.29859557985656965
Ni 0.5518827552202225 -0.03918793805387394 9.025717779424683 0.8317654995227418 0.6034728789567929 0.45165900747487375
Ni 1.5528625774475273 1.1851756303535013 11.391138167511954 -0.7872525047120313 0.00829720701178571 0.9432037954010918
Ni 3.9765440695744 7.076110162416889 1.257925022127346 0.6987551339005708 -0.52610375684801 0.7034638522301497
Ni 5.549831183681541 7.7894020076576505 8.13435205258909 0.2774960788737931 0.7827137363014133 0.13996597100439767
Ni 5.371789003141395 2.927048953261261 4.570451554370355 -0.08006620932497178 -0.431646826019005 0.9394361008285435
Ni 0.8611048057802608 7.570863994121878 7.027501576655846 -0.9180473507401221 -0.6499080304908808 -0.19590726225670776
Ni 5.210566496471271 4.6044785607219465 6.8446815943028625 -0.2803618304573623 0.17470208893400235 0.30864962165846194
Ni 8.161472757742033 7.254804478939072 9.143753486428862 -0.6258818427796123 -0.8590140508260496 0.320288491448971
Ni 4.628498902726956 0.3789218008734429 10.386270890236178 -0.5939932216011318 -0.8940052221892539 0.06952674324622865
Ni 8.287697300042867 6.977384020691925 5.0673972875705235 0.02288693190050252 0.5372579736926166 -0.7256149344058923
Ni 7.390711429084308 5.997658397012492 7.104747083728064 -0.7792247493115483 0.10198203556145662 -0.49014147982078815
Ni 2.108591123472926 5.596585710615877 2.5944269956235675 0.6390906281604026 -1.95851726428424 0.6088428850194546
Ni 2.270402364015721 5.272700563648633 11.274892211480699 -0.8241660899089289 0.6115895945266564 1.328183556380861
Ni 1.425433395068765 3.2431446982208474 3.949398909322133 -1.6772295795784986 0.8475677566623209 -1.3112860092945742
Ni 3.9291192917696383 2.6965369984997642 2.411275510813049 -0.49520603882788905 -0.9368909658091865 0.1757657543118263
Ni 1.2164509851586665 3.333981806052009 8.086164637983114 -1.280950077315194 0.5892418229590756 0.8452841028344669
Ni 3.7740830194846664 2.8772873548542015 7.369333143550966 -0.023447175279346717 0.14738771738976553 -0.3267689569669921
Ni 3.9845327353543465 6.799115404046905 5.983089498024913 0.6562162320970957 0.28562333596661776 0.03219972466099616
Ni 0.7629764553721644 7.279875484470696 11.460510038345502 -0.03181123097332586 0.7122272002450767 -0.8257763718188423
P 0.189454560225785 5.4645553465860806 7.884307719421183 1.224477596149762 0.69475449738161 0.5354039512030134
P 8.647775994013134 1.607940895597023 7.968313702840513 -0.9207058714088918 -0.0017745754019195244 -0.46373496480280135
P 1.681088814915445 3.2297306233681256 10.47075420096458 -0.0791724938661088 0.5807646387259998 -0.7067808324185247
P 3.8360087654455444 6.139226249779572 3.7959812023147985 0.9387984672445445 1.7362888476345 -1.121686434423449
P 6.907822849274703 3.795159692126316 10.434882193230477 0.39211405803170535 -0.3505442050097189 -0.6496794594198424
P 6.382753751849213 7.853329448785613 10.387012694915741 0.35585250459650974 0.49968721452769427 -1.9572347980273903
P 2.3612122995142975 8.680862837657289 5.6476470522649125 0.45031457763183735 -0.3236016149826039 1.0641261195104772
P 6.909842659330177 3.595361530629898 1.5094629278430014 -0.4004542024662845 0.8712769273538027 -0.10794982310911731
Ni 5.222241542038563 2.9165694903277033 0.20045301471171367 0.748122371479789 0.26550471083987176 0.5579167875935489
Ni 1.4929113543211483 1.289164147155731 6.872639207299418 0.5716325945177445 -0.6238843527336094 0.050184591274191
Ni 6.773817962410407 0.9230350804632366 9.079962812708244 -0.08574937575267812 -0.5848231250660896 0.31263123201402937
Ni 2.639194319301531 1.7026183597668432 9.236203725071144 0.05309250894960534 -1.1815291176126943 0.09115383459770107
Ni 6.60044036563066 1.685898317782964 2.6760200759093618 -1.1923251797869336 1.0815096050942472 -0.8782952676531649
Ni 4.198052924806116 6.934732515977902 10.38106104833524 0.19685934175733194 0.1268569444262654 0.7277430364924886
Ni 8.013283913268443 6.994076890343219 0.24029399449204358 1.296710168362928 0.4230727111967488 -0.3962779596014078
Ni 7.51909164310354 3.691297979542816 8.29210374664371 0.3002693680145668 -0.6143368182544904 -0.7457415299524383
Ni 3.070192801318263 8.232274799013963 12.40341715137246 0.5100785850643473 0.4462913154050572 0.1822739877439893
Ni 0.042700414912675844 4.762132434379259 9.947627019574487 -0.095194580325978 0.30819736461239183 1.0530104692132898
Ni 8.657041759424569 2.3230442296767753 5.7391172754453 0.0377075418531028 0.3685362707117653 0.15330254021230372
Ni 3.352341245435174 3.0185472545186536 11.776212690227027 0.8238729841485424 -0.7993747418968621 0.31388927279084655
Ni 1.1693251030123375 3.4623710775154355 12.786052504365832 -0.7326543577511769 -0.11640489585500596 0.21592869968395714
Ni 2.899650184571535 8.4637921300811 7.817176660281467 1.2879558192090659 0.21105594497268815 0.8118664466059695
Ni 5.6389654920040515 8.080879619295361 3.602861094423317 -1.0211832974003638 -1.121664837156894 -0.3192993880628243
Ni 3.0506287218571697 8.433250428255725 3.611649532525677 1.479884813544316 -1.3563844442951092 0.014772016102851978
Ni 3.482369914297887 4.4200418245801645 9.524135347306531 -0.2677353999426034 0.5398337048395929 -1.5067325298647791
Ni 7.097186835058539 5.989026652694704 11.200046021375721 1.0698820481576479 0.1295738291367962 0.6593591486014515
Ni 0.2713764257358561 9.066592213587656 0.49135729013188356 0.919236743062533 -0.843113320435393 0.09301171374204625
Ni 4.684682229068235 0.32012177890424204 1.38359253161019 -0.1470213351892823 0.34860867854990285 0.18780597330581203
Ni 6.079320313874168 5.514570553430599 0.48704685243950646 -0.8486162525314933 -0.07204231057923076 -0.27363248215332875
Ni 8.18845488399879 -0.008296618882574894 11.228547986768394 0.038589687347739994 -1.373631404301015 -0.5650945362889107
Ni 0.21711508905274507 4.813071500531662 5.612186252497261 -0.22984376710315255 -1.211646505823365 1.3153177561617864
Ni 7.8428228135194695 8.73291596944567 2.657805555633316 1.1006370699523174 -0.4645872855007676 -0.15089521632239172
P 8.61994246800205 1.5869185676205422 3.645003570773584 -0.3550510917411369 -0.07362431035436998 0.504999370769227
P 2.0467197221772175 3.4679323482511353 1.6581743868466392 -1.3642049687807924 -0.7116638715424389 0.017064925902086737
P 4.547797074949945 1.0873099458270585 8.237673035754153 1.130542599262498 -1.1179925305116294 -0.7697049827465712
P 8.592960341745291 1.630702252858934 12.509442687374134 0.5656049002664258 1.2313072174770858 0.10281378743413261
P 6.392318412919081 7.6365938666446365 1.4545675700662437 -1.9937298076296306 0.9173192143248461 -0.7081355466742063
P 2.106064096542535 3.30057795186103 6.0887300926483015 -1.3804000904834162 -0.08882904311926637 -0.6279729209806862
P 6.947766178174437 3.744265913194888 5.8455793802571705 0.3528831375555406 0.8139302711135338 0.5485626000721585
P 2.376220484545331 8.586891854134674 10.319272069781707 -0.026345836983380434 -0.8179507051268365 -0.9773367325290587
