# total energy = -340886.18185278145 ev
CRYSTAL
PRIMVEC
9.13728235965529 0.00000000000000 0.00000000000000
0.00000000000000 9.13728235965529 0.00000000000000
0.00000000000000 0.00000000000000 13.37333634401458
PRIMCOORD
 96 1
Ni 6.9648111356865705 2.0561443431162556 11.298008239208416 -0.5089969219643944 0.6041251678288111 0.004961457770333391
Ni 4.8818945556694375 0.2530615996888221 5.852773736635872 0.2106188574352695 0.4547039649487846 -0.6110506913040509
Ni 2.856524579065863 1.7140079477181491 4.771486033435864 0.34512149133225084 0.4048045090151803 -1.1969315682106934
Ni 3.440415187407114 4.376794731900292 4.464929301269269 0.7393736787528815 0.6138691345894525 0.19212799771993364
Ni 3.822984056623098 3.2281378469015913 2.436595190313938 0.7316431428778433 -1.0258555060650525 0.1420588489776844
Ni 5.466543558434843 5.069766215368735 2.5027527684904274 -2.0665053968304603 -1.0898914014000392 2.0291652656191053
Ni 5.177083595027712 3.4560947636944537 0.32654453702006636 1.6910328040101779 -0.17172989367955588 0.8616103507983162
Ni 5.9476945655087 8.539036940022596 12.501929234522436 -0.901383516931196 -0.9895206761897604 -0.07945248700037284
Ni 1.9814744728247982 6.907611748997324 0.21686425617932528 -0.3857724320843937 0.04272916343741028 -0.19956439939332082
Ni 0.43340505256810746 0.32695023235057796 0.3949142512217096 -0.12565598213962875 -0.6551335405558781 0.36846993625020413
Ni 8.117488424861511 -0.3496298805456864 6.756757960750766 -0.06791594711568304 0.4076566337519947 0.7151016935793942
Ni 8.996239130401163 2.662667999513299 0.849003369548355 0.2127685567884207 0.38821857963204104 0.2989023124637111
Ni 7.35726654426322 0.7627117900028958 4.55344672276321 -1.442865298897173 -0.03180403188447426 0.20408465586117755
Ni 1.4654830086509263 8.024534852850376 2.557009036577021 -0.7007305124593868 -0.8377821380304669 0.6084145392327844
Ni 7.857697216818595 4.1792832394602355 3.6509208088904255 0.3457501260551851 -0.36628372723216274 0.33892924647860984
Ni 7.852863594524887 4.336197787002477 12.458653238478089 0.15116852458843644 -2.3066137790844143 1.299755125836839
Ni 8.690852884086787 7.477202510666263 9.036978616901589 -0.641734750651469 -0.44309183463115304 -0.018829216891361123
Ni 7.214542196006667 1.1010790564857762 0.271328854300506 -0.05195762401421374 -0.3386140292310362 -0.32237288478182546
Ni 2.097170740278351 6.634991796719312 9.20613803634515 0.04436361371703973 0.47291740263301774 -1.053089144970025
Ni 0.3798514414841341 5.068724565195799 1.0895322729459678 -0.5562900506234032 0.11837076133212518 0.8616864554518902
Ni 6.697838023819733 1.9234070443247724 6.708573416698518 -1.4744047642663511 0.30779935784302476 -0.5634392600736748
Ni 3.3075499666645687 4.738731617866385 0.0383217616253514 -0.3655219093654737 0.48597063627255016 0.8667389302741332
Ni 6.101557260789885 5.629698869732477 5.05390389343702 -1.0216805487517566 0.5094394088184517 -1.9833649194555387
Ni 5.446130869958201 2.881405398547464 9.126860234630788 0.574120908157237 0.7108236350293307 0.723223037134948
P 0.37427495814604345 5.79141962772177 12.355130572124551 0.16047206137754944 0.4817596835149961 0.3409012826033161
P 4.270272295794343 6.493784237311066 12.702302523753398 -0.3768782149185574 1.2275192111895634 -1.0955002629463844
P 2.346179955303166 9.087675913563988 0.9561590193120612 2.299790585514994 -0.3526370829830056 0.44006050400399693
P 6.4861546066584275 7.760403435753564 5.60899104704017 0.206238983200019 1.0933107114942333 -0.05688488611250203
P 5.247751335707366 1.6491149694007323 12.580658799303675 -0.8479675632039009 -0.9195280490507067 -0.3580798512651317
P 4.176286210892492 6.160702888591721 8.429668240505514 0.662217443985853 1.187458852833568 -2.417381531258301
P 4.820619941110638 1.504535752853776 3.4562848191646034 0.35455075506595063 -0.43768171935917527 0.38182064652549724
P 0.6019413093643508 5.98659197591383 3.331432081199662 -1.6946701436524492 -0.1590939500831002 -0.3801221757771518
Ni 0.5498898674771364 0.49401904162249316 4.67398118115158 2.084949205357945 -0.24124583829250706 0.27114853938921046
Ni 2.1155549521024346 6.6668991862271145 4.677711933481487 1.845510081256873 0.972424897049738 -0.12084416257328219
Ni 6.565722060219123 6.112841804330016 9.062481685302286 -0.22582076198668855 -1.0930255761536467 1.800336055823396
Ni 8.792687894414527 2.2111674732392195 9.839204583859383 1.5491737297481256 1.1586203313353207 0.3073514716723288
Ni 2.9946620116486153 4.936416718668597 6.698770940334265 -0.06578861636003508 0.777432433297816 1.4352489200024958
Ni 0.975203856640559 0.20164428518758756 8.969977667576313 0.06355509904382603 0.6237730239667257 0.4500001317152121
Ni 2.004582659555965 1.369194328629955 11.369167565671438 -0.7340008444767424 -0.5505708887514389 -0.29459288645507975
Ni 3.8920801847611304 7.362895110109958 1.606672293494734 1.5673588852975846 1.3275076133597588 -0.14986728927850965
Ni 5.844096059712745 8.032840642387203 8.062651025625806 -0.9984999968702353 1.2746835275801918 -1.1463793091844385
Ni 5.584204341565423 3.140721467915006 4.494711358932995 0.6301645293153664 0.32133878709035624 0.4443843281903314
Ni 1.15391082227447 7.609135728622498 6.904640304819793 -0.8239359761759939 -0.7828070673461679 0.26366122987322976
Ni 5.4869379723470475 4.611787356001576 7.342082208672135 -0.7931747837337372 0.16056564953262023 0.2567848144683707
Ni 1.1640714801016971 7.545686440895641 11.407241706948662 0.1418243643693751 1.0436143727103702 -0.973130407757195
Ni 4.862139751512545 0.7967975075916441 10.486675143063216 -0.7268295235392838 -0.6428755491241315 0.4103488358721772
Ni 8.70003585271661 7.5878915474639514 4.785274192303927 -0.646723462115312 -1.8192673455102604 -0.8768279390790189
Ni 7.3834722696665365 6.349890316930514 6.914348667177193 1.8168224835141935 -0.9081753430420487 0.3885032007519954
Ni 2.7355652370543226 5.482844469913057 2.2093683423703516 -1.3348141743235011 -0.18886449647731346 1.5720760882675957
Ni 2.610850472050884 5.478531672705816 11.14014981041298 -0.43857492059740594 0.537432551597268 2.169250792920503
Ni 1.2374712681647508 3.7399261612548473 3.765089322757006 -0.8945294701238401 0.311220981930064 -1.6865878808649468
Ni 1.8396364409434607 1.4507445724321155 2.488296674292175 -0.8707367385796164 0.573662737573896 -0.01331882859609319
Ni 1.2616393796332905 3.7023993431825253 8.14992486300978 0.22427527187643956 -0.9985853574951898 0.009074708607758563
Ni 4.05231156574877 2.7540499589828125 6.522898359644604 -0.2179912386399407 1.0350047766644883 -0.41622020705128965
Ni 4.387083311678581 7.065376063785908 6.281522430185316 -0.7554852396027634 -0.8421411863301109 -0.32419245448906747
Ni 8.42329498615795 7.311123269058636 0.5910843906320564 0.26719418272715273 -0.49506179994054095 -0.6262451396563021
P 0.43886275123735463 5.623065202841679 7.908602843515581 -0.7388982817783598 2.0902500487455677 0.41466700363155684
P 8.447280351982116 1.5149796664297839 7.815056261888452 2.865978869088716 0.18923859198728055 -0.07105989206130343
P 1.8386222026171817 3.306654513007133 10.299634976045825 0.5178116920425468 0.443315777716501 -0.9280939363428468
P 4.153178024161325 6.41407058723487 3.7566501288997878 0.2289721631314766 0.29738896114297814 0.06129587069600411
P 7.137661103418276 4.2160242512617465 10.059517250348057 -0.3278177099464806 -0.4846375192834234 1.6412835005011928
P 6.611399334030552 8.292129299908089 10.129646805105025 0.6995848288907178 -1.717243915187907 1.455965326614241
P 2.5980034532513505 8.634548951054976 5.699113889019943 0.37570656320795937 0.75263902840322 -0.504407502821499
P 7.06104499201423 4.194798344667638 1.3791521387919266 1.830247498670848 -0.7742280674279053 -0.3981929172359336
Ni 3.040622541208825 2.0177677577975914 0.3017441256219908 -0.06472237987904983 -0.7800145922026953 -0.3000369402887865
Ni 1.9045111446964398 1.24013935457262 6.87767983990521 -1.8159071707887757 1.128525054611837 -0.020046634238229992
Ni 6.859732390171182 0.9507433521410202 9.049215265248913 -0.4680474761352261 -0.28020653582642063 -0.01870477549835488
Ni 3.1077176045409556 2.036033184952832 8.97836295146844 -0.05889240346083406 -0.7415958832151809 0.046117363183352834
Ni 7.002191757243393 2.1372011736786045 2.3433565350975787 -0.6425374490584225 0.6949290752862612 0.7824265440782977
Ni 4.552742238304146 7.207040487305089 10.247800087747194 -0.2032804147923273 0.5942945548916345 1.3253075203846467
Ni 7.427011419438783 6.256406782550694 11.52034024506743 -0.03626155343519562 2.987713404686751 -1.1268921469941044
Ni 7.853219948531418 3.891157319257039 8.02237023069276 0.6507449245698793 0.17918994950202688 -0.037139328054458624
Ni 3.5021466660768503 8.786712111843476 12.556252204769226 0.2508334819809422 -0.5235650495865564 -0.8233410229044724
Ni 0.11511513630444135 5.180098898159892 10.18689827430292 0.3532832012074367 -0.913850281939639 -0.3688977678162421
Ni 8.752584362756522 2.5214695773872724 5.801834301994678 1.3976218536783414 1.0730743298427003 -0.19059459179454272
Ni 3.7312183313003984 3.2802386301127866 11.754079234048305 0.35924918898288455 -1.6493287394031724 -2.097656625622284
Ni 1.3550041293442683 3.648196985061022 12.337544958766383 -1.5050793105320726 0.09421421869057967 0.8089557007170777
Ni 3.05403607150592 8.694288502201028 7.951317810431698 2.182072113054887 -0.5241425193565812 0.32462928491616994
Ni 5.84096197191172 8.1615849488491 3.5189391633384313 -0.24188244343524146 0.12337181409114238 -0.30784563769992784
Ni 3.5338621726580604 8.957816858671405 3.706660971609341 -0.3715046093114699 -2.139463534355741 -0.9844481467628594
Ni 3.6750971439129616 4.4538768446974935 9.451672342942183 0.2754286548218031 -1.324504564867377 -0.7324532974839644
Ni 5.501466251074827 4.8542268651111256 11.559109733521499 -0.3856585322143487 -0.05240782417775491 -0.5729302302832456
Ni 8.263045330605872 8.948012554850708 2.4461436502325107 -0.32536667730282676 0.26383709332946176 0.2851649082729605
Ni 5.052834831417429 0.898755871229337 1.4072629875378475 -0.4810893969208489 -1.1746259627349576 -0.3564862815257667
Ni 6.024721854612589 5.957535418458272 0.5343775034543994 0.6087133014201259 1.333694201786445 -1.8533005238355693
Ni 8.239553378021519 8.677411941943035 11.90336597839435 -0.3196472583205463 -0.5000014033340034 -1.2938554725229523
Ni 0.675424246695595 5.290751385828707 5.766703279320105 -1.3482638720705038 -1.1161169107554714 0.20295542735274077
Ni 7.340837710833945 6.355619392881659 2.719815303693899 1.8005808248443504 0.8879603015467546 -0.216282226368634
P 8.880323568174362 2.0110061689557317 3.427385422963206 -0.16044815011814947 0.14807600170604174 -0.4099796254582165
P 1.9640039892225873 3.518054674419658 1.4461795862356384 -0.9365911751805804 -0.1685324697881807 -0.5270807760492987
P 4.883237736155591 1.3350574422607817 7.725656178932179 -0.14756769461105554 -1.896544165015553 2.0789222824375746
P 8.935393968106643 1.5209737235652703 12.167355767616773 -0.015815883986334052 2.0064580538295766 -0.7442888566663117
P 6.489480577386044 8.083050008179121 1.3169382116210413 0.12720172936019383 0.24796490218389552 0.20257233298170918
P 1.8196075183200058 3.2860316670394605 5.732440298456315 0.5827050502818223 0.0759547582597595 2.2419286802012035
P 7.099184007995206 4.0270287058495455 5.981010923934631 0.20059592598162873 -0.06859343279868188 -1.106222534459895
P 2.8671603755684645 8.748235016420407 10.160967581094386 -0.874274833639862 0.2766365590869752 0.6261348393306829
