# total energy = -340862.1248696775 ev
CRYSTAL
PRIMVEC
9.39942329491798 0.00000000000000 0.00000000000000

0.00000000000000 9.39942329491798 0.00000000000000

0.00000000000000 0.00000000000000 13.75700610037833

PRIMCOORD
 96 1
Ni 4.016862379570787 9.608842531186525 9.940565101169435 -0.44517674218463976 -0.2000199988735007 0.22856695727325796
Ni 9.010531635463096 2.9957278225971185 5.877061842853098 -0.3835828806322426 -1.0657885948145647 -0.9505710343994402
Ni 3.1488820271234252 1.5625131452946277 6.058118235677941 -0.8312505075595361 2.2287057537530264 -0.7471916321354035
Ni 1.366694958054137 5.968812434275869 9.717041173579014 -0.255249865881083 0.23377909760181673 -1.1711832556019959
Ni 2.5715882420739145 2.590716068648791 12.040530695639898 -2.4013895267054193 1.2828259541816682 -0.769478725668378
Ni 0.9020485624820734 3.576217411595257 10.123175218678712 0.5336681994588293 -0.09459705595129514 -0.5459539588047178
Ni 1.3432151984550995 8.618453488083334 2.5970334211013584 -0.38326817760530124 -0.8845438196660379 -1.4404985984372094
Ni 1.1902771806664938 6.728821610376496 6.970055931496343 -0.21205970364685411 -0.6986201509846033 -0.05357921877803676
Ni 5.205983431161747 5.499001055557421 6.505123793453578 -1.1478584648331263 -0.11827948716989951 -0.4976902387023235
Ni 8.76697377688413 4.050784898543135 12.79793623146473 1.2120082600381576 -0.37467477950933537 -1.5429406043542202
Ni 1.1102692888702543 1.77821111298026 1.9135994673792092 0.9151592305590497 -0.8277471223919679 0.9478826889339999
Ni 3.445612423753534 2.514787526598741 9.850456589010856 0.4106650815610153 0.5664631345016631 -0.7133901102049263
Ni 1.9615280671275885 8.16180130209453 4.937362010144498 0.40300062303722206 0.1654052370131087 0.8241185245004452
Ni 5.079194609211621 7.512348143769675 10.105883099489622 0.5015551209743685 -2.093229443088866 0.885229789989469
Ni 1.9701097406719925 4.088213402435596 1.2277113242129816 1.477739742176855 2.2130299948889824 1.6186649917707285
Ni 8.681542417798601 1.5666488915810874 13.330125943491048 -0.4382136806032453 -0.5700958461582439 -0.13598487486946256
Ni 9.124621836429116 1.6827787674202015 11.080622102667915 -0.526139495181952 1.142599273316716 -0.6682050290278557
Ni 9.248205455007236 7.31341874739096 4.424913907039662 -0.6071701253027221 0.45370303448809607 0.9009271461200677
Ni 2.0295140964229597 1.8351716186528648 7.979324656397223 -0.8618371220971416 0.5536834662384916 0.9306984638452294
Ni 5.975880800656364 4.146038655059006 9.132864190789562 0.6414812398797661 0.7610527063882119 0.0866970843779281
Ni 8.457488362729645 4.561671757424833 8.144134145912643 1.010596265913137 0.5739285896407729 -1.756075543343124
Ni 6.651595947900239 4.185544431518075 2.422993697828429 -0.5735478092625864 2.432107010393934 -0.848247556338165
Ni 3.1969976753970335 8.59216330089418 7.046586036642604 0.953711636910951 -0.42401296362283103 -1.4281886707216047
Ni 5.460153238734834 7.58723334982473 7.37008223128481 0.40468855226260625 1.5210304345446901 0.6927914601179681
P 9.288068409554679 7.543018462253125 8.688870208264339 0.5424606009394787 -0.0031835399343041943 -1.3386600304321528
P 1.3777110822535252 0.6330774829151503 9.985853402890845 3.144199227723043 1.6265456800703857 2.632939220756085
P 5.708081829184718 1.9184317109380022 9.252714358401814 -0.8879376758389353 -0.17489106501635687 1.2808652309108715
P 4.125312926509816 6.333933035406617 12.306618972056691 0.27826663849123046 0.2553966758715924 -1.9690503026050796
P 8.56858014763798 8.626959966240712 2.8554592875801466 -1.5833927988319956 -0.13667547317858397 -0.8093539645967609
P 1.1364466829788689 0.7080078062024227 5.990199882230894 0.6953466224396541 0.519061248178932 0.32143983144459487
P 6.814384561389322 9.343026838047702 6.66985056804327 -1.1327786876818686 -0.16243278464834607 0.1723685557048193
P 8.247242060603437 3.0300921144682476 9.448697035551426 0.31031029719033654 -0.8575485220241167 2.5416817707009836
Ni 0.6280704100815204 9.07559444408781 11.920061106027013 -0.10313388977771269 -0.843916790173295 0.6135762859393821
Ni 1.881397982827431 5.327376984092719 4.782925724269387 -0.11520856155405966 1.6833578039634232 -1.1766568771220574
Ni 6.78567872239194 6.091709894947372 12.07803251503471 -0.8153376929840216 -0.541465584016061 -0.7160735705743604
Ni 7.072755911212516 4.296344834301682 6.0410733213237 1.27835891954925 -1.0596174330068462 0.02084727576265442
Ni 6.527420165649285 0.2101842659319114 0.1309367874869778 -0.05280583094712196 1.1061654559697143 -0.6508991907595565
Ni 4.5974271639559525 4.113460253629757 12.657477828095518 -0.0764358116612361 0.71102623795844 0.7486409629874204
Ni 2.490959988334706 0.7806625290898042 3.778802243725799 0.43542146257008885 2.290615089663313 0.697199873598309
Ni 5.424520024707632 6.174706803377917 0.2387998704648615 0.7186354177642656 -0.8375157717429577 1.0072075519465622
Ni 5.732642522472261 1.5917547514245738 11.622799641976032 -0.6122503680391069 -1.0915675035508814 -0.08227478694051638
Ni 7.478782802885703 7.098021561253434 1.6407708644578243 -0.5389865263479492 -1.7642285114675618 1.4824101510693308
Ni 3.9710777882950015 6.865818206115476 4.139896131881275 0.20160148442800765 0.49434651904107124 -1.2661844889702452
Ni 6.580244925035431 -0.2906019725874455 9.738227473873742 -0.4748084490081435 2.6440376446620917 -0.2922238720022709
Ni 8.218968595081456 1.2549922106262106 1.7208088344088746 -0.5250295499472247 -0.4127826421246504 1.6382647682795268
Ni 6.356049878615798 9.022703888738018 2.258927702702233 -0.23092722997531842 0.7150497572955363 1.48550370239299
Ni 3.18310532764388 0.445050477712947 12.738423782344913 -0.8679429778845633 -2.9917919456314994 -0.11143058256886618
Ni 4.535992532755269 3.3401226951786755 7.455636722816595 -1.711427822726762 -0.417332723389178 1.6771493611598665
Ni 9.1156547865262 5.294112424756854 3.2705491032747065 1.182672230078202 0.8642732423424598 1.8941975191602476
Ni 4.892362270720802 0.9156034709359453 7.545896565691565 0.8112110724101577 -0.9300510600692176 0.10434025138098803
Ni 4.183805538193086 0.8737797966717833 1.5314574504526663 0.3754805632400824 2.0055820789825267 -0.779408068966948
Ni 1.549447946798766 3.9207720743742462 6.562298605979209 1.0945404701362764 0.21327789232467137 1.875821073535589
Ni 2.8042521689574107 6.659059090062623 0.1784095152015087 -0.9742285259173803 -0.2106275991860179 0.5484831529844748
Ni 0.4512973344901769 6.740505093635745 1.1447520134759503 0.6044187878098299 0.015665474451398827 0.01481572485659384
Ni 3.286931358280776 7.426822790450362 8.8440904060492 -0.9352097214520216 -1.9544914309542984 0.5561368128749906
Ni 4.4398082333249445 4.2163651407755784 1.4487782425323088 -0.8359265728789668 -0.23250640153698024 -1.1432731594552892
P 1.3016697471229357 -0.3076318478642814 0.2935336527391428 0.3686000340701652 -0.11694097086413409 0.3869703090472368
P 0.8631302499841494 2.8359376251657187 13.925529597563562 -0.951494060434342 -0.2686687103901502 -3.150279629589168
P 2.0260457091963606 5.945483065450886 2.6362271367042673 -0.6908528483343586 0.03961632884004145 -0.8893543536808037
P 2.9421323104939514 4.764962486251085 8.513413051945959 -0.2227421230613648 -0.7070636537662662 0.38704127149448825
P 7.022309205941085 6.16781702604161 8.71884684930247 -1.6834740178263135 0.4168804663431079 1.896745739503398
P -0.2776928045196641 5.2916497758317345 5.520549233652214 0.19119648704459977 -0.24409282082299902 0.8685695557249687
P 3.2719674762624944 6.423302752887661 6.025128139504722 -0.11787813796642281 0.8861587295616414 2.619846135017552
P 0.5476780818691077 6.611046835446177 11.88363176083967 -1.525951011774759 1.2027641157320705 -0.04983337858235934
Ni 7.946244325759571 7.630179315240264 13.27933521932397 1.295376280042853 0.9218808655535994 -1.6629455588556585
Ni 3.944251833973283 4.780255348087609 10.613571334595678 -0.5007341677349699 1.231271222032828 -1.5247544203634966
Ni 1.2990567074237633 3.1254210663711444 4.174811229962374 0.18169009021606128 -0.8408849453255066 -0.9394373863801241
Ni 9.028710120276761 0.48832636288905906 9.013328903860483 -3.837723195131662 0.44600823694699965 -1.0393483983451648
Ni 4.474172525196074 8.032888210460904 1.1731918487917259 0.5733284941629287 -0.871653593966931 -0.9801202088114668
Ni 4.349949745828228 9.301913760190942 5.35607060383971 2.506355584595864 -1.3958894443682668 -3.027316106680038
Ni 6.77505737397444 8.505885993704602 4.588043719597378 0.5713502873906353 -0.6059627352581822 0.43141928338923113
Ni 2.4832900588579987 7.556647626151685 11.237712785705062 1.1126276666552903 0.2650403696089435 0.47884816629515586
Ni 6.586918515634036 3.704228158584565 11.353560678842827 1.0597447026133298 0.1633252145556284 -0.143241813542192
Ni 1.4947621015837145 8.956043178138989 8.24315707120322 0.06479977008420452 -1.5319208562049489 -0.6633626133338898
Ni 1.7941525350298868 4.96539579037033 11.951729643273243 0.828784819627863 -0.546656127078065 0.9510654575373556
Ni 6.981694297523375 6.000356899133504 4.232053718336328 -0.7920761513529196 0.4109440462540148 -0.2737931761009091
Ni 8.341941251139987 5.3776169020498275 10.414988776939625 0.580812975465432 -1.2429705127476272 0.49272852382167404
Ni 8.162534457118038 7.675381142266593 10.443383495023182 0.1188297032464147 -0.055627359556317105 1.6132384214385185
Ni 6.330445849333262 2.013130901474552 2.8553220559988235 -0.8499007756708719 -0.5632286867247654 -0.2574900680655114
Ni 4.6017414992866 4.452083880257027 3.6656642043480034 -0.47497865603742073 -1.1808254066774502 2.3257990937636137
Ni 8.794626880463142 4.079114760605385 1.59662459267688 1.1072255218031124 -2.0686167867465084 -3.5505708241150273
Ni 7.433064007573565 2.2331526039142107 7.675666884737294 -1.2700303450788966 -0.9226969336969916 -0.560980257010221
Ni 7.574628723074407 6.415172251665416 6.7646362332749 1.3250198139408986 2.0131416364973393 -1.5511786759932964
Ni 8.877323007345579 8.787633709469672 6.732830464447349 0.4069182129240734 -0.3229146162179084 -0.2572545550159376
Ni 5.236935732346547 8.363879505304979 12.42941397901337 -0.45242545332725304 -0.813651049310218 -0.620804428256705
Ni 6.665366103149474 1.4686975005556397 5.077587307813928 0.13624249940622343 1.10710082329979 1.0200545831125594
Ni 9.3122061287902 0.820515144271533 4.187206249571362 -0.22641057305188747 0.3015009264288227 0.10082426780792958
Ni 6.029419916219262 2.859464381881648 0.36513939997750416 1.3724656661276877 -0.9112696656966565 -0.29860586426921476
P 7.575098694243323 0.12215020651292649 11.924257008623096 -0.4287746466775325 -0.4602871154635169 -0.5338687455054095
P 5.295813720388329 6.220914368705726 2.5573866532916147 1.3148346458777807 -0.01858856163546476 -0.9023736487586074
P 5.324839139780574 3.3173102946394986 5.582455715906489 -0.9649941518033057 -0.7376590100546199 -2.3083767845221086
P 3.345875142286206 2.576400746843613 2.607723385309519 -0.7739632438022929 1.400447753162911 0.6517024033871421
P 3.798551372185982 8.771758083383695 2.9732190234330615 0.23879557697980164 -0.5988531207965944 2.1710176550129385
P 7.3164171634486435 4.925354246778697 0.15679178137371605 -1.620335437494616 0.7186796407386397 0.9751767487632624
P 4.089266137853968 2.147796440215709 13.305130056901087 2.613206775324164 0.2666632499243472 1.5858163206718237
P 8.18152129234224 3.2027783207746987 3.5035241510720248 0.8198479221495493 -2.062979900175705 1.4036279506631053
