# total energy = -340866.7407278789 ev
CRYSTAL
PRIMVEC
9.30508430708979 0.00000000000000 0.00000000000000
0.00000000000000 9.30508430708979 0.00000000000000
0.00000000000000 0.00000000000000 13.61893145576305
PRIMCOORD
 96 1
Ni 3.170074733409891 4.337081187420772 1.9138548530540884 0.4864606885350913 -0.2554856360409729 0.5778294673570757
Ni 5.667810599892467 7.899113987283909 2.8737580455439495 -1.2170404231454264 0.972778423734415 -2.087838868200914
Ni 2.889768373610314 8.271987325814273 8.609425042269587 -0.8032434808236488 -0.8223053825511064 1.1002588606772923
Ni 4.352620678220974 6.252579318364271 8.50955822489643 -0.635048596880545 1.3478254989815046 -1.2873557237312214
Ni 0.8864488569348932 3.752600926562624 2.794917927189486 0.47631357279876035 0.25275872402811306 -0.005493161904087314
Ni 3.340553183080853 2.9395877950140763 8.813191500556503 0.38322601151345614 -0.39901824135070635 1.2823207324104755
Ni 6.366399109662519 1.8858986577486225 4.969506825702346 0.6939016624630113 -0.5731744850835677 -0.5899367921435711
Ni 2.2970810283894245 5.951057366334478 4.232082616049824 -1.1400412827815527 -1.3438392606402467 0.9349328136415511
Ni 2.893434576829044 6.9923521312970145 11.75048187025407 0.11114596144891181 1.0686247787117789 -0.8283523600761348
Ni 7.2940043545071696 0.8712694728975459 1.5249665339152056 -1.3760389853012431 -0.4839044977721408 0.815260302778867
Ni 1.1203228460200936 2.099645749468052 11.994125267357914 1.32741788185943 0.533875430373629 -0.42949584111427325
Ni 6.302342909262165 6.059554649406548 4.156620243300434 0.7247656990317195 -0.8275434910215941 -0.32746495459275216
Ni 5.360212427807265 0.8154696738067836 12.827222492884399 0.7151991383892069 -1.033974278517445 0.8751004148649509
Ni 6.8328164607763755 8.861538857622186 11.23406550960924 -1.4303481402667688 -0.3356770580898993 1.1099102677241273
Ni 0.5621973754574026 5.677171514709833 11.579264596888775 0.24433476163047596 0.7873697470161859 -0.6270879472725717
Ni 1.354652784236557 4.10257445260239 0.17010159375634615 0.03250285772371177 -0.8022916584333409 -0.87063158046032
Ni 3.7768778915313233 1.105527761964811 10.809672710771405 -0.1997736871906495 -0.33097502462853967 -0.12806690557396655
Ni 2.5223943399080464 1.6760317861870881 4.080504653632378 -0.7460742307015086 0.4862146339625562 1.4791528204742976
Ni 8.217003582617629 2.529819797188622 2.9485532437482047 -0.7132494708620039 1.0788274302763934 1.1071301338758288
Ni 0.48400954351317516 6.018193549641938 1.7263629872279829 1.1419966067357106 0.5014970140429235 0.6235562799702293
Ni 5.425757441697459 2.0025471946775664 7.195657987910512 -0.7028992379759315 0.03132426403457831 0.3780915185003682
Ni 3.80933402560983 8.31917340835788 0.14544591185616887 -0.5338723450498354 0.12196619199286737 0.18856136341459784
Ni 7.947956374834964 7.280744609363285 3.285826260211206 2.760576237881484 1.1923616894518239 1.4139740697841197
Ni 0.18538705575484452 1.484244693442795 5.823060348579231 -0.9026374439429551 2.9553509291956455 -3.1627142558080954
P 5.471333744655179 0.9630762262400823 3.0609772723997284 -0.40953302483910115 -1.640353018267123 -0.28773009789697546
P 4.17393514418727 6.102181240637522 3.418120365901504 1.0140225179858664 0.7738879104796672 -1.8709082096150038
P 5.620624517348858 7.144918293668342 0.43171776120784766 -1.2666506299733862 -0.6595506957869672 -0.5043362832639314
P 8.139659721820454 7.355780809251208 10.662697043054424 0.9921861388370655 -1.8081822913406924 -0.4957326007553205
P 4.639803495326748 8.340379695503787 10.429854057310939 0.1549714432742944 -0.48367104160509605 0.219293502391132
P 7.556705494789392 2.59004230285264 6.97297429321832 -0.0861034166579872 0.46778882315720083 -0.03460499166837912
P 8.085755368403943 7.97537845830095 7.263316186447848 1.200193526791417 -2.225224222962329 0.1559371496216734
P 8.146796721487373 0.7016303418314811 3.9227155474370066 0.10380777591628575 -1.6138919958621172 0.5595478954390686
Ni 0.07177848987046735 1.8040883564819288 0.986877701400464 -0.5456477404182086 1.73455746676569 0.044629980004548944
Ni 6.442579834920756 8.161526669952474 5.022594192716308 0.24452039527872085 1.8130527320591159 1.6549607408779692
Ni 3.9403403076314154 5.177944436313634 10.471841389249713 -2.0823284799056463 0.20559646452001368 0.8132584418574897
Ni 2.7625771761564426 5.980973212395945 0.25157412046253247 -0.8331271557569587 1.171041330707493 0.831842375507264
Ni 1.6000464676993924 1.1119389650554334 9.293885642529492 0.1203962764025862 -0.12699706954855547 1.1131987086674118
Ni 7.453540025027809 5.008349969652265 9.918354503216303 0.42812364335709496 0.9016349708203697 -0.11766345085245541
Ni 7.1362738703429605 0.4163364568409409 6.892854725771025 -0.18393234928301871 1.0921393168939513 -0.8604932064747375
Ni 9.110691795146867 9.374034986246581 11.378658145234045 1.2327138680166252 -0.3918412639862929 0.7248065795719839
Ni 0.6830806562565092 7.7076711826591415 9.59607569961285 1.0673837072158263 -1.0994204239363967 -0.1921071717843272
Ni 0.7754252434722503 0.06754746803402904 7.318010541522404 1.3116665325624441 -2.1441691673615266 2.58195861594316
Ni 3.582811053130713 2.109611494765667 13.298777181046633 -0.48922231044062847 0.4637521911939819 -0.43969669290667496
Ni 7.319937624483316 4.134286179935976 5.492229241985079 -0.1719072997976846 -0.34432084980782635 -0.07503661732086432
Ni 8.644358189791815 3.775621705149271 11.64462257858431 -0.5499345407190207 -1.1471881782389792 0.45910080846489965
Ni 3.320054082342622 0.7554844477927092 2.0518008669551895 1.4432779609545594 -1.2273775434053764 0.17703793615603058
Ni 6.075996733384966 0.6487653663325654 9.247091304035397 -2.100838880005008 -1.2629204735069928 0.2933541289519722
Ni 0.18849588442331613 2.4764923589994248 7.83324143442595 -0.40167496224726307 -0.556207518211926 1.082897486580709
Ni 6.473807697870145 7.42100945027481 9.057651884062896 1.1846491512989146 0.9038636030405723 0.09292943844088511
Ni 4.505037959243317 2.8009327336884384 3.7145087029166435 -0.07727090596802176 -0.2842058867938009 -1.0813124014817765
Ni 6.802221343560168 5.975445992314914 7.307169187791077 -1.784939518762668 -1.0273536878771337 1.9229771623961014
Ni 0.8526081263108359 3.8360489226681413 9.587632266108596 0.17630928552012215 0.2760642315232729 2.1381386448967308
Ni 6.8171187835428775 1.8143890848147575 11.407638830322208 2.109560833259038 0.4088485971775669 -0.1871228311958584
Ni 1.1820434702582623 6.55221233827883 6.454788105537442 -1.4130746978983018 -0.5962794465321473 0.46329839148601504
Ni 4.2932914606508605 0.30157778253566253 5.873586025882235 -0.334382764758508 0.8397377190949408 -2.5517640946376505
Ni 2.6233172843505574 1.7205659197019194 6.88484677021255 -0.5546674274183158 0.6682729061513136 -0.4776459184569386
P 4.013347999139432 0.7073576212252084 8.374757329492615 -1.1350302027202066 2.6875983028618617 0.4046954942411418
P 2.1308177819115715 5.783230865692293 9.14421336137904 -0.3723551302372232 0.9248656592135363 0.30861696864831367
P 2.14260732373424 7.596242798028949 1.7118042523142125 -0.3539869121426807 1.543883942104096 -0.31767110843078195
P 2.0280338206067605 9.220761637467582 11.92575802139604 1.37270992092801 -1.165231151783619 -2.558785520260806
P 5.512173759698345 4.575756600010705 9.101667724381576 1.2715280126703457 -0.9694820123713305 1.1593060445484356
P 8.938789667576247 1.9880591784045634 10.334059144832493 -0.3328246762427687 0.7979974019333612 -0.9361592298494845
P 8.088928402154165 0.16982523275229464 13.282339749610372 0.019321068926115112 -0.05814241266868696 0.28388912688433043
P 2.076736631893143 9.149661488243423 5.449601720245673 0.5453019270430157 0.20802204324237078 0.06749942840355472
Ni 0.783391326151324 7.414747128533173 13.201266411021148 0.21782900203046354 0.3880496581543446 -0.17460155880039605
Ni 0.9203454180648195 0.02504184289910444 3.4631309197330835 0.7317963806262558 0.27071016630021116 -0.938435684588487
Ni 9.135573590595813 8.593961853160739 1.495032077685115 -0.10413610578998195 -0.5274456155878853 -0.47440530003245396
Ni 9.221161756092975 8.636532613885844 5.3843395809185495 -2.1214146472738302 -2.7970488788862213 -0.6247880954948014
Ni 3.3213381839776086 8.106505706418586 3.8435078782522387 -0.43995868831880997 0.6541842892687314 -0.5562322008022742
Ni 5.4169734421074045 5.205292079105128 1.8494915848714542 0.2897471283270042 0.5797181997393565 -0.8483486006924035
Ni 6.887958390406315 5.145404556476325 12.559718998589013 0.9397004102335237 -0.4785396339158016 0.6155154119436238
Ni 7.478896379776642 6.643727842482416 1.2549692770243372 -0.44359962750550697 -0.28636561344928096 -1.444428786729551
Ni 5.095454863892201 8.438045860437272 7.499087482224163 1.3543033933963644 -1.2916067856980915 -0.05477940973372501
Ni 5.221957485107022 3.443634907083632 11.147490074666626 0.22205461007603694 -0.6569217428045525 0.14329297849510161
Ni 6.006506363746696 6.618027199614059 11.07394827131913 -1.5737964133928122 -0.35426896215947373 1.5074619518316361
Ni 8.77877943775572 4.821596927520492 7.783505758780991 -0.2721116746334281 -0.40261598600429366 -0.5697284355164962
Ni 4.676037493635723 4.189409499397293 7.246565173670288 -0.4886990909473068 0.6252118132957813 -1.050061670997611
Ni 1.5779189772066493 0.46482897322188355 0.15939981628969185 1.316568854960068 -0.8723848157060009 2.0047480131170055
Ni 4.635913970084543 5.110352303874911 13.011404540220905 -0.15476961167613346 -0.2679871109420933 -0.04287134544222939
Ni 3.2049222741564525 7.287611761585171 6.446099017807365 1.169008359437864 0.7026051037742802 -0.9960415080274135
Ni 6.806911106053164 2.6780404851864796 9.206302466955945 1.30715141830091 2.0894535209862015 -0.8804827622227868
Ni 7.696104962859949 4.000767525150286 1.096802384405919 -1.490539979265317 -1.7070286652178022 1.076174566034579
Ni 8.269195800520823 -0.0032418913741260355 9.048894869217344 0.8820953581255453 0.4058738308199591 0.2202196137498272
Ni 4.735785439999854 4.671738544683811 4.942855203217352 -1.2121802668396477 -0.3254224702414267 1.1910887362766713
Ni 5.485430947387098 2.5849431166499386 1.4218848099124264 -0.6641732821606433 0.1916950239475731 0.6817688837552194
Ni 1.688723921187972 4.293003003037204 7.524636452218243 2.078051964017479 0.7977878570257163 -0.09664211140578195
Ni 0.7527468919882664 3.984465017436541 5.375514638957523 -0.4981118996207744 0.5376125288185579 -0.7289568542949317
Ni 8.258727580670387 6.2439069797859545 5.764702581811237 1.5827759911836032 1.029935332561381 -2.1905631812450337
P 0.18499345068846815 5.731001427451853 3.8711672413681675 -0.7031560911817438 -0.6010539851026552 1.0566976882568897
P 8.79113658972139 5.250924212568716 13.6215193778488 1.6617314839428994 1.76516105058416 -2.8472815497895283
P 5.219994112317296 6.554110575478377 6.0653005389688985 -0.496133692848481 0.45878173456258403 0.037574615819664314
P 6.206426100179239 2.9888023859375914 13.136018229320491 0.04004955972271812 0.5577697204927232 -0.5720485990092405
P 2.32009250189176 2.398283125361281 1.323917160247247 -2.076532184938843 0.7535633399897022 1.4772008389542495
P 3.1206461255472115 3.742756147361059 11.945450371324466 -0.8728715255344323 0.25152253762816684 -0.10464441288496816
P 2.880798272334029 3.822891533451683 5.777791113403791 0.3346488739357011 -1.2111618528774626 -0.8391113983648515
P 6.499229188209158 4.026672879873497 3.37394075609894 0.2738867642559799 -1.4529651063353364 -0.08333510988423067
