# total energy = -340897.0736271405 ev
CRYSTAL
PRIMVEC
9.02606707924090 0.00000000000000 0.00000000000000

0.00000000000000 9.02606707924090 0.00000000000000

0.00000000000000 0.00000000000000 13.21056153931832

PRIMCOORD
 96 1
Ni 6.382449428811217 2.000672916695281 11.45923762540075 0.29657906364717307 -0.12433212112188263 0.02245498656940649
Ni 4.597057239986271 0.36957412514345095 5.893997486116458 -0.08915865854454323 -1.1866443273520726 0.39137486587283565
Ni 2.705491423139911 1.5403525175229518 4.736620095651723 -0.20118985081188576 -0.5365056689076244 0.5005706455739122
Ni 3.389378479836886 4.323964551946153 4.805830173433122 -0.18483943447832038 -0.42940893782742173 0.32782876569007413
Ni 4.8825878485750165 4.442973247471303 2.628901632847221 0.20426206197930627 0.4718966746779873 -0.011259632074219319
Ni 7.233733927086459 6.113923930754848 2.5418840271627823 0.3349818317950876 -0.5156331963339894 0.35531591536674934
Ni 5.017834438923812 4.520732816068131 11.369855190119983 0.479086250447891 0.16381063883247918 0.12265139098535008
Ni 5.650958893904182 7.929102141212937 12.502012846328606 -0.5173553212314187 0.23562823499541352 0.09323797082023942
Ni 1.7853741366906228 6.691050665064907 0.3758562678878958 0.10839899483139395 -1.2371109686430566 -1.4869658887608133
Ni 2.693369414941938 1.670806266208959 0.48030050144115544 0.331431652549984 -0.8564604311662605 -0.6382318797045331
Ni 0.5601080846769408 8.960862852383544 4.777718487258448 0.7870732988216896 1.1782203649544354 -0.3542082841248674
Ni 8.42315295336801 2.3402696675817634 1.4553278674677854 0.7420777079476059 0.9191716941525524 0.03826752812163087
Ni 6.961498715426688 0.6597026123442951 4.721560102592663 -0.8164502093219101 -0.35324232066717226 -0.012092926608792076
Ni 0.7954591754877178 7.270325603359417 2.375826956558008 -0.7501550856391016 0.34114733717585116 1.0801412639918109
Ni 7.55172227318817 3.8333797495811175 3.929309693980879 0.7429732231786816 -0.14064242824613196 -0.566790693044411
Ni 7.379026530186069 4.028216435330522 12.680487980134254 1.3342675577914118 -0.6333416414917673 0.03978884986216374
Ni 7.865874540746218 8.90084853182634 6.95588901468578 -0.3277434050651194 -0.15593432140819596 -0.9135728599085363
Ni 6.872971048706121 0.8205335900625278 0.4331113197138107 -1.0509669564206998 -0.6939445998858049 0.048048518767794667
Ni 1.9485293267029566 6.349016876044804 9.129449027006986 0.5692129293326584 -0.11519596314856934 0.3655231949170544
Ni 0.1618283581395849 4.871007404406738 1.2841746793435944 -0.2917731576180975 -0.1669378716075512 0.6750791304398696
Ni 6.297252380873265 1.8628268190039576 6.905332207300457 0.7772542558487388 0.5702696527319469 -0.08767204669668772
Ni 3.3587801121592022 4.300379438453 0.2772266268001122 0.49810470053192274 0.16497766255738683 0.6923170915847109
Ni 5.868297565087352 5.582207340334588 4.758364794050634 -0.021420117546988915 -0.45021713282202463 -0.07489186421288392
Ni 5.377117042289654 2.683910096556624 9.328572192051416 -0.6699891175114719 0.4515893305792029 -0.3099567705056598
P 0.1860173155258459 5.534973930878153 12.378322329766755 -0.1873557731422709 0.6610586477910615 -0.16437705285891044
P 3.9603404102756015 6.206612614436893 12.614196932472902 -0.13042409295223348 0.4786514769033176 -0.399031611087145
P 2.3410368832904958 8.56271400382003 1.3129894961501543 0.518099655596611 -0.03453942853776632 0.6228083460606112
P 6.317037520091401 7.5706048056901505 5.665600077446945 0.2725703594374015 1.0184417300994848 0.830140305214493
P 4.660041136639627 1.0095024295502033 12.686049842719207 1.1681951195079494 0.23662839412515377 0.21310974217792328
P 4.064781033401997 5.984724805404297 8.243271558298591 -0.7413624270481362 0.7106809388038793 -0.32817946416127347
P 4.765980086914841 0.9788950358053581 3.8250920147133742 0.24680199222404592 0.3690291511877838 0.2706255770062049
P 0.1638429763300448 5.460012443101408 3.595769434159802 0.11229987254769692 0.5517350842628691 -0.10323930500732542
Ni 1.438809261955417 1.0965227430547901 2.4553809073065533 -0.5723527605132208 0.45096121007690076 1.1812799777163656
Ni 1.8373372053397157 6.625548495673476 4.690052809951809 -0.23756967499250053 -0.8407103674208554 0.6988242965756094
Ni 5.999365086340345 5.662042904378576 9.14218390516523 0.5971610778061521 -1.0262249735893294 0.6702464849379166
Ni 8.587057306954755 2.3472197392961633 10.288187548399685 0.17768405438046173 0.38268453718768936 -0.4063029479375777
Ni 2.278793124144388 5.138224122724681 6.93973235446659 0.5806024021165227 0.5630533374891658 0.3098598399164793
Ni 0.5340380948942111 0.08836790533180758 9.044623853036091 0.9769780636380594 -0.4994714989724623 1.0150836122605291
Ni 1.5080030928159256 1.1639655168859562 11.510045357453162 -0.20763843465070692 -0.4562805654072852 -0.7074680882935365
Ni 3.9659636501172524 6.904914300390877 1.6044231526625596 -0.1419279798267749 0.6563231899886052 0.35010686036198413
Ni 5.819520698146289 7.764349337313007 8.079684922275936 -1.8936118218601066 0.35756563063287455 -1.1430942106752637
Ni 5.283363282682544 3.0063212155674988 4.829437852094179 0.5608272763721245 -0.8910319984935429 0.11482598140366032
Ni 0.6500266683471042 7.453744314149451 6.954330212886979 0.28341475835107316 -1.0672042442151686 -0.12380144542939325
Ni 5.136283518284945 4.400713201020886 7.034069198012336 0.16691113213467382 0.6124208321787001 0.09831949910820487
Ni 8.00585079028767 7.3354847821987095 8.970764448059773 0.36080007840977213 -0.4442817411741961 0.7659313746367518
Ni 4.694304087584904 0.4035157480977761 10.449620564797595 -0.34096016086570957 -0.43955991021849455 0.1599239021835633
Ni 8.241999785435528 7.224987668006908 4.6649928370844576 -1.0770073463485195 -1.3991244063657968 -0.14952276145489732
Ni 7.22760522748376 6.010855269837009 6.89703634897227 0.8235767930643623 -0.7169729424601782 0.42053168994244994
Ni 2.3382839328062204 5.257431391727386 2.5970116349587187 -1.0588687277662796 -0.48983834675807253 -0.7205051239831527
Ni 2.5958427592612967 5.168046248626471 11.328320839469354 -1.2787764667026429 -0.20273842624592825 -0.47706304937027516
Ni 1.164344611706742 3.340457195821238 3.820533850796787 -0.3292775823214587 0.04767570880940821 -0.6512570883196074
Ni 3.5625074740627425 2.466192330552668 2.700146186166836 0.20442352725783505 0.8425484490708587 -0.1815211687383648
Ni 1.1775226697626173 3.465540434546118 8.409473948584669 -1.0347042147049341 -0.5165500517213039 -1.2606345056862933
Ni 3.783790536595514 2.5446108020522895 6.911594492697146 -0.36076202608298513 -0.2660685537631418 0.41855091206699535
Ni 4.2316549630848925 6.882619914501827 6.151154652582844 -0.7714309642987424 -0.2712729807822167 -0.20763894887133919
Ni 0.9328981975500552 7.273565961470417 11.150440523489653 -0.5455724070955831 0.11221168370926482 0.4974215584219691
P 0.12502637450176185 5.639910987698434 8.1547872167004 0.18048527127468272 -0.6471065564863436 -1.4803000467048635
P 8.592102878498066 1.6429518229483888 7.992799097172056 -0.2144451731598952 0.764356316840148 -0.027354994974185146
P 1.7747775338429528 3.073989641077704 10.463848354464359 0.5059517073801674 0.8396233050042636 0.040861256990736075
P 3.837585896878404 6.106739181294246 3.7980102028018337 1.4600564659644792 1.3877732430190357 0.12787124462339267
P 6.909400255770172 3.942098728542091 10.337422939552555 -0.27119327658421677 0.6093735607119442 1.118311604413945
P 6.383595739340735 7.852741613026151 10.40286824472087 0.07544233739971523 -0.05918859454501419 -0.8033776924086681
P 2.3709221916624164 8.389756504870244 5.857219872859971 0.6743990736537094 0.7070849939225049 -0.3750892413389346
P 6.848943657922052 4.026564665039957 1.6710039370797969 0.08764993520950067 0.6822162557052831 -0.11483472315440868
Ni 5.392371095792688 2.98020880326911 0.34471362836037 -0.7355293653061268 -0.3956480393268928 0.4169732831672303
Ni 1.641498626135378 1.088507595415326 7.089963118910289 -0.585787802972204 1.095477380128249 -0.7787606651909361
Ni 6.803109288875658 0.6376925475708343 9.035561681605886 0.7197962708415861 0.7018743962558429 1.2139088194949803
Ni 2.8932245940331693 1.6528173143559726 9.19350702565257 -0.046320480333094424 -1.1339066306387244 0.0006003525881602564
Ni 6.222633883648659 2.1448823917355035 2.6643325568832035 0.4599297321240982 -0.4881756143436689 -0.2241968532300203
Ni 4.299079684781735 6.92015932782675 10.442631680994399 -0.4161248191240059 0.016992677903254608 -0.09695295777798142
Ni 7.939536274851699 7.163583333106825 0.2852742682813578 0.6394248715713697 0.25361284449829224 0.13093291426785192
Ni 7.489523644377869 3.6467026285457615 8.273735437575569 1.1047184391105427 0.18022404719349608 -0.5305047141291831
Ni 3.1332277198590135 8.394161225645083 12.400992200049727 0.14081649193015103 -0.025082654000240675 -0.1339058808532468
Ni 0.2175119716726725 4.878517092285154 10.17126026396199 -0.5831979307578408 -0.1985992072665741 1.3736098070344602
Ni 8.777254594183118 2.1367589312901005 5.709565147984182 -0.08617386488460642 0.7730674714609008 0.8730952115094641
Ni 3.6583011248483643 2.5558302035341067 11.632216786911723 -0.15277057896823368 0.7011552587016312 -1.206302210792316
Ni 1.1591636491560073 3.433281270510707 12.61352358786265 -1.0693811972618292 0.2215856408594184 -0.2639489363169777
Ni 2.804381014961947 8.23106019203572 8.018533317256376 1.8772760608145604 0.18377088400448996 0.12241304972229886
Ni 5.524801553187077 7.768952631565402 3.5873806073398495 0.028245110888622322 0.2938243837201714 0.3207178656769057
Ni 3.136052878880581 8.331321746066314 3.5577760096566533 -0.41376351798068095 0.29577148014421323 0.05035608385504876
Ni 3.389441662307017 4.0984031335788025 9.132381596227777 0.5473426116221283 0.3634873954339482 0.24783711835677963
Ni 7.062346963822783 6.077251019877434 11.509979467162882 0.6406284049611677 -0.1388393135991222 -1.0579742409764683
Ni 0.47214093672710644 0.0739090483457068 0.3042326197474956 -0.41984854783249625 -0.4417414912508457 -0.009100676749687552
Ni 4.535562644414572 0.40270249944651965 1.7014939919515422 0.012460851471172088 -0.4538166772478248 -0.7698309668014741
Ni 5.70179370415808 5.740371115206582 0.5865752214147792 1.1932939714581061 -0.7695016084865135 -0.8039137674177962
Ni 8.174087656111961 8.967108890859341 11.147322919892051 -0.4230287453326908 -0.14273684888131546 0.5132181591345936
Ni 9.229875758066639 4.728242100112364 5.726646077480716 -0.6077486235140115 0.11002316069837825 0.4805672058687917
Ni 7.943282092723745 8.803330902212862 2.5204696828219846 0.08220176761073583 0.14786131459207438 -0.03237584522754424
P 8.608548372866425 1.6556424733775403 3.581224829535667 -0.47891141543292365 -0.4099310316084682 -0.16081633209084562
P 1.8914484779732599 3.3587349818233943 1.5472737058224348 -0.9737011926590006 -0.4431967356401335 0.6668626560673483
P 4.752413907971018 0.8907248013443885 8.14690023921463 -0.23532947280807215 -0.11332959936379192 -0.06405517860869613
P 8.462560762595375 1.750948716536438 12.465353474551936 0.14994005149797404 -0.1019864064368308 -0.16040341292314308
P 6.183975237995703 7.881958992428116 1.4925161667801234 0.7203333742919789 -0.6144329775127224 -0.1961844271774944
P 1.921144238934788 3.173276379854849 6.0073441297111625 -1.0625885998200282 -0.13966669459642397 0.3522308486835224
P 7.064188281523741 3.802609886627364 6.078417187754708 -0.6615983223446155 0.8776486352081014 -0.6957346019066921
P 2.497557913939084 8.536619643655964 10.206175799563047 -0.288357189958013 0.1191228090068013 0.024641452697764014
