# total energy = -340865.04561893916 ev
CRYSTAL
PRIMVEC
9.33454798208151 0.00000000000000 0.00000000000000
0.00000000000000 9.33454798208151 0.00000000000000
0.00000000000000 0.00000000000000 13.66205452234243
PRIMCOORD
 96 1
Ni 0.4908263941640537 7.480267915311733 10.76207837438279 -1.4452849640822591 -0.7889651165277638 0.07018571698646622
Ni 4.937723774623909 3.1368281289281144 3.558938249167235 -0.6512352339427365 -0.6273939085487646 0.004118907264380003
Ni 6.921371197933281 1.220006733606055 12.593626808275923 -3.3050929500190436 0.7120551934435866 -0.22790104155448496
Ni 4.547343649402873 0.1538006774874915 7.021094039418691 0.40633071585171954 1.0635689614554262 -0.18115504364819768
Ni 3.5299712803098204 5.631458035552679 6.566311134829635 0.06695358320241372 -1.2760323282986026 0.11156787947767882
Ni 2.941568057208796 5.031022580285759 9.057955853054935 0.5973076306863455 0.8794530354066917 1.0683653544028053
Ni 4.934988752106759 5.4998409110071975 0.4096092937716514 -0.6334683968776187 -0.4511105911705715 -0.8977703456586409
Ni 0.29362660340356167 3.053442613072456 9.099351772361448 -0.7012341915686826 -0.6829464490030884 -0.9986370366687317
Ni 8.486868216197305 6.6226376634063975 7.009166354188605 -0.9514907180002323 -0.6065096089005877 -0.6622943199703756
Ni 2.8311590253560333 0.32770050338429724 1.7394117794373742 -0.13915915883238614 0.35829865214415707 -1.216399190017002
Ni 8.551379276320272 1.1852635465451837 10.417781044938788 -0.5988214962277106 -0.264931354834905 0.5175784929858183
Ni 3.6105844354569676 3.623074060467028 0.9048546628832108 -1.0111403113420652 -0.31664472404879657 2.1138987985127593
Ni 2.430716257563365 7.4637737692782675 9.647459619346307 1.192500014801901 -1.1891061586290037 -1.1770931933285276
Ni 8.123352919660093 8.545759878520528 12.016951511081206 -0.07606377303379802 -0.5993506292583033 0.3188247624192509
Ni 4.841979317427951 0.2942436170157926 -0.1226335557041646 -0.8856663633062554 0.7575446932349533 -0.1573232313359226
Ni 3.085264086659374 7.923593595881844 13.203172782234786 -0.9572361051244418 0.2883643890468647 -0.5594843891909848
Ni 6.829463239899606 -0.26769242913939767 8.183598091420132 0.809479948651664 0.7793113954880837 0.00587857026796407
Ni 5.345839540741144 8.110433905449387 9.569708436566936 -2.2952911549827437 0.388704261019208 0.05144160360974366
Ni 2.1358472258422854 9.1721827149743 11.13350843403363 0.3533150828866367 0.795595734470404 -0.21117781526253307
Ni 7.558519429855334 4.428300160798014 9.991825090989545 -0.08505054991344062 -0.7934370362561883 -1.95429474156246
Ni 4.117711750514197 1.275621969637401 10.884449629292648 -0.3004411177057406 -0.24111471203128151 0.558129160714671
Ni 8.262391009738458 4.069909531025019 7.47434607816197 -0.9738837409834518 0.3106741082876585 -0.4676186161279237
Ni 6.517474647439774 1.8812754371469393 6.779589684244709 -0.4849625067230099 0.437261343992305 -0.9070175752885219
Ni 5.246809322705468 5.344812740478732 9.430520060268345 0.46335469864524714 0.9535347450134544 -1.2226081470411911
P 1.2186905623606001 1.2735963727560982 9.716807842160016 1.7104063234407831 -0.6777013985540651 -0.4569459669054259
P 8.604371504408547 7.778030656863245 8.904667642243865 -0.9107256202677284 0.5338512620039129 0.48528363750785464
P 0.7576133721629613 8.756300605054099 12.758241559436176 1.9364515427334523 -1.0815846813065566 0.289026962331528
P 6.8642904378910385 7.133694823104311 1.2605653439713114 1.346642534416997 -2.223396425724971 -3.6670214856063037
P 1.582961957272861 4.52747973159913 7.637839750126626 -2.537262815697682 0.15717359313193577 -2.458675762021398
P 8.312284167943819 5.535825592930802 11.53617002384789 1.4693075522491017 0.7131689953330556 0.6800359602245127
P 4.032431321446997 3.6632872925622015 10.322884164686712 0.5483635966874748 -0.9581138797437045 -0.6355720734841828
P 2.276882909158433 3.3003694070867557 2.8164869830609556 0.025463948599059375 1.192983639306539 0.43749531437998207
Ni 6.385568151911249 1.0842450698195665 3.542966837812815 -0.37917703825506305 -0.5907978545922857 -0.1647138673730389
Ni 0.7650296704219247 6.130660319493659 12.851689717863467 -0.8007255994978016 1.3210088930092927 -1.7631903000110343
Ni 0.6873783673044425 2.597356605604921 6.638583871481649 0.2545258432308649 -0.04827246185314267 0.021471282499898506
Ni 7.634838692996032 3.162862182854168 3.289576802874026 -0.21481849733891392 0.7750238238563234 0.32034068484314504
Ni 1.5100684731894802 4.909570778338152 0.8807724629105237 0.11105751550016357 -2.483443970105013 1.678669911569451
Ni 8.13807350160394 0.5883621510905278 5.570730267669307 -0.2648794185510471 0.33702303059483246 -1.3582322961371254
Ni 0.22747919704422498 4.5683370474952705 3.14495011900379 1.4544283211444242 -0.014040280143150013 -0.2970040669997337
Ni 3.2008724616590754 0.25683821691092346 8.816219067639732 -1.4275286685401027 0.8585419962856375 1.3457323638979017
Ni -0.3505272066724902 1.2108122039835514 12.903550598753526 3.2930725285194 2.0512037334763837 1.476308151936651
Ni 6.1242101469361465 5.550070112934803 2.610572458436942 2.2693772633304596 -1.7699109065643195 0.17387805037081022
Ni 1.1903322060223607 5.923974761218052 5.657142043934727 0.5095173132442385 -2.063675383580833 1.0326169931586024
Ni 6.483935617050276 4.351402155691228 5.621143360189363 -0.09731111244834853 0.4670390894753698 -0.0709886725037358
Ni 6.839693904332361 -0.09250816945979345 1.2070877193953495 0.3023627602084857 1.3507668409980156 -0.9844049522297497
Ni 5.966129579263966 3.533947797689705 1.3370460947896445 1.0455303587861606 -1.0712514177013488 -0.41891883692937537
Ni 1.1968943931539546 9.312098252549635 3.441457363870808 2.43257083740423 -0.13991506316180422 0.7231479609226383
Ni 0.8354317636867813 7.975185641794105 7.527436319002568 3.0663981602831645 0.5247518708058059 -0.48556157375958964
Ni 6.084463642232979 2.494303197450161 10.523443459214857 1.136787037510313 0.9433878863874399 1.498254060080123
Ni 4.016851961101862 6.607786397792791 11.29978940198334 -0.529602771140204 -0.5497895305007241 -0.379814671839062
Ni 8.571028499523694 3.608250798496942 1.029133899371586 0.3053277563740806 -0.3215352193718785 -0.24189581317168019
Ni 3.419375557500255 3.2828484607908783 12.378995682878818 0.0988514603522749 0.9626007118704647 -1.6842193806327703
Ni 4.911521698836734 3.986131964160076 7.3708287429795565 2.4484949648336545 0.8110768608251386 -0.26824319281695735
Ni 9.033639355931461 6.54197783552005 1.2938803452126466 -1.171139546848254 -0.09066918165179869 0.511875271953454
Ni 0.31884855166752557 7.841384233054038 5.011268810146529 -1.5454399737373061 1.512476631437408 3.1711307620065643
Ni 5.897810023622237 7.447316961436162 6.743439780824334 0.1398325307503269 -1.0853675453877567 0.3776441465503045
P 5.534798792668391 2.9680595039790143 12.920013940779118 1.0362910995760797 -0.14826137824397048 -0.32235334439779967
P 6.082288692586234 8.843952009272686 11.641655081714998 -1.8296574304953328 0.6558639909639994 -1.4181312864856028
P 8.234434038957342 1.3124374263187755 2.299337163987806 0.6979100122914561 1.3155681816096956 -1.039142967202578
P 3.2345515102661744 8.028196538978062 3.853518843360055 0.9776457791290454 0.9387709564407186 -1.6591436686110652
P 2.896146147418845 5.628769685774729 13.04115490228365 1.106000905367392 0.6141702107696391 -0.2850008718912705
P 4.468130676431742 1.7585354675973977 1.626125839940291 0.883204274919008 -0.9178254645373031 0.7726134146426178
P 7.295621224486615 1.9653703786384462 8.798048436814184 0.25475210030905804 0.45992561835904017 -0.05082119641692538
P 4.8878679546099075 5.10039693983342 4.323097939730461 -0.8624570150693277 1.1258091983425709 1.3209070773241058
Ni 2.2321237522651294 3.6769717396957953 4.9637382259994975 1.5663738956764959 0.5262587943686357 0.15034731423872172
Ni 5.201751460281281 8.753593586180468 4.977400270218276 -1.4790440628105754 0.856137500609203 -1.5113101219331326
Ni 0.4909860149321195 9.09665688840001 1.2485424463532562 -0.872858927128942 -1.2221471482443726 -1.6922875023528854
Ni 5.780568102750517 4.797714891570173 11.616038282077396 -0.8043963634811695 -0.5777201954727211 0.8588757254759725
Ni 2.4264130310090763 1.3093290218880205 13.0208942661967 -0.8746206470150549 -0.4263907198263882 0.834359485502163
Ni 3.917765735779146 5.621339385694005 2.357441923928108 -2.3478200781193954 -0.09106204621484318 1.6977217859945795
Ni 3.4756255427847287 1.0424916373307764 3.8925792587969745 0.2710593221095138 0.2922374988490257 0.3377817631377279
Ni 8.951551342225576 0.6456604060974449 7.750032614071634 0.5346768432290018 0.8036880245602352 1.7875620439871795
Ni 2.0504081094618036 7.10256410605756 1.5092059609690547 -0.42363578278907044 0.6570274151444813 1.3817242086114785
Ni 7.193557278402905 5.423157600500733 13.389633175705237 0.942546364322751 0.7554587572402022 1.3210711137057958
Ni 0.6341527755201632 2.1284822675964423 4.3418827838038885 -0.884345844722619 -0.050685956390641745 -0.8616088081364194
Ni 3.008879481683794 2.979653012396425 7.52459488264004 -0.9318076377490081 -2.005624245074372 -0.5257839116147461
Ni 8.382339949483809 8.703523071566144 3.1269577780419873 -1.6623948285585113 -1.1185412039262477 -0.0715885108712638
Ni 1.388093936562827 3.8284061093058206 10.92513518950853 1.2316977680472851 0.7832246144995608 -0.36379592781330244
Ni 5.448790268869662 7.329300273093713 12.95300690011997 1.428539112082488 0.702922377904383 0.7437823493435385
Ni 0.4117926445114519 5.409603837036901 9.278255849355334 0.11305037756047627 1.3507154189347899 -0.21890089493840365
Ni 8.150843163049203 5.931171697602773 4.456521299283004 -0.7208568508956166 0.6520682713669931 0.2541044394227301
Ni 6.079404317303641 7.800237546174855 2.9014519044111604 -0.5645198947323632 1.6786871379606314 4.67166256237727
Ni 4.976191446272981 2.0452554390540656 8.611397618567795 -0.8239529454568584 -0.856227746330164 0.1408897683702477
Ni 6.8609580043121206 6.938313402263072 10.74804761552433 0.4530620584699875 -0.873751099925908 0.12492527462119131
Ni 2.987998098165479 7.661143448809449 5.959032522541135 -0.9759969306717127 1.9609736962445325 -0.5596967623121071
Ni 1.1287801975647078 1.8594792679402938 1.8300185015021384 -1.1393013192917347 1.6844831758171186 -0.4285825852713845
Ni 4.254826923737501 8.02817786988238 1.6877422567780405 0.42176530523923494 -1.366921082160375 -0.16579321648014672
Ni 7.933814925766758 3.374607066059111 12.253714849407201 0.4693821357862497 0.0459407283961725 -0.3284861967684149
P 0.9914223260975614 3.396860628109922 12.87338507395344 -1.0129961336038813 -1.6576894526630417 1.9506435179631179
P 0.9420238989277252 0.38327746776949895 5.841334142280034 0.9185014075584053 0.6954273550789184 0.789613291634724
P 3.853628057569784 7.561403805137926 7.957586285296371 -0.27723871144734835 -0.40788160527860723 0.15857741545799786
P 7.216202891462999 8.106392046234621 4.920839444490727 -0.1918019818390826 -1.4666899121205967 0.1378826061128077
P 8.092343551735263 2.9688996132846235 5.437087546242522 0.7169490312007782 -0.576551886196233 0.19096663042198078
P 6.710541100416667 5.724308782918204 7.714661211941124 -0.9607263776658874 -2.4483360706582866 0.7200250990229407
P 0.5309537484190975 6.913035446712066 3.2833058536350435 0.7543210440913332 -1.9462261056217127 -2.572911675249543
P 4.315632168367945 2.0105682592802347 5.689863367933432 0.4428244399023793 0.3737368410760983 0.8625806851313853
