# total energy = -340870.9964016454 ev
CRYSTAL
PRIMVEC
9.20908647902630 0.00000000000000 0.00000000000000
0.00000000000000 9.20908647902630 0.00000000000000
0.00000000000000 0.00000000000000 13.47842893078126
PRIMCOORD
 96 1
Ni 5.6843637572249825 8.127055473265672 11.731192545656622 0.27990237432244053 -0.9348711071656803 -0.05107342163704752
Ni 6.85767502123946 2.3186821602732426 0.5626816177097939 -0.7034522822659239 1.1990545280909672 0.012574751341217053
Ni -0.009575607907841377 8.164370690848452 5.273353948632871 0.3642602690442307 0.320738434502196 -0.7051962615402242
Ni 2.88442395735193 1.447189489807133 6.024224165263159 0.9383760349951452 -0.6381884280611074 -0.9511194507037424
Ni 2.5202690588139696 0.9598262260075738 10.895059082848666 0.8584633205289022 0.38837670247646017 0.6019996368453762
Ni 9.341605025615708 2.182608701486683 11.090859912483356 -1.1720281201007945 0.6684899072581262 -0.42218850881958264
Ni 8.519482266665214 8.549540724263979 0.35587224634300735 -2.174170084598991 0.02048063645185505 -1.0492420033097931
Ni 3.047737893337368 8.339306493711844 5.007250033472837 -1.1300057529224214 -1.2155496975325129 0.5189630320381707
Ni 5.9580946376372514 2.1201895147206233 4.9438473162927 -0.7456965356471158 0.9574351085091253 -1.5017242780169104
Ni 4.571629862721738 2.372454015027893 9.821030057046967 -0.021435287055640503 -0.11447682559435769 -0.4263053592014336
Ni 1.656742247974983 5.319205068283141 12.44506433727196 -1.0154386816071028 0.0018653353435129165 0.8672490371413323
Ni 5.799035299510462 5.072548901516818 1.371106781736145 0.746188901902502 0.42368129131502513 -1.3221643467699744
Ni 1.219310649953762 7.768637835476495 9.195644691805242 -0.6462205543369645 -0.269580166460826 1.5215091739533217
Ni 5.573127204119754 1.4391960029211872 11.671106020443801 0.23385674491728758 -0.12469798910173363 -0.16008022525576945
Ni 8.369466251259622 7.693556155083506 8.338726321276573 -1.6639706576860633 0.39219504778128583 -0.007256938672729437
Ni 3.9508821933276663 3.2513139545133076 12.255544104476229 -2.2071938478231794 -1.7662293439476742 -0.25800865957314273
Ni 0.42533822592603204 3.5557295103909805 2.3837682984242905 0.32845585775111175 0.3256800947781875 -0.06781336009954773
Ni 5.697974786738148 5.189780569786505 5.999491322256725 -0.44202662659143227 -2.55696620766388 -1.7830315031066775
Ni 2.9223746018876238 7.934594779222609 2.5157759456208204 0.9587823665656391 1.0527423031535676 0.6441557013881358
Ni 8.203297498529203 1.6806398268563527 2.6169174983523464 1.2674854671698559 -0.805733337125038 0.05833858783989308
Ni 5.3146005251460755 1.5680403289825535 7.173880049365276 0.0815520498418789 1.2037737879435075 0.9437866644877552
Ni 7.334751735670815 0.8559357610232203 9.743273137091343 0.38913183547492985 0.46618908277024873 -0.17544873729203977
Ni 2.1678649543617996 5.501563394683482 2.6225110973552535 -0.051522593359324166 -0.4118051087027295 -0.19612400625320417
Ni 5.16312947410917 -0.09564833276900643 9.47790963246775 -1.8779833712942302 0.7382881589981866 -0.4538436738310184
P 1.5567684073830172 4.761410712659029 8.314964115963432 0.12115629449706232 0.21293285028042686 -0.06267475332140174
P 0.7447470951666177 7.081345308665553 11.19584349600845 0.011231092829129045 -0.10196660894248889 1.0749167823680779
P 4.340896206123387 3.2670891193008935 5.956751031949855 0.04085945721852318 0.7350141162326052 0.3236633214584749
P 7.126350113287232 3.6116839185926004 2.4359432976190067 0.888906724620424 -0.4519045478267766 0.6815619099507358
P 1.5846535206210857 2.5064462203164988 4.737330793869431 -0.8421298734762013 1.5761039784800661 -2.18173324165823
P 0.7700518224306749 0.40420521474415627 1.444631205640179 1.9642747355933072 1.3776868053173112 0.5110442914117262
P 6.505639280238256 7.50340694169525 9.746386729160626 1.5522228009870944 -0.3032284506428907 -0.6243821183056343
P 6.723157898033229 2.832954374165812 8.770238318640782 -1.2959990012285165 0.095634496076874 -0.23287124107556667
Ni 6.901666826370985 5.573265340413866 3.5633463456483145 1.463593789693776 -0.0005057359918249354 1.2031196992992765
Ni 2.267083649879287 3.446104547383726 10.00544200968644 0.18299955305610419 0.00642338702784055 -0.5126250056352849
Ni 3.9641616957349632 6.222137559289134 4.195147681297226 0.37088960143529026 2.0792195019630193 1.057807890601933
Ni 1.7476911840183003 0.5480069387319662 3.855679580334328 -0.8206171962154062 1.3979838650034504 -0.9015128434202088
Ni 4.041103611555328 5.602679161973441 12.583016449658443 -0.055210840844188785 0.2827475570807195 -0.09525602969153273
Ni 3.4394555870938035 1.2184818321890902 1.1580904862205943 0.8931986671275585 -2.1073028904627966 -0.11563845000262665
Ni 4.484603997431201 6.671430460431435 9.795596402575073 0.7066977857864152 0.23729199585108166 2.25804126949235
Ni 8.52604834517867 3.1154615137973276 4.584283147262394 0.17024919536897132 0.11669183096780548 -0.9826684291546172
Ni 2.2358372201511605 3.0114448843310186 0.6759174634451356 1.0213118525584282 2.878117561333779 -0.020584509019571002
Ni 1.461408319014391 -0.12635695185872353 12.854902750090003 2.19658573329003 0.822556579329964 1.3294536813425362
Ni 8.151201697476443 6.174185847059734 12.267095061389872 0.26731939545110733 1.7845484539718364 0.5907425758743181
Ni 3.1888579314021515 5.325715892278952 6.8974509066746865 -0.10690209857089332 -0.5369633252703333 -1.345130468647845
Ni 6.303997127179884 7.536495188678202 2.4685876666435465 -1.0073047396460586 1.1302633774591824 0.40866861995627685
Ni 5.057713063529192 4.400451367058191 3.5382092237544467 -0.2495042216465574 -1.7866924968980327 0.30026371158761195
Ni 8.899992502426032 3.2243773771614745 8.73266064209919 0.3180454610510652 -1.4080247941792203 -0.24093422058935926
Ni 7.457748291948108 2.9922715667082778 6.664773211963866 -0.39288333209756204 0.41210232822817416 0.7225527505408007
Ni 3.0736983075441437 7.5732578610845325 11.792883293698399 -0.5329202655492112 0.456038367489492 -0.20776364737466152
Ni 0.8953580175455201 4.023228775097239 6.295463987838274 -0.8854745590104235 0.21108165600430098 0.4907978824578643
Ni 8.386014979294234 3.9520149109393845 0.07117794872138564 0.1413944759208081 2.381749383876988 0.21734794862898693
Ni 9.546230922626899 2.0524751033469384 13.659848721321989 -1.3978262563796635 -1.8542148081197225 -0.7400269960661642
Ni 0.6092998542466995 6.394292218097739 6.890792737298491 0.3498430651776362 -0.8207753190598251 0.2897913513013783
Ni 0.4921344913981861 1.6073355001142702 6.274370575727377 0.9553774546491481 -0.013034207476138843 0.5559123555690103
Ni 9.072156370320911 9.10104527396286 11.358986142989188 -0.6292669572017614 -1.2976709896143006 -1.5822856818107458
Ni 5.883740475059918 4.200973349274241 12.520031824995153 2.0211102565251124 0.2182725173257854 0.037729396229973726
P 8.190239014192485 5.021088527416975 5.541049193901074 -0.3116195029200633 -0.6543503825329504 0.3433818829333247
P 4.725384767154629 3.113435514817019 0.9796027387812701 -0.37607474518065553 -0.2510013750173742 -0.6955728795178473
P 6.6810079101565325 7.233543877518116 0.27880508694931494 0.16945035361675978 0.03278619329208547 -0.7869701975849221
P 4.330821465739487 4.680039226340808 10.51171889487581 -0.2907066640267961 -1.055690072927982 0.6391826736535766
P 7.73775056011306 4.317302527089063 11.511345870851548 0.8522415079889065 -1.734333523680342 -1.5062427347125544
P 1.7363271715560227 3.113785460095436 12.005951160097084 0.15937651432052552 -0.2821739439654366 1.851828053055101
P 0.7270030277336222 5.278104916241695 1.0584619863639084 0.31414689732760737 -0.6036520848471345 -0.8001429875214542
P 3.8670610900605262 0.19017223610394146 12.62326291940228 0.18604528186096347 0.40391619287295594 -0.06974991500062827
Ni 5.198022702001852 8.989587702787052 4.710522222816809 1.5583319992086258 0.5606712104102344 -0.15830822095701125
Ni 8.2173597732698 6.426109611174861 1.6403786225744796 -0.2592623294745858 -0.36484236679994586 -1.1668550605402872
Ni 7.653938665932194 5.183582854724015 7.73125354974666 1.0951904450154493 -0.5760397224465048 -1.065001837247211
Ni 4.861237207870608 4.196976605831268 8.380806320097587 0.01795247071336263 -0.629350003833871 -0.782603178865478
Ni 5.956786947386325 0.2544654719267868 0.19949183141336202 -0.37548236301229526 -1.4288435306967842 0.7645956865444639
Ni 2.302741231932722 5.9296477701364605 10.201202319341522 0.16911559598516035 -1.2976406505969973 -0.8804405961309418
Ni 4.562015576651545 7.494612264303455 0.5339078276462716 -0.6777430504252779 0.6500610111289773 -0.6444410938390386
Ni 9.259275794324978 8.370028005522345 2.8893167448893755 -1.765418932231237 -0.8014349668600005 1.1695133240987408
Ni 2.725806655366298 2.9729324855326027 7.63329281541422 0.4507331532264947 0.5752393380323965 0.7365662912110733
Ni 9.09469100443371 5.350718561513218 9.569670809920444 0.27054895813199853 1.5230829461983446 1.695701156020125
Ni 3.8517647977591944 -0.31105806980720385 7.0911364091922096 2.238896835353415 1.9544824320932341 -0.6648708224483002
Ni 7.322116869302707 6.897605619324092 5.765694723563597 -0.1085666307575098 1.3644451098160566 -0.0647923138850368
Ni 3.498808148130577 2.896736505700443 2.9482981797493024 -0.8544721970916381 -1.4975585766749953 -0.48636015840148494
Ni 1.3686175657162474 8.635203644785946 7.0748943437305245 0.4119976843295098 1.187166775514446 -0.44566242357180663
Ni 6.0581421509194096 1.0489517629686134 2.379710775011908 -2.7738436444143524 -0.4622689217802361 1.3042432435151796
Ni 2.6606892063219183 4.3620678954676135 4.617776594041408 0.16272331930557138 -0.5617767847695874 0.7430619262377461
Ni 0.05383723926719703 5.8064854503062335 3.5976483502021974 0.18912597766881623 -0.026620687911321893 1.3977234122532123
Ni 6.390986156125326 8.617881353504306 7.409065378268542 -0.17773650488495196 0.1680107929567558 -0.5286746028989798
Ni 6.498953483603237 5.156683113717278 9.84620769892044 0.5828762857523639 -0.453367248415232 1.4896334082906475
Ni 1.3673375027241432 1.31396163867928 8.833397915943282 0.41722987926272664 0.19483614067971608 0.30380694885418
Ni 7.711946700372945 0.8031538830430387 5.802423322350714 -1.5427171754895044 -1.1012168537151872 -0.1586306372934365
Ni 5.7456686445518725 6.28189532012197 7.917781750411929 -0.9127709328325313 3.172437653743446 -0.11568961495553624
Ni 1.2445067099997844 7.428739670184596 1.0835567464609153 0.6848045852577497 -1.7554561645915703 -1.1935168861021896
Ni 3.2637278028108363 7.212924733350337 8.096033745242636 -1.334344433775934 -3.147534205633547 0.48227647525041467
P 1.6224476106901191 6.605585493571399 4.913817406861387 0.920922101184756 -0.20345422136603022 -0.1643045477497622
P 3.9048183437844632 0.695215103732577 3.2587871280247644 -0.29231411772323207 -0.2733018382867874 -0.12145171425029405
P 2.9081557726803657 9.003742068390391 9.096496906252066 1.2943714929274224 1.7527685904570782 0.5696255913900449
P 8.74520618033044 0.828450322129449 7.987087491893784 -1.716976263348817 -1.4960326269487718 0.10978353388374641
P 7.654601720143932 1.0079621199624564 12.49025792816226 0.15385789849514148 0.6079483982296433 -1.0342095344567028
P 7.201247611954738 9.114048503781932 3.810418763114229 1.835774342026348 -0.18918639859310643 0.3200624914810939
P 4.068086234338531 6.10466645477632 2.0145124869990885 0.13444349852427168 -0.04763945625483408 0.5288047007189408
P 5.078184862316586 7.25103193235269 5.919806940543925 -0.5166464680898522 -0.3041550762222181 1.2394175052890462
