# total energy = -381168.3452880811 ev
CRYSTAL
PRIMVEC
9.30114066842783 0.00000000000000 0.00000000000000

0.00000000000000 9.30114066842783 0.00000000000000

0.00000000000000 0.00000000000000 13.61315954194719

PRIMCOORD
 96 1
Ni 7.483177090525472 7.982750668489155 4.55136912338385 -0.5652367182937298 0.6849886762440978 0.18118461133455246
Ni 4.0205204592012755 1.931251688370489 0.17869165841489995 1.0224675634294262 -1.1398502498166692 0.1507556054207339
Ni 1.911654184530131 1.6776467810562 13.144282074706688 -1.3370407496611747 -0.08538247933156264 -1.6452717957249794
Ni 2.4620305939964418 5.806925480601713 0.03884063421307637 -0.15503237841921688 1.5009730016731828 -1.4652593503216573
Ni 9.40829002591322 1.834054766143748 0.932972328887501 -0.9174220584512973 1.5974161096942812 0.08596894796265193
Ni 4.184127527332221 8.393619265852223 4.297892571813746 -1.1249051984710625 0.7841473834241464 1.9942437711515721
Ni 2.858156883060047 0.8599183780506118 5.163444650897155 -2.0230336988000706 -0.4346701862263611 0.10035169904688523
Ni 6.923118193400018 5.061550652524528 2.08715648173627 -0.062057431452376986 -0.6174985038119236 -0.06136966135673302
Ni 0.865898081524255 4.28467286027682 10.112263615692253 1.003836321481484 0.3728120152689837 0.04683932895104191
Ni 2.222600625387756 7.765699244844827 5.698903890615404 -0.6889124367785361 0.00989771872968618 0.018036031566104425
Ni 5.8451810730532525 0.19294379658983157 5.80951119776717 1.1709001771439382 -0.5264629399596417 -0.6090799407309252
Ni 5.0636806137867225 4.93429244296412 5.98422289799826 -0.6615805817328025 -3.6419491160187083 0.2441444999965408
Ni 2.6715573946664706 7.281398140210934 10.874314459258464 0.4752959301675234 0.33032530685968275 -0.5955500245652904
Ni 5.005167136492136 4.217137276325781 3.522514123476368 -1.2303068012370297 0.08760751200733945 -0.41941197451570994
Ni 6.9500635985379 8.316884853567954 10.464613155076204 -0.4851008320730871 0.6452527911070565 0.3224423045671802
Ni 1.6838692443068881 1.4951304935102343 9.660197475016371 0.5161232485965306 0.020197557993797473 0.5972628934913391
Ni 8.300170703401308 1.9201926318606715 5.67331180147599 0.056735505018831324 0.24896660397553255 0.23017055431495198
Ni 8.93067644157416 4.3888549393066505 12.137343353061683 -0.21260014953135645 -0.40259618850995177 0.80392148072728
Ni 8.689674580156257 0.8403264548947833 12.050777634864145 -0.2496055231111121 4.215612624923552 -0.46606129894313286
Ni 7.705306937091886 7.563250612386717 1.6686060721179805 -1.5540002046024914 0.09174518832479682 -0.2214416590823864
Ni 0.6999108514413652 1.8735381091918357 3.3892687695296098 -0.3825115019449348 -0.47128783744939484 0.384201488052848
Ni 1.03627731033207 9.079141252347677 11.405445878123881 2.7713561021058077 -1.0532410971668569 -0.6258635879471673
Ni 2.908345839264401 1.8305947417352937 7.546183018866519 1.5188138865093457 -1.8799736622513816 0.19770703446960788
Ni 1.8852854501269913 8.553496576489108 8.398121948153655 -0.5632477128881589 0.16893741853608324 0.28877448000108974
P 9.360203127548411 7.158557972569922 5.6360114361931295 -0.22648127838882287 -0.5363382900918247 0.2438526797877349
Ni 6.934056335078358 5.2916143722640925 4.479124371803777 0.2959267747751549 0.7238555285126244 0.7751855462451682
P 3.7668411427599224 7.6356599941604175 8.747163071725545 1.433653293380602 0.7698991010352482 -0.060178212151793135
Ni 4.984546507154654 3.5239511497427825 8.169474792170563 -0.8562585995680996 1.6474631469493433 2.1708798438834935
P 5.608383327314439 6.984170882155647 3.669985572403586 1.4049163304572254 -2.00587672740481 0.8589662283072498
P 3.182562074775289 1.22336045805156 11.480209378655054 0.4188126503688142 -0.5932928530999976 -1.1423889570781227
P 1.2631600398896676 7.493575766032601 1.3102833400590037 1.805048887918033 -2.203316367145644 2.0731663537904037
Ni 8.91366465489926 -0.14357241066908855 9.376241084772868 -0.12207186433279622 0.4321397064950235 -0.2936958285621071
Ni 6.3848332670815315 2.6471139964260995 4.549409372999815 1.1821328126349642 0.1665637760975841 -0.33183994373199627
Ni 3.533075568948948 6.173762477024935 4.1571188744363345 0.2837680279254339 -0.3712238448462574 0.3109178488673484
Ni 2.1197207060815373 3.9530685855181824 12.259752877879814 -0.4354831690459597 -0.462402619144623 0.41369512663659075
Ni 5.303212894945121 8.92314251745898 0.32624774772415244 0.39809392976422403 -0.3794498323004755 0.059217905121052856
Ni 7.974416846258039 4.578793537277204 9.551768495059392 -1.8479498010466173 0.42555793951244775 -0.13012970164026622
Ni 4.686603061251382 0.42284567647803206 9.555648931035755 -1.5181340868335016 -1.1428784951200317 -0.25880210200871556
Ni 0.34514673588420175 8.875176533925648 0.27518448427680237 -2.0713056464325814 1.0226305713698516 -1.8695236705626512
Ni 3.136930677603577 3.672183431994225 10.146949430272919 0.1203826495558314 -1.3700282603307887 -2.0275408426418045
Ni 6.0852156158193305 8.381509180422633 8.039456003996097 -0.7761916189121794 -1.456637412980601 0.27025199571687003
Ni 3.7248092871099088 9.028171000309156 6.849379678594144 1.8659346676598123 -0.8850310437151016 1.6579835868646928
Ni 7.050181079001885 3.5456135068591537 6.9891460624139325 0.5980450230730023 0.2037874363357329 -0.01312033943204192
Ni 8.325404698616728 6.638298657282577 11.885663781910162 1.4639866542568207 2.019203012200071 -1.07538086648869
Ni 0.31479618306907453 5.787616312128726 8.142984212821858 0.3220823501246001 -0.202827900635941 -1.3092052155061453
Ni 1.4500943693550303 3.610005305191759 1.6784885343061062 -1.3729606034862356 0.09226403694274433 -0.6967879828718709
Ni 4.551569097912834 3.0383571865261603 11.861867743075244 -0.2517752770689212 -0.3899754144221477 0.5477894693515598
Ni 0.45284557628187233 0.16105576518675413 5.3778647817857 0.6323738782618593 -1.0815903377335117 -1.9173652155259622
Ni 2.045739431498619 8.283279831557884 3.4040389812517207 -0.4005110238461489 -0.7269102561785481 -0.7121549522462445
Ni 5.099285381086624 2.1437641552639417 6.592063616067562 -1.0102478814347826 -0.5519914232480494 -2.132443651394482
Ni 1.8055467693375316 3.5833110308577165 7.9000160902213 -1.7508754871994234 2.339069328509959 0.9158570279570227
Ni 4.639009123353369 6.745884953875564 1.7781511889809152 -0.17009210096581676 -0.8041500517983182 -0.7238645273736889
Ni 7.4150462335579235 0.8062312627601839 1.3941917223062859 -0.04835602270588446 -0.9223752886915146 -0.22213482849466906
Ni 2.2183314017224856 5.727214703234902 2.2678841598904462 -0.1722248310381034 1.2093381694051624 0.5630301975607142
Ni 5.417263484451752 5.980261542096215 8.437681560556983 -0.769726837123442 0.07000985353023427 0.7404555989631506
Ni 8.508441850052138 3.741281607613599 3.487841330492938 0.3000747355052574 0.11516536702095004 -0.00034504204424456704
P 1.1756084007585372 6.1185788081664425 11.773981262872327 -0.19952506151495317 -2.0786608012460714 0.8393744222182511
Ni 8.672095423887498 2.1965388286337535 10.075453420533924 -0.7336887125529623 0.23265783951317995 0.4346023091029031
P 4.642794687692726 6.717246741096986 13.145439136632527 -0.08075243675871899 0.14846886626908626 0.0514688573032533
Ni 6.034831335656435 0.7514782367245707 11.890455729693054 -0.22047775250722026 0.7732726454931715 0.3821024394319742
P 5.570518382779983 4.443182903203914 10.111392098791523 -0.1769533468620243 -0.14965697303991646 0.5158915922016987
P 4.124869958766999 0.806408914551048 2.0049464878142134 -1.0192058619590187 0.578653763030584 -0.6783822266711736
P 7.504951061332438 8.831637893452598 12.810282756170693 -2.047883667964215 -3.5722130849751506 1.9911713028738351
Ni 3.9937982814445836 5.311258381808865 11.48644393338889 -0.11715848619157888 0.7142478302195312 0.6883959021534338
Ni 1.6066418715558228 4.593126595377817 4.121724312920388 -0.6812544060126461 -0.5922968077353153 0.5641216308526801
Ni -0.171675807846897 8.88903523384123 2.7931074940670175 1.0679228675487478 0.5675275712104354 0.13552978960991496
Ni 8.916203866360304 6.400496388328405 3.4786527334146795 1.0721209647904955 -0.7356959727909782 0.4893760624096733
Ni 9.256625622675973 4.518317519256317 5.90473534801264 -0.6195507583552621 0.5353396736239813 0.2729956199002782
Ni 7.317933021599129 5.951716340726467 7.116156861626856 1.0148342152538845 0.4514183522189774 -1.0268772624613478
Ni 4.442169078847673 8.391842747943581 11.647011388679289 1.307251177103568 0.47626523605932813 -0.6075344506206762
Ni 6.074956457425444 6.351098029099102 11.429227965247474 -0.17429996839957726 -0.7856548212076082 -0.6017404696467185
Ni 5.841674542940383 2.2059143786437585 10.132342918630348 0.7412102177409879 1.9595999558254573 -0.4356533760752368
Ni 5.871959057655242 2.5055413310468433 1.756056328813487 -1.2952176429778017 0.6790106042837918 0.9860859394765985
Ni 2.0491715524844247 0.5543145125161486 1.534598024618821 0.5102215384001149 0.09780707824816058 1.5334205806789267
Ni 6.981808392371381 2.9683940048046726 12.005336911080532 0.982943537192875 0.48506380818756467 0.8432112794658381
Ni 2.51289853348525 5.596970827451069 6.3246195412335435 -0.3014685305289905 -1.5046663913643699 0.6006230682128236
Ni 3.6107586976032775 4.004708519700275 0.9679157850706248 0.3686972217696618 0.4039167070935882 0.8651109077524067
Ni 5.623060527627721 8.950943627558091 2.735727825846062 3.382598854816007 0.2745537084160175 -0.23242875422150935
Ni 1.4708545158057564 2.5352305727451934 5.788301806211798 -0.7548118676848226 0.8171495493817799 -0.8956098476722124
Ni 5.3150253438664565 6.995071819270455 6.112758154201897 -0.0323637610426862 2.949048641126702 -0.6709052015678381
Ni 6.649190293256502 1.234224190602836 8.326530136663564 1.1894892530000354 0.6832791497521588 -1.309082573885352
Ni 0.4729937076625007 1.1203410216320973 7.470765648131274 1.384472460780577 -0.09860129201468179 0.9252667513066969
Ni 8.164560069328017 8.891779070401698 6.9941417051821615 -0.7728144749098304 -1.4918365865895533 -0.2449698241113136
Ni 4.453330447907203 1.6097019469063105 3.9719657134500546 3.2291729016519617 -0.9119108988250811 0.29445970331132515
Ni -0.20446884025788467 5.7208062171665555 1.1518774699097996 1.6198348437091135 -0.6093519634453892 -0.008505980588482126
Ni 0.5333767142745585 7.108471328915281 10.001180090127281 -0.7457459008278123 -0.20554864200121373 -0.7680124255354968
Ni 2.7969274726276416 5.763163612747473 8.875140259476204 -0.5240327332515943 -0.5462378085937238 -0.14414735607559692
Ni 2.865337363821678 2.743976077581055 3.1860509327204807 -0.49670884862566067 1.1365119294720556 -0.5260662187418553
P 7.554172698884966 3.235997129147789 0.6745726834480553 0.6249505892145947 0.4404649385312673 -0.7788334274104006
Ni 2.8611983561287695 8.40230653143689 13.307531048913642 -1.0698205987920928 -0.1309074603465552 0.560314341291448
P 7.714691788242774 6.97279558685581 8.99147892964004 0.5701403262429342 0.02517804192752438 -0.220287233762969
Ni 5.6529636955663785 4.410768427226861 -0.05714248912844082 -0.09072111793565667 -0.2535825054809891 -0.1322374920118884
P 7.775214311968075 0.9760431219741393 3.6698627973439306 -0.4593198664542412 0.7136117392974292 0.6462249252123388
P 3.3090947953468284 3.6059779111894454 5.336794664102982 0.7204542161405593 0.5569479959223763 -0.37527718898002466
P 8.877594830555212 2.8594032359383617 8.069948864266733 -0.7450756142336652 2.1177803929553525 -0.43087009575398055
Ni 7.166510448024837 6.095623592467342 -0.02469452904421029 -1.4749858335808017 0.19242753123822343 0.24663101386382041
