# total energy = -381169.90083908493 ev
CRYSTAL
PRIMVEC
9.23121602476805 0.00000000000000 0.00000000000000

0.00000000000000 9.23121602476805 0.00000000000000

0.00000000000000 0.00000000000000 13.51081775786017

PRIMCOORD
 96 1
Ni 5.477314281863335 0.86564158131322 9.916264470403346 1.4361187242019589 -0.5964265136329728 -0.22799797214366538
Ni 9.167797482328105 6.093682569897175 8.121217606821912 -1.448951871410885 -1.0813131728127248 0.7721835261940507
Ni 0.12828159225194338 4.875632858383364 2.1763763933089084 0.8569880215349563 -0.29364569205046204 0.4637560478487239
Ni 1.2743139726425554 7.698123286836064 4.360318691198805 1.804884594426027 1.3849882240747309 -2.273491285498833
Ni 3.1585251509479497 3.1928560430132165 4.672324558613149 0.7334071767568014 0.14186061692394922 -1.941645942450198
Ni 2.3571540643446 4.990847664478173 11.67995289345084 -1.8926137196128954 0.031244559836578447 -1.250543954219511
Ni 4.097745985120707 6.61843103976813 3.6681731977911114 -0.7612527382141598 -0.3837343186084423 2.1983705931045945
Ni 4.851474766279357 4.728025715569809 11.829206885187345 0.7517869648155697 -1.017746246694357 0.9056836869684467
Ni 7.119972232776465 2.6233546382854693 10.451874388944368 -0.3551665342730786 0.06958510728798983 -1.4145160583305187
Ni 6.9582597920129965 5.674345354797202 10.51040306734217 -0.4560689636171113 0.3618308336671317 -0.7583569047236036
Ni 4.017406712831378 1.8805463855788793 2.5162005299458077 0.7594066861443567 0.46916282068659204 0.4786931287745305
Ni 9.104369797633174 0.982607549071051 12.976208543251218 -0.4639187986788333 -0.18571360955315758 1.5322139619653354
Ni 3.0945620557287428 8.224948780292575 6.023149618296454 -0.20418621443604837 0.19771911865446593 -0.136975520917506
Ni 0.42338325704463753 7.072182227876793 6.214719503882698 -0.5506966156960258 1.5370232104285204 1.4762734420439736
Ni 1.8216973839881088 5.098151318515995 4.141362557295802 0.439454752099198 0.3596808772036644 -0.41808117151942836
Ni 4.991752323639882 3.4673185552166332 0.6906740375875257 0.8997552372991536 0.259796604711501 -0.01382919257360844
Ni 1.095542244829715 9.189223134515114 2.316645642575091 -0.5446910329318942 1.1989311151392255 -0.004311740001476445
Ni 7.114498121726532 0.8674296678399858 8.241841905455102 2.273469945342594 -0.6030414478463292 -0.18559970968311262
Ni 1.4053049267716582 2.614649601658003 9.470880456418898 0.4388040058890766 -0.5316254579971877 0.7447958782097173
Ni 4.183697836699007 6.644684617889565 7.9672344631614935 -0.34524644694588924 -0.4965358133829061 -0.5189979990411642
Ni 2.577881668585683 3.024746369606233 6.766055721891964 0.4331442365001379 -0.7692817791662235 3.3346871187363925
Ni 3.3576424786833092 8.430251022704924 2.635582306914039 -0.3694451556792799 0.5679772571533445 -1.513238192193781
Ni 5.252691104497341 6.884723925868358 6.073747759083799 1.49948021917774 -0.08049532644259041 -2.015633806791574
Ni 5.362044088472913 2.076663568135101 4.893685424267429 -2.3220177723443105 -0.8635232515503127 1.6253393184671105
P 5.539135734985436 9.311804450926696 2.2435657984976807 -0.12586012773063485 0.44779798185757075 -0.1832684904467747
Ni 5.268494946179443 2.0044569970852177 7.729282333105788 -1.0139397284640732 1.159474708915816 -0.8321539932104121
P 7.332973309279279 3.6521090358196195 8.105369455303318 -1.0908419382387664 -0.5883753611937221 0.14211361347501977
Ni 0.8553801616789768 2.6686429836665386 5.380128963612752 -0.2805420647889685 -0.4417072955788005 -1.3793451668563406
P 7.262197576699445 2.3008344159202405 13.098561848629185 0.8035211599650678 -1.5997028488459288 1.15609139426588
P 3.2592284855916693 3.4126328320129122 10.564770313596103 0.2636571161081718 0.05100862983738313 -1.1863944161247955
P 0.9879062670182043 2.4690364014865818 3.220249676302724 -0.23730125182246226 -0.4431090610223337 0.6855226943706968
Ni 9.222750910793966 2.7541701993117917 11.607413998627269 0.36129861531274554 0.7928832206352474 -0.16796091355542686
Ni 6.50605944818155 5.311909354725543 3.908922386275367 -0.31573275375748855 1.8781960015256685 0.7398902133779839
Ni 0.053691521247434836 2.938452963038309 7.651770582257596 -0.18179627677662238 -0.37444003779070995 -0.10404637428965306
Ni 6.932135450914663 0.1809253704906641 11.696004131720024 -0.1350711048059416 0.7498352404058377 0.908877511315396
Ni 2.4934529676367916 0.8507128589018327 4.016562979694846 -1.026668231774335 0.6513658459833297 1.692190314653389
Ni 2.0349661657530604 0.8639098052036625 11.715337990375978 -0.3568560061603596 2.3939207291322 0.05017276419964908
Ni 7.257000402127586 4.215388601006634 12.296491958979495 0.4031975695393766 1.071218250470568 1.1038866872378665
Ni 7.697717113334889 5.91840024170807 1.243434632215687 -2.176425199181755 0.6168950658999699 -0.651740198603613
Ni 4.05139604990702 7.686251943142616 0.45947361886726906 -0.07753315849047293 -1.227268271521022 -0.005387232453842335
Ni 4.062251959847529 5.943832241611219 10.129830497321429 -0.8852447023878045 0.0913762350211523 -0.08415786289584215
Ni 5.411237238194828 7.066828122634024 11.994782589819948 -0.5218521806605078 0.7833958499701025 -0.7755352162751031
Ni 8.802315180997631 8.044700057930006 0.720340396240429 -2.1957375263571217 3.116192458097472 0.5983612687618405
Ni 7.541109534983922 0.795552651199011 1.4140561194788033 0.13139159907182532 1.385504501589517 0.8835809415321363
Ni 7.803543772822981 8.43950993228854 3.4989640865661733 0.1960414738417269 0.3492581392084437 0.2137453188793932
Ni 0.9579878961702534 3.870390367837714 13.532705010968598 -0.5876287128356847 0.4759680165338835 -1.0954820081139391
Ni 0.34128728436272426 8.592452717912991 11.42215364913315 -0.31669228945728034 -2.3009357548630307 2.6167842082627772
Ni 6.114166638058732 5.450506830785752 8.111760226095676 1.3467330372482742 0.42910349077186105 -0.10666658552131952
Ni 7.824840187986888 8.108026199249643 10.0935675117608 0.2546461708588131 -1.8578621750643232 -1.0775079401340217
Ni 3.3583255886625585 1.3401971607764107 9.83756373894262 0.3301556140510379 1.5023624258215418 -0.7522150534919239
Ni 4.2092775360571295 0.7849349066296456 0.41233256844788285 0.006411045732666379 0.7897043086866335 0.8253174299045529
Ni 2.3034745436778814 6.150269923583673 2.039863325807006 0.6712013926520182 1.1644323100314076 -0.035168063260700724
Ni 9.081790243454192 0.754659287724979 5.41468971295482 -0.7429500832502302 -2.3285632867723125 0.20395301537931973
Ni 4.195393787289675 0.028776469436691474 11.808616658042528 1.2578787973180272 -0.2484438987028431 -0.5600888555442031
Ni 2.8378973278495616 7.332770222528691 11.698368246121184 -0.5831750479397053 0.4714012230988075 -0.13638596696262317
Ni 0.811164483589648 6.639293587783055 10.16436355301569 0.38834790612105374 -0.2949764950467436 0.7336352336072075
P 3.647696514602304 1.2002150023258316 6.30044519067057 1.0851518298325247 -0.8571677416459303 -0.7064869553271897
Ni 3.322471545967884 2.8515226025708134 12.666134769332237 -1.9579351665285247 -0.34108331670713515 0.734618166345767
P 5.857492678963615 3.48872574497177 3.46099886478698 -0.488943345747629 -1.4079060092131688 -1.8251934811867083
Ni 3.2625886481923034 5.169517848915719 0.17967638697454938 0.7187387761113493 0.19683491627729974 1.03609980950088
P 3.452493222423727 8.328347629989551 9.61490588744936 3.7539371137529414 -2.2133441836952916 -0.12583235981649296
P 0.4461668210958031 7.059323144078213 2.3152951156836825 -0.8878176053213033 0.045040842289722424 1.2287456273974966
P 7.444883340069069 7.232085350316843 5.5214930350889215 -1.13941187672767 0.645743871810862 0.13531227428247017
Ni 0.8872177023199819 4.726105622655162 6.196817406818387 0.126362264178034 1.2717118465463777 0.8893422694959459
Ni 1.65912644014261 9.092784621633736 9.695997503837457 -3.3653511234791527 -0.09142894263595866 -2.2094034538799887
Ni 0.8570380880610478 6.661679286427387 13.402744260537933 2.06081117465916 -3.404932742426517 -1.8084404300980856
Ni 1.6440241708716297 0.7906776460633111 7.251471826903631 1.684866527298466 0.9617627893502017 -0.39390020339785065
Ni 1.7863695206017751 4.80937119039614 8.641343083752213 0.9842627702249307 -0.6633721264155865 0.39760310617073463
Ni 5.036200628370793 8.848674347427254 7.685439596140265 -0.9211930954579555 0.4509632669594298 -0.04609962257153996
Ni 7.298494717759039 1.8174417934417018 3.868106565015196 1.5966026126540502 -1.0403878953532726 -2.076203855065147
Ni 8.77812016402988 4.280597910377175 9.871409069049665 0.46838069110492886 0.025385015732007896 -1.7802667958773468
Ni 5.17953371820607 3.9093091742230768 9.478216503723084 -0.2715151787000098 -1.4070740002301767 0.5084089106714083
Ni 5.957642140651186 7.168039174154213 2.563042488968873 0.020096513639558937 0.538816319318672 -1.478177858155538
Ni 5.473815651023665 4.116919220619379 6.259169654856796 -1.2767149561879239 0.20108932067827953 -0.38650416804409565
Ni 5.738723854733521 7.5022276534623025 9.577967176882227 -1.0062351607309639 0.8485594311516289 0.06711402003967797
Ni 8.708230628179885 0.9431164072976682 10.129533252168295 0.47480613501529845 1.5093861654375424 -1.1875645251734968
Ni 7.651034854347512 6.886339388657124 12.533620664573727 1.2380152256248806 -0.5768858724968838 -1.123588279431852
Ni 7.352488099767575 2.431317653172874 6.037646319802046 0.7703953239453765 0.27300487587165884 1.5741782222122631
Ni 4.713440394391234 9.047727056651063 4.409269059941609 0.6767899424833893 -0.42841726333811375 -0.21705278598607133
Ni 8.45968013910828 3.9942917481281177 4.141457638819941 0.4914087765689859 -2.891782974636013 -1.0727418862039462
Ni 8.733478003764317 6.199324605066551 4.288981700690075 0.5326369299808376 0.044451545445155706 -1.918012619301974
Ni 4.158201218284308 4.615534118176064 2.6139240280854485 0.6789851503624952 -0.4644075653897938 0.48266162650397515
Ni 2.098827717596974 7.096783418345718 8.04869163570065 -1.9046691081155325 1.274199645965238 0.0012948075520235764
Ni 7.378889377343983 3.4661831156565293 1.537409165542619 -0.004144875406308991 -0.23638645331767674 0.42121148961829397
Ni 6.415224283373209 8.43642670616598 0.27588504257912455 -1.1918348704140764 -0.6116078493591015 0.3922901785982534
Ni 7.7584769766243715 4.825719673818456 6.080786561234853 -0.6949604427448289 1.359833064965342 2.0606769630741413
Ni 5.448106714642442 2.3053761741606578 12.037773285554598 -0.2795910137296088 -1.0165152025007331 -0.31509717705601864
Ni 7.327563816740895 7.498045912643381 7.723215577992775 0.27871015378655223 1.0509756981714482 -0.47845710150432436
P 2.9897969860732676 5.051579834119848 6.70964745379462 1.1792758028021433 1.894009057298525 0.21389084331832195
Ni 2.126641371211561 3.744605819496407 1.9310199049510917 0.9781301749646316 -1.655376488259149 0.5294423343029397
P 1.6530338376249774 1.7304098895989126 0.5891703565221715 0.7317449585630301 0.05665760059304436 -0.4447247422488857
Ni 1.934355143268699 8.768990491469367 -0.026583132530343705 0.1607983343687166 -0.15362804187252252 1.423338284607839
P 9.204242322842672 9.11745966183015 7.79698499390059 -2.7624179190759133 -1.3406932588120974 1.023512973974805
P -0.004311900963615497 5.265328639113461 11.668617883403265 -0.10701548422030603 0.2986441737063179 1.60422413375505
P 5.397731969280742 5.884143199370291 0.2673655533919682 0.8064817852552886 -0.5360418418973284 0.7942222511616451
Ni 6.6040026492604635 0.029660819923341793 5.885028472978534 0.587285213453337 0.04874143106976121 -0.20383551596484895
