# total energy = -381168.47194183466 ev
CRYSTAL
PRIMVEC
9.29792494249728 0.00000000000000 0.00000000000000

0.00000000000000 9.29792494249728 0.00000000000000

0.00000000000000 0.00000000000000 13.60845300199896

PRIMCOORD
 96 1
Ni 2.4415607407814437 4.139110815142774 13.12566604355065 -0.9180607204765608 -0.5849210840965345 1.73011845715773
Ni 2.878172706361564 2.683343984380947 10.993901938485536 0.4670100360096473 -0.48866438105462934 -0.59707288896772
Ni 0.9898942949768296 0.6372305055037245 8.452618161918148 1.8619278604932643 1.526818759091693 -2.0286109357775324
Ni 8.539855943916006 1.936274300611801 9.369460519181063 -0.14385630719773934 0.06160723128883584 -0.34629211460158427
Ni 7.248188192768377 3.941650780366485 12.537168752732283 -0.005882684033022127 0.325399073202659 -1.272152533628222
Ni 1.6644959507266501 7.445629631694521 7.7032825738087 0.9631820382952315 0.3406179470349424 0.7061218586782871
Ni 6.1154033852689675 5.188539724362321 7.295763815782141 -0.985239275205587 -3.098693272871444 0.23701508804061117
Ni 8.209779603822852 6.197104252885828 13.669555609038566 -1.2901677392587199 0.5220637824506816 -0.27897986250817114
Ni 3.474374257895456 1.6488847345290047 13.176915276760774 0.0008816312740049332 2.2098690806624974 -0.25374962718647265
Ni 5.5864630237134945 2.4243688773213807 3.197591764735991 -0.17316611190545017 1.6725614846788677 1.3653408821574486
Ni 7.385313991745668 8.986993160678814 7.877021742138632 -0.20161793948823986 1.3487127866824644 0.4947962049839801
Ni 0.1866177243486103 4.805251359076122 1.420014449270949 0.11257652324785128 -0.6301465315932374 1.0187443489415682
Ni 6.343462891460654 0.03226937875851541 13.5550265573663 -1.0605168048926639 1.8686680074305753 -0.818411446813339
Ni 8.071556649686942 1.146964143235805 12.248968407583119 -0.01976407000080467 0.4000482252771174 -0.07557937719821177
Ni 4.1728157935325685 7.642782834943401 3.975710009701561 -0.26611714761289007 0.6365264669776522 2.474815605006054
Ni 5.766405767652165 0.13645448878701677 3.5825072669099733 2.378817040721542 0.03511149899115243 1.2999304750724388
Ni 4.144085205056854 0.8695493911713732 4.883556624456306 -0.9616404048397245 0.04855939696594218 0.671948812341004
Ni 7.0912206216852045 1.4905968580854603 1.954759505449525 0.9562752838730691 -1.80267550258985 -1.797154315661305
Ni 8.393097494563039 7.610909547792996 3.2369880030629967 -1.3250460391931438 0.45759414201238613 0.6868900070318686
Ni 6.015683138860544 7.122591820881664 13.51641878308549 0.48078009321054616 0.19077354057456822 -1.1117599193383563
Ni 4.498085106362956 0.856513700218962 1.847810122296807 -1.278946930842236 -0.19865114355043206 -0.6731844845203181
Ni 5.226214916758306 7.230633710230466 6.894259885485337 -1.4350856549517543 2.216636481293318 0.8970920886446937
Ni 4.8124665489328065 5.697489547010744 5.190944167786211 -1.2377306045049263 -1.077266770657493 0.9010289618052546
Ni 8.58971141815768 2.803584751425585 0.4499702945325666 0.5848573207381347 -0.518197871737372 0.38138484453965926
P 3.5069169956511193 8.787292325959921 7.295314726001113 -0.3858649917982 0.057879903035919666 -0.09154567071948105
Ni 8.961070545575161 3.502268033114596 5.75089124987528 0.30887125075096483 -0.5507691208051742 0.13022997466355637
P 0.9199004448194423 4.907807472631825 6.980782657045079 0.05470613329362837 -0.8477343641471723 1.362508554914976
Ni 6.998948013260291 2.957530496860017 7.498352586028724 0.13938387324868254 -0.16646530284650687 0.43783418577663946
P 1.1300140258276412 1.7339607489473807 3.842809187877463 -0.11174091472043336 0.9161514192689899 0.0024690303657828446
P 5.410871708709011 3.597962277966391 4.96369730024591 -0.7017892927412043 -0.8714671889877379 0.8075788749742091
P 5.183472355197511 5.660046802741586 0.9794341292696522 -1.6729466359324283 -1.7986514690321216 0.7874929028576115
Ni 3.2556033788517436 2.6788902782709574 3.740351632327534 0.14992025400363213 0.24535317559266132 0.09998608817735039
Ni 1.5250363725560245 3.1335960060432266 8.47152084359165 0.016573073867332748 -1.514097711980599 -0.9643976558698873
Ni 1.937213391044179 0.21952958972967324 5.827847386327364 0.5527763810431899 0.3163323350147003 0.19705140316348
Ni 2.533219686151537 5.3672551421913495 1.8657867306330354 0.09413837114732175 -0.8820483069376939 -0.38204227561800014
Ni 2.233612646522757 -0.04962953466240065 3.225475312237551 0.10463361425169075 1.943729050231472 -0.19862928917356115
Ni 8.299504580777752 3.020114830526693 3.2513179651855766 0.558580903540109 0.899012188485542 -0.12565803902215777
Ni 7.0535175355140005 1.836600543828742 5.418083179395666 -0.8917233681336127 0.23901823451356904 -0.0973386232521743
Ni 1.13373319585686 6.354573911922945 13.400529444975037 2.1036935758449835 -0.9326365614082066 -0.10185656572718588
Ni 1.1027246157382495 2.197397228363241 12.354107484724114 -0.9229972385462298 -0.656490825914721 0.6136688456531884
Ni 5.837107189907611 5.920983771991565 11.128190010730533 -0.6324980625445494 0.10217358274697241 0.1263398955805308
Ni 1.6471274266901992 7.467749395443298 4.3852557153940435 -1.401280019256219 0.3340598342014505 0.6880153788855634
Ni 2.066082632556604 0.47219233545714795 0.7347806162000997 0.90958919267044 -1.861965141489103 -0.5961665751033668
Ni 7.087148130503211 7.0613091967252135 9.245337868418428 -0.868668286086362 -0.5262662505678034 0.7736228297437386
Ni 2.2408371343045146 2.745779551246454 6.173379667269442 -0.5788059723377321 -0.014564528077736207 -0.5337368479132356
Ni 5.064635574838903 8.808221955299349 8.902214679862777 0.7999663527342739 0.3310467584067396 0.22805119397910403
Ni 4.627084518826404 3.997642885156371 12.37477863174651 0.2959581422337226 -0.11145603649016288 -0.7652173792888628
Ni 0.8842977599222397 7.411710801028047 2.0459898164737504 1.0627708910341633 -0.060041429463612725 -1.6218462177121875
Ni 3.860758832230979 6.279288612606487 12.66627230195655 1.7287274903474743 -2.0210961154577256 1.9973722894782244
Ni 5.437417284792558 5.034054699273653 3.081157568216258 -0.5022716874254188 0.4917664170187208 -0.38518622056362056
Ni 0.3334803104623954 3.8624510545942736 10.244974529286797 0.7091778718957916 -0.5403188720061275 1.5852064550019667
Ni 4.170937612667813 3.475908415532509 1.477769440654685 -0.7819529468759888 0.6699230401602269 -0.132344707013714
Ni 2.047430994860073 5.226995942464441 8.994834100892916 -0.3798462964079458 1.6830109621469662 -1.7387475935876375
Ni 0.07789615667696952 5.8240064134796885 5.279140565859101 -0.478438332451247 1.0987974456404173 -0.6092025823517185
Ni 7.0403702694607135 0.09159014072455249 10.327101241872 -0.7106138330113697 0.5730384737263357 -0.4667495832594091
Ni 5.199548467648809 1.4006022413034425 11.795915850888838 1.116004553547323 0.34941600494254665 -1.7744535316296792
P 5.013431901461635 5.709279316003367 8.98553896519739 -0.4213742404484033 1.0963638964982603 0.8935694202034159
Ni 1.2434859034191015 4.056071046315395 3.7079093121626596 -0.13038681195639482 0.39707937245678065 0.5286236950563864
P 7.65154148036221 8.499419267773327 1.2684285172200562 1.5860600612515137 -0.6078028737907146 1.1010659299596197
Ni 4.250090848814658 3.76010879331525 9.408571311208327 -1.2527221928177523 1.3069259325536653 -0.07042097292572388
P 3.9644864843458865 8.893390948968456 13.747259298666524 0.8222611595767323 -1.2222646476588435 -0.9510202061217171
P 8.007586925184382 5.51701682134291 2.9111068867628025 0.1178079468501197 -0.9888066808418713 0.061479447461719926
P 6.980194098387956 2.4383157649309504 10.798267086401086 -0.2287482200461286 -0.9892468537030835 0.9992301901680404
Ni 4.879058288305965 8.297226589134857 11.589911022970417 1.7726427036731858 -0.6252802046398714 0.7057261659017653
Ni 3.4104975126436265 0.3031541980441468 10.570297770082608 -1.8144519263994878 1.0274035672784627 -0.5863660440731773
Ni 6.624464783018267 4.001269075934859 1.414462658209833 2.1185242130999127 1.4103971510661386 0.5403301848600371
Ni 5.723951441768635 2.521839025862128 0.15793827446079817 0.8209051597694701 -2.1096207399626956 -0.6605133168105527
Ni 7.525573191472576 6.659350597892338 7.025949187672418 3.1106694713967133 2.0332301797170986 -1.5003986172269514
Ni 6.679815330978113 4.213577897052804 9.69965680250766 -0.33668750163228467 -0.08102728768666045 0.09682645950244614
Ni 2.5487565189485974 7.803488171905937 12.131568156648294 -0.3238242725163713 3.0270152876101677 0.22477715121352257
Ni 0.3023908383956496 8.385352322977191 12.8357111799402 -0.7690035858041724 1.3320283840482479 0.20438881736515765
Ni 0.23601760026170673 0.7214334447577415 1.640076810107308 -3.353329416427928 -0.21754849467556728 1.5180492404291792
Ni 4.436356181803 3.5029653774950744 6.919897984081756 -0.14960040877036815 -0.8164448100052714 -0.15990847556459556
Ni 3.286825811247034 7.5806912913055955 1.9701233968402272 0.6128707752319252 0.5096687512204384 -2.7041721480601426
Ni -0.0004518791585500631 8.285873822620665 6.359162437946493 -0.9463708802751637 0.2936320652037072 -0.8753210155161893
Ni 2.537682690186599 5.943103535740343 6.061803636600377 0.4397167475113331 -0.4059543063489073 0.38307020266188224
Ni 1.0771739176375177 7.033406123581002 10.610143098190642 0.2538799821167499 -2.022976106089258 -0.2839593180006335
Ni 7.530938094239723 7.593327171479865 11.611399457606735 0.014297904679910859 0.9557906309271668 1.1001056229288795
Ni 5.846237752329343 7.531430884268594 2.4637149068529918 0.8928927058513656 -1.5194553767480865 -2.2070490947151993
Ni 8.464496261198963 4.921326655688036 8.475345080174193 1.212756451058092 0.39792629383810824 -1.2169311512610719
Ni 8.431655989840962 0.7343947523095683 4.009376866598555 0.9265384189302688 -1.2016251170316208 -0.2833545945370991
Ni 7.133544776617713 4.904106898452754 4.8185083406452724 0.9805374988545436 -0.46548305784215965 0.6528984805777723
Ni 2.707964889974374 5.0237897899930095 11.054119020428615 0.2272803772513505 0.7557289801824534 0.3455881465560242
Ni 6.467115997007101 7.269852358188576 4.812153208857845 -0.3499731629975973 -1.1392226435349992 -1.6640745302537792
Ni 5.435678572803899 1.919073139226665 9.196619530413187 2.1549459462620564 -0.7471319825420617 0.6682885898805975
Ni 8.396017043035975 5.661450789427616 10.884435607015545 -0.5157288413715891 -0.08291062075230236 0.16302208149291278
Ni 9.191370851709452 8.366207895251788 9.281577461183135 -2.173863609102166 -1.3029497215147368 0.8198862315866525
Ni 5.295326393826262 0.9619726259824707 6.969269966219634 0.28991219314995875 -0.044345873105226856 -0.5427917590266523
P 2.8524174539092253 5.854131690716359 3.9062247560456695 0.6149371708426506 -1.145480708629569 -0.05596031741570362
Ni 3.6081992934718152 7.289033977614271 9.667703553201628 -1.034286410441225 -1.6095997962446666 0.45074549452166884
P 7.169369681924161 8.797631618641148 5.817096195565401 0.6247739544274143 2.3797117846216693 -0.13093497115038097
Ni 3.3725619783455962 1.4854922972203575 8.433743374019862 -1.2073753892518369 -0.0006890556472246198 -0.7643653157012127
P 1.182863431942838 -0.11206231215038642 10.900751605933728 -0.023230431282850315 1.1447880534379187 0.24855265636656548
P -0.3666580965005475 1.7980141547755988 7.097692907328552 0.060654123346947156 -0.2624782653087222 0.7717063294473161
P 0.37402112336589305 4.6247972292584345 12.370655931769122 -0.3684748213462105 -0.9802778174352537 0.19412445932467212
Ni 1.8674324633709642 2.6416055987280407 1.8109587260622941 -0.4429370542208436 0.163942279314337 -0.879103622487073
