# total energy = -340863.9623202778 ev
CRYSTAL
PRIMVEC
9.28537339476616 0.00000000000000 0.00000000000000

0.00000000000000 9.28537339476616 0.00000000000000

0.00000000000000 0.00000000000000 13.59008254316831

PRIMCOORD
 96 1
Ni 3.9784575647504776 7.985189091865829 4.67398311086607 -1.0591415218116922 1.3812734942273048 -0.15594743403431854
Ni 5.834808009384334 1.8429980775137615 7.589952525349576 -0.060053256538154645 1.6328376837266845 0.24922525695355788
Ni 0.19552860994771132 7.7260621730755155 10.304530545045573 -0.7521937133356852 0.35058020045397686 0.40379252281089806
Ni 2.8006543607530117 5.709455466879971 13.177011912653585 -0.6968987974181223 0.11758631775761685 0.9243439823821114
Ni 5.193894387619809 7.143637119106174 6.32220190807509 1.6897007154623156 -0.15599268544995715 1.5995136156532581
Ni 0.9786226566447945 8.784966169164214 8.015295058425968 1.7898729515085434 0.41295207782297916 0.2636072367068428
Ni 6.347973462276634 8.947673769334877 7.782809733335916 -0.3820227352339743 -1.6751564990995536 -0.25770681206200774
Ni 4.132418343066391 6.659079902025423 11.004840844135424 0.06007074003965138 0.1622396948009335 1.432607625724907
Ni 5.743328509476705 9.11525619060293 11.89276304371082 -0.7779589952252473 0.3031518317686844 1.2333921250305724
Ni 7.380070585016439 5.780107873984838 0.3910395776857368 -0.5751339228027837 -0.6864014974312244 1.1014806488995352
Ni 7.640274607134938 4.8835679192466035 7.433938750948646 -1.0101432375361186 -0.7532239543724124 0.28356388233442775
Ni 5.752716022104255 1.0827859767791599 2.65277085940518 -1.0501508882773074 -0.27438890070337907 -0.1545310133027661
Ni 1.220218790231535 3.7397491823280973 3.0536102203027027 -1.7088945147819472 0.9956666411864981 -0.41500124704252395
Ni 3.0068175089918525 3.3545454618989523 13.067707281201836 1.387127896125553 0.1568905146738782 2.3042031127603932
Ni 2.9319866838035074 1.8474086299352113 2.2080896789010955 0.5746207306117911 -0.110308553149281 -0.8523762337945578
Ni 8.604467793331452 2.543960209824635 8.37441245049128 -0.5773823525173282 -0.16174475744238595 -1.7715780098540974
Ni 8.149215215076165 3.4732218208432672 3.3178691650368797 -0.7160625148307668 0.20742477597800407 -0.3799373134598554
Ni 7.373050842636195 2.440140448510467 1.135264122295597 -0.46511718986230866 0.9755619000168232 -0.6955026884015441
Ni 1.2607123041472033 1.7468480347261564 4.159312498926364 -0.9879782714033051 -1.7997842970849842 -0.11032500820951321
Ni 6.8756890954729615 7.8429650256777315 10.194451513442353 0.3226783318373862 0.5369224447300688 -0.3793881258246047
Ni 3.13741628753436 3.051600865473225 7.3102817176488255 0.0897286721154003 4.241346025133915 -4.238887793401409
Ni 5.585068603221569 3.3095578272001647 3.565725497450023 3.5640439189007975 -0.6176643399658266 1.2368921677640312
Ni 1.722204653407151 9.122006657151127 2.671130828463986 -0.08487571489847319 -1.3382612523318371 -1.1860773991050089
Ni 3.606095515897891 5.386677312617999 5.271769886784982 0.5725437934781042 -0.7910721355684376 0.1287212513285138
P 0.5527332150681412 6.633192280654892 4.91439164517975 -1.3530304402212117 0.30989557825042113 0.2719718066214542
P 8.445697191532778 3.3242287173599347 12.80646515432393 0.2358303237038906 -0.2954269523206009 -0.7308021350337865
P 6.531387445394313 4.615350619781344 2.020505634536105 0.2859904894980494 -1.0297299014187944 -0.5992143607907552
P 1.579906304230903 1.1313484802827016 0.6449583304693318 -1.2020002409828525 0.2787721173727392 0.06361012065147754
P 4.575358516035693 3.159719754726617 5.4185159298767545 -0.4175425254071389 0.3247028184665827 1.7593138477747639
P 8.80367619680468 1.558262098558483 2.349399135797587 0.8697175532864828 -0.7821524644813045 2.402540609590727
P -0.15959978565390553 5.7111361194868815 9.423404310348614 1.0668784854446336 0.24164127395871288 -0.39496386877567463
P 3.505497779194761 8.148732375653186 7.216850432227536 -0.34530455387733433 1.6880156144504088 0.16601561690359795
Ni 7.476359908406826 6.101400368483795 3.12725437475534 -0.19861823342996762 -0.11874357129051162 0.7983779252012315
Ni 8.878637017222289 8.444703656566263 3.860385683622239 -0.040004565417395624 -0.13537783741308299 -1.5436846816090963
Ni 7.942764220258241 5.198369937655891 11.84488487223562 -1.4470286862462431 -0.2911236969595567 -0.4593309221978348
Ni 4.909297689267313 2.0677412581638044 12.84219341454973 0.778960182796252 -0.9556605331072058 0.1113930444627114
Ni 2.1564351460157796 6.612365187852131 6.587738520205459 -0.7588978648287382 0.17033429888360987 -0.08253472547012237
Ni 8.978881909731703 0.1371403241865314 0.6472091050102992 -0.5678348180382091 -0.5823633506716874 1.6945120208080302
Ni 6.552558097017273 8.282757457024147 3.474970256676865 -0.9676112777111788 -0.0827931213378316 0.9243509243606469
Ni 4.06597221016556 7.881926452962791 1.9245728694888409 -0.6991096890265122 2.1879547970879094 1.5334156955829203
Ni 5.938794907421841 5.23989412803215 5.195474758192716 1.4217172040646482 -0.7679962275855805 -1.1899160561248088
Ni 4.216618110135247 5.6434271757874885 1.6094737191269501 0.26925672168313625 -1.4133341222072755 1.1338248695581956
Ni 2.120862880065097 6.711087279104456 9.547359404138392 0.29162403363474293 -0.8949051082957039 -1.4712721321746403
Ni 7.424891082991888 1.4146545117160783 4.430883675306629 1.2433230109910396 -1.4203054113187863 -2.0882301901020615
Ni 8.737276490771444 3.8041618184283017 10.254587306499781 0.008883161422242766 -0.9442666894479673 -0.12762647560243828
Ni 0.7592185657680857 4.472569431182117 7.538635980060345 1.0512477208859121 -0.40742677712937575 0.3017256408451191
Ni 0.6781479695750794 4.428798180414296 0.2983149091892325 0.018857241915819136 0.4242155665519404 -0.02037727810477136
Ni 2.2546372563510486 3.7349207880982997 9.447526782213213 -1.2815422023732381 0.3684046302299075 0.8768531358899996
Ni 7.63214990530595 1.1907841561768067 12.617535659336061 -0.6633322743165866 2.267129862057179 2.1100287740343915
Ni 3.3829679902401266 1.5235812284656096 11.108262262925633 0.7640277298561359 1.9514788693802196 0.4379894804075812
Ni 8.91701346597566 4.736329751358332 5.278374572968934 -0.7581504451397524 0.3197382753724558 -0.3236252691316878
Ni 8.892453653018325 6.9749961652569725 12.646550594507737 1.52638861353281 2.192969476693681 0.7050180840911471
Ni 6.524014858820354 3.123906069064445 11.367506177422285 -0.017032272891938406 2.084338825467455 0.9233379097151001
Ni 5.1521009214115026 4.448724591985731 13.297080149088373 0.8018489144689674 2.7583213804090367 -3.4579820568430124
Ni 1.8356997739279521 3.669941744213446 5.260191026006987 1.1953675661576832 0.7355224233275913 1.1019933268698956
Ni 3.1793304635984105 0.3009120281624525 13.404632630557115 2.211145633382076 -0.8652757154650453 -0.7870442453559672
P 3.5463905641717393 0.581672010176963 3.818813209303682 -0.1053830908232056 0.3517852765056716 0.09571471449550613
P 6.736046363123101 6.637621403823381 8.227055429821966 0.42091478431348156 1.3291060681951303 -0.948262955091554
P 3.0754549900431294 5.398284029516551 8.075485635187157 0.04597543828884985 -1.5699423297540445 0.8095771363511606
P 4.9978987233841 6.600024926445592 3.6036274636165824 1.3424153837095267 -1.8644575688936535 -0.7615941807139788
P 2.600498849180861 3.956934068933803 1.528707683185362 -0.04731369748429916 0.7553733966152475 -2.01648149950385
P 6.2973124643578355 6.966007923690734 12.18511302895155 0.8117422623232795 -1.2183537426402113 -0.36800276680579846
P 1.384439906285768 1.0929441754087725 10.13216801349002 -0.9835078943367772 1.183756464281316 -0.9413065783783787
P 6.633795829933619 9.181553757527459 5.613886688474646 -0.5007873895704086 -0.8924152519943147 0.36021540955089576
Ni 7.695708287042422 6.887917932397276 5.548382092448626 -1.2357549688357943 0.06425958131001835 -0.6926734464828651
Ni 4.533277203248303 7.214001679631956 13.362869806081422 -0.19900544156605726 0.3495085646563529 -0.8554589864849396
Ni 4.962038610854334 4.635072753135364 7.372225372930369 1.4635891617080856 1.0568367849379154 -1.427015219238794
Ni 2.2722423245427725 6.557107930041505 3.731292992664488 0.11678541912287631 -0.6274779836221387 -1.4449306660666341
Ni 1.133428403950922 5.084661253544156 11.445010261646702 -0.39021529834709573 -0.06446604089386962 -0.29962093579729043
Ni 5.036238030643397 3.208681529291469 1.3792298832043457 -1.3211680442949763 -1.903879522334702 1.352751218417896
Ni 6.223438032641931 5.5792559593987745 10.049798393541726 0.24968394175753128 -2.135788656607315 1.072361877156708
Ni 9.197385319377084 6.718571290160642 7.32164330068648 -0.37824578469004533 0.5239052065347944 1.0511392203325058
Ni 3.5212643434297535 3.7820533440799395 3.3698514716074106 -0.8827908415306731 1.3372934891019292 1.6173784117488208
Ni 0.9667373785406772 9.32102935315398 12.29176761480102 -0.35901933236026556 0.05381267494508151 -0.938591493440061
Ni 3.299473911558703 1.5290967403358013 8.594341164971803 -0.5206455619469162 -5.440279454265985 2.570412820087089
Ni 8.77305303493954 8.859351296423656 6.069480039938074 -0.04699436647166745 1.6214741790847493 1.9131658327326342
Ni 4.475949307142974 3.349410650343033 9.094795870054163 1.1847095722232048 -0.15681003914492994 2.7273210753727803
Ni 1.7500143470960814 1.517517879557806 6.615733921364767 -1.5331652701350111 -1.4997514705612558 -0.372688602317242
Ni 4.349083248755042 0.758366168479056 6.069657390572284 -0.5727613088055491 0.06857800617971414 -0.27439378579938545
Ni 4.735726202079607 6.871854236209679 8.846179065549826 -1.8357640576137029 1.3647189323027336 -1.6709404041356772
Ni 1.6271317139477315 8.501994411177517 5.059125547829989 0.7796623510695991 1.401198001065374 0.6539480048882093
Ni 6.395078162137718 1.38859046824869 9.988534427601762 0.12426758643253437 -0.9259084986557538 -0.7306213864815483
Ni 6.357890241194758 7.772489040669724 1.0543550916018187 1.1328838458011652 1.604132345372192 0.0887681079743439
Ni 7.0440050612490035 2.9683482065032916 5.828134611436342 -0.13350684564261525 1.916075293069945 1.1615570453661417
Ni 9.044102373328046 7.093189684778308 1.699181569767183 1.5202333925646916 0.3959848538410213 -0.5486045090536874
Ni 8.255699878590242 0.3002694803149487 8.88900135114402 1.1216360408014876 -0.09987141697635704 -0.5389718710599298
Ni 2.6857850049514216 8.844308991323132 10.71784573380301 0.06992063625053764 -3.8235841846271184 -0.72613841100953
Ni 1.462399902349962 2.7475420242252375 11.889936576011687 -4.12822185691271 -1.5222491374431397 -1.8297088525585585
P 9.284287130139923 2.6646422094490196 5.876447338392227 -0.5870748972147437 -0.4971467074940277 0.7469959711848296
P 5.9853146287512375 0.7435290701332989 0.5277722739747911 -0.10234764643099148 -1.201239451557428 0.14510560622380816
P 4.678723294047439 0.12911869000360413 9.993467746552321 0.14176188656255587 -1.1550333853150108 -1.0047171814245406
P 1.9663542647115726 6.999769541805242 11.70618460529792 -0.271725494938603 1.5863318268556617 0.44627331768292827
P 4.130115570433718 3.5200851009928606 11.223478891696827 0.6586238130973238 1.692400373781666 0.5743862460034818
P 2.10264497722113 6.849012217353329 1.5476387027155762 -0.6421384138477909 0.5373312501327132 -0.6188725013413149
P 6.561917753524265 3.502312896077798 9.13591986083176 2.336914486950485 -0.24490966029733946 -0.9645822610768678
P 8.212801452933194 0.3308731428956988 10.985448341541323 0.7854136517310796 -2.77728789420921 -2.0166455358855395
