# total energy = -340891.1832720741 ev
CRYSTAL
PRIMVEC
9.03773707433446 0.00000000000000 0.00000000000000

0.00000000000000 9.03773707433446 0.00000000000000

0.00000000000000 0.00000000000000 13.22764175675315

PRIMCOORD
 96 1
Ni 6.298344763121228 2.0233143569882963 11.51672603447083 0.045170425889051236 0.04318039204221596 0.36621405033649185
Ni 4.835080899150659 0.27603327802890754 6.018206544898533 -0.4941613996134586 -0.5439312719477343 -0.9064850998238195
Ni 2.720864982344839 1.6600786649395698 5.0175491962367476 0.4576293661256957 -1.241192852021914 -0.01877856615908379
Ni 3.6467540356979753 4.379154175337315 4.852467697796211 -1.0390750900791201 -0.7831245985865867 0.7296240555652854
Ni 4.880757622487085 4.426367313981851 2.5536225609621295 0.8929932359849717 1.1101126135429205 -0.059628767406226336
Ni 7.332623397593032 5.9412999209904775 2.5129870873837294 -1.2866900651227646 0.44993611124649613 0.19373159476162766
Ni 4.873337640322619 4.6137105664632045 11.423497257348375 1.2290474749086318 0.17761849124984894 0.30869075930904255
Ni 5.564173227009007 7.799747877681372 12.601538272200111 -0.19863905936557402 1.4854705351622093 -0.724536613740049
Ni 1.7689472461248839 6.455718879357313 0.2469173041664961 -0.016093820238069056 -0.4017132716843662 0.09569517411148035
Ni 2.685672034051994 1.501601944776488 0.1632911227197327 -1.2049855488634216 0.6093439930255893 1.0813116301508283
Ni 0.9075695602381907 -0.020049315997136052 4.321497027692468 -1.2624448194221547 -0.40017498066296886 1.6387103404573777
Ni 8.720015458554244 2.4334830178312563 1.3445766851927157 -0.5026406407290633 -0.5067752317227272 0.35462583127826025
Ni 7.168868638959734 0.5489747461936696 5.03323690030627 0.11757269091086203 0.2858948444604496 -1.5276088590931562
Ni 0.5758728593701375 7.0423132062569325 2.31584240901034 0.6545894951269501 0.9904563006301522 0.9246558571955753
Ni 7.609964436181255 3.7941053014829134 3.8258304700479813 0.25132019180937365 -0.14760831804100386 0.3468862965421574
Ni 7.701073863952229 3.896050976044622 12.408520224589566 0.19707428598161544 0.23864413900360193 0.37541474299915345
Ni 7.522452027778682 -0.35418982097879625 7.199594233800819 1.5907096442083832 0.2540874701418656 0.6756182907727913
Ni 7.149021768273784 0.537465187988498 0.5201290006707435 -1.63209283514086 1.0994111679650163 -0.33484427777595877
Ni 1.8471869362561528 6.609179655426268 9.17362129147863 0.1041268498186013 0.19811583987225234 0.10214375795030149
Ni 9.258800156160294 4.743736490214916 1.4801201474479662 -1.858184334290432 0.2063251151559221 -0.6802383060433059
Ni 6.536588550986583 1.870648901784716 6.923757978440833 0.5768683889953872 1.3982255487006114 0.522860567320364
Ni 3.3919440757163426 4.196971470743794 0.25585743371228 0.8495976426081562 0.6834490996711197 -0.0642302707339797
Ni 5.852775286031973 5.5262418443728825 4.656433757313215 0.7826106350646457 0.753363051053438 0.3709662203094966
Ni 5.2183532543645725 2.73838915459441 9.192417073339088 0.46895944642653437 0.797345370171659 0.2268018949530352
P 0.11310185724601489 5.800573316504629 12.183266376267433 0.5911786349704722 -2.2296943429185405 1.2358979221715618
P 3.9891306305048206 6.279049194398777 12.639355779348694 -0.3505472903335124 -1.7190462585039685 -0.5157548095135183
P 2.153801205332441 8.333561819878831 1.3596697061606282 0.45642146186052357 0.1608281591653875 0.46797548524671023
P 6.379874189559275 7.562245184258753 5.783998106651245 -0.11815196045309972 0.12127893611785566 -1.7709601737644403
P 4.695601502385513 1.0162121979958416 12.893392109034007 1.008216709937367 -0.8514097561162305 -2.3498561347128173
P 3.8505911583987538 6.215387374220348 8.121653094168206 -0.07428919763187851 -0.33334609596387754 0.7324759231917836
P 4.594017337308065 1.02474382182441 3.6419667463526437 0.5610113673584726 -0.09390440075964472 1.7211237098582872
P 0.04830399351329474 5.412031960557606 3.742589296201956 1.4467983154029922 0.01061788472516236 -0.1554491542416613
Ni 1.7116479928694555 1.1084423051680259 2.5994429843185487 -0.3737111300444855 0.9901302847493011 -1.8910908552104655
Ni 1.9377179488523086 6.52428819078459 4.751765615860361 -1.7181422586324604 -1.10413351314135 -1.0015835208915655
Ni 5.7926924097477315 5.754562196895263 9.268146080102163 0.9373956733597468 -0.7710820655997559 0.7288149294004287
Ni 8.79302229890083 2.4100210523026933 10.228935259065892 -0.3316404261266805 0.22449304431420047 -0.07086525955199409
Ni 2.230621970737984 5.440853304190345 6.768716502151946 0.05253843621834822 -0.6352319165359447 1.2210616284896776
Ni 0.29364330878098993 -0.034249408538923005 9.37526314783623 1.908432174702391 1.241242731423243 0.03579027022573192
Ni 1.3919290049886923 0.9705716256078425 11.399806637071016 0.22701452518447354 1.4068701117494868 -0.6612887615239966
Ni 4.050831261731131 6.913471226066176 1.5464833472475379 0.6890577041071487 0.06883177406173306 -0.015454386881857258
Ni 5.5388585253736045 7.693156806246905 7.817760991508406 -1.6397750342764663 0.9314847071919508 1.5852457928803345
Ni 5.4593625897845275 2.7586788743985795 4.697770559291081 -0.3995250057837958 -0.06621799058796982 0.5437785484199539
Ni 0.6589468350796917 7.565571071513958 6.781242805781603 -0.4282480847501012 -0.23036441549331296 0.24299547399376212
Ni 5.0280998505349155 4.580722826024353 7.258893538277924 -0.4138069696241067 -0.15627319280485344 -0.10005910750713089
Ni 8.140208472221632 7.217319947587865 9.166465211237677 -0.9938157040206885 -1.532029613868671 -0.08080617281478987
Ni 4.55060908598538 0.4285839539712347 10.537827037893027 0.46241650310169397 -0.1798872326793676 0.25811690301623286
Ni 8.35208014321012 7.337178417094725 4.4628345832067176 -1.1745475440885385 -0.7976217637614973 1.2561798123490493
Ni 7.009804465884728 6.10752198185386 7.191379834544691 2.1339585453771117 -1.7261802984455885 -1.0558209420788915
Ni 2.2575725027896696 5.2995392467925715 2.274849944816231 1.7295235038862082 -0.6862485167931278 2.0499516062368373
Ni 2.305418283031663 5.393631127808702 11.346208337160714 -0.23720406412296566 0.01025304518657589 0.10857100163288398
Ni 1.0939367371120379 3.1667688557070366 3.9899593909974893 0.1645130642161425 1.138144579979472 -0.876408335043097
Ni 3.433734572096958 2.7224827372869087 2.9649625125340964 -0.31452510660263255 0.2188589859568747 -0.8945682937815754
Ni 1.2915016702608813 3.7089517424651457 8.329075487179146 0.058698285172156965 -0.6683502963564684 -0.35731340541275236
Ni 4.194594545884775 2.4631448710149026 6.870000614357457 -0.8015642933490131 0.10827095389396192 -0.5379969087411701
Ni 3.985108837492413 6.826121496931521 5.953933773691702 1.3277007032071715 0.6698212244750399 -0.45301372173055526
Ni 0.7771044024631019 7.5615221652902305 11.35594378757187 0.4316041457065276 0.7180638615315118 -0.7567067707146904
P 0.3215681088927601 5.695618075486444 7.920804751128559 -1.4652513799018572 0.11044379317556463 0.30996037005008553
P 8.626583332346891 1.4275376891884382 8.017260904171758 -0.9209218440744399 1.5100713644300252 -0.5375089133611581
P 1.9378083262233738 3.16290070422544 10.396251789892876 -0.8119312384056339 0.08853850846204106 0.38024044652257094
P 3.952871229233404 6.173723406159224 3.7290570924323423 -0.2604239538828547 -0.2181359917479211 -0.9563344192457787
P 6.835593045419169 3.9369105855032642 10.292441630166088 -0.23732053509617193 0.29865265834675014 0.205155263217537
P 6.241054547602906 7.803724482008247 10.2144378249733 0.07487335227012266 0.4597397276004792 0.27792159644698583
P 2.4169078079778723 8.464889177773882 5.77111390863217 0.2898479155709266 0.3331080118111424 -0.40241029775139076
P 6.810097589041636 3.9924655554971316 1.5490093947688146 1.192745555153804 -0.2865311924928678 -0.03164873725353259
Ni 5.236437766314749 2.641459424126827 0.8382690958789952 -0.2320816552947358 0.5460652875716016 -0.21413072724326992
Ni 1.5540208199943877 0.8986764269253609 7.18862784359575 -1.2254993525460571 1.2131565147099883 -0.6999784647847106
Ni 6.786147585709319 0.9544392648726785 9.297087625638419 0.332215324793544 -1.4131718855977986 0.0927170653197629
Ni 2.9784766408294976 1.9241613431925069 8.749119683358417 -0.9032442242890185 -0.45789727507510175 2.0510080725258097
Ni 6.522625247156987 1.9241613431925069 2.7425266306417813 0.17329312440161768 -0.7127205949417273 -0.5866997732635122
Ni 4.069955113448558 6.958668949335956 10.381423574622184 -0.14474873710502167 0.6297958331220379 0.4119683737534711
Ni 8.173440231562358 7.09713611954517 0.4756063963628228 -0.34369632884995 0.22569606348336615 -0.8317328465125933
Ni 7.881810530608705 3.936630415652962 8.277289253558704 -1.3690113890305005 -0.8115586855575636 -1.2175988667520579
Ni 2.9872342080857295 8.229383824251807 12.404605076875015 0.7454229702707549 0.9470774194238851 -0.02718298817269512
Ni -0.04845311617555256 4.955364142301526 10.106011189132497 0.4214819696708612 0.09366245995216772 0.7059102568881134
Ni 8.87621466896648 2.299977565293529 5.824713112316182 -0.1507841446658242 -0.5749359478593647 0.8299135339156676
Ni 3.684097965422176 2.5602192052761894 11.504529608245564 0.23062975333955765 0.10759115421811793 -0.4771890334251781
Ni 1.2206186981343317 3.6135765027798876 12.59461988444506 -1.1984469764139554 -0.7211124185498483 -1.0475098511100345
Ni 3.0707157857387886 8.325698988596145 7.8386083396920485 0.500256456767603 -0.603020879021039 1.1325141211665721
Ni 5.5841375882773425 7.970615335417513 3.7586339908871866 -0.3129078827141837 -0.0027541657063694506 -0.7677146917894198
Ni 2.9763618103465688 8.172717212593836 3.5433813024471448 1.4701441892177842 1.0622129616481641 -0.597578624959545
Ni 3.479664352072366 4.436109994582695 9.497407261057333 0.15515450581937795 0.11975041528847119 -1.3724088447478238
Ni 7.25027153707829 6.237294848966587 11.403589833823812 -1.052441484083697 -0.2892282797090567 -0.397551941217825
Ni 0.5494935123035847 9.12847598708407 0.1716456069010132 -0.12687339948649765 -0.606900159470787 1.0626742175552988
Ni 4.162691333898708 0.3711120799370714 1.682674815253327 0.6601502770441792 -0.5889700573549277 -0.006316429136331058
Ni 6.0427304445371135 5.626515537569881 0.2905885536389813 -0.5014527910685493 -0.3171944259046795 0.6630826201996258
Ni 7.818428880280579 8.882062084874406 11.57769189767038 -0.5186547567691325 -0.4181763023363959 -1.282389637975198
Ni 9.06692899738857 4.768201644562303 5.871022477250065 -0.5329338923959661 0.175393201463756 0.06983450429463457
Ni 7.896442626984185 8.770319503289215 2.5889799960703135 0.3680107372255985 -0.3556344750484327 0.42240191038196934
P 8.602353159164272 1.5376173271460278 3.5122697962316107 -0.11406724886076484 1.0330417394008466 0.9212730567662714
P 1.8029291376454535 3.220986240609137 1.4239948962426765 0.7618512910301072 -0.37551733001528875 1.2472506281802196
P 4.706943862454214 0.6781393735991281 8.302951004298999 1.5621907108330837 1.7603014084990136 -1.0051650675952368
P 8.47491202822503 1.747392243125799 12.460782746955523 -0.024841741634028185 0.7024058432792806 -0.8948444302610976
P 6.275190080654286 7.838067883013078 1.4538103909571338 -0.3434559307043698 -1.5502975589399237 0.8658444434843218
P 2.068051155665642 3.3053083278131035 6.266766909670997 -0.1550668312015781 -0.28543435988426324 -0.5387510132983754
P 6.714171047392878 4.048128978336277 6.0557999161668725 1.5241119016834914 -0.9267819023996425 0.15806010950194713
P 2.5309821257365503 8.66137862020705 10.171170562349479 -1.0565709328710386 -0.895358908003671 -0.5556678436583721
