# total energy = -340872.80648439634 ev
CRYSTAL
PRIMVEC
9.25976946732671 0.00000000000000 0.00000000000000
0.00000000000000 9.25976946732671 0.00000000000000
0.00000000000000 0.00000000000000 13.55260860727428
PRIMCOORD
 96 1
Ni 9.106584916422765 8.36723863829187 1.3360337728092504 0.5887093474943733 -0.017793062317362905 -0.17433544962320296
Ni 1.160295389582213 1.5475204213171716 3.6802239999597046 0.7431102629771782 0.6096368416756597 -0.18973532911804097
Ni 5.497876892540313 2.193787498649372 3.0454066273417486 0.8473605257475213 2.192768416426469 0.39013662259036036
Ni 5.797291532196679 2.970432127438558 9.98447771446912 0.556147611508268 0.19793534843033006 -0.5684397986120597
Ni 8.25452872662039 0.2612449447088625 7.955964133783893 -2.8727786656193683 -0.23734881723094609 -2.1119730422449563
Ni 5.604567954180043 5.797717481583541 9.25553663907773 0.42281328688777503 0.40367425206547897 -0.3207314925236605
Ni 6.131745138807109 1.6545726139588057 12.062471798276901 0.42539056069664805 -0.8958160501457476 0.4731385175048884
Ni 2.612912435552606 6.655459169723599 4.043582902353382 1.122020677834416 -0.5362716985199474 0.5964391120384631
Ni 1.3096184289852917 5.079909426797031 5.426857240096447 -0.5081191473451313 0.6283894396928146 1.1536411329531746
Ni 1.1244693422393808 9.025636013380366 7.847407228634322 2.5966306161330377 0.462974432487693 1.4181392569054028
Ni 7.3247460334849235 7.504644831049292 2.6909380294334295 -1.33285242261144 -0.4106080030708348 -0.7829901298912515
Ni 3.4670798527507323 8.109529999470892 13.08401324911179 0.2391539887604849 -0.9045819692638357 -0.35986702507254154
Ni 8.344394787479057 0.6276595709648133 11.67978683141974 -0.5049299509838724 0.0031917674644203094 0.28146843325797977
Ni 1.6303490575233317 3.6946386827972817 9.422302305872819 1.1983307625510653 -0.4093777302081595 0.22740404731340835
Ni 3.0658077510185975 6.117012845883241 1.637304070229251 0.42034451363230835 0.7528532012965551 -0.10941123814599221
Ni 1.161786212436231 9.270418014287 12.902625480647258 0.28142138207012823 0.3945339803271076 0.032503371944344016
Ni 3.6100321708894354 5.033129072396415 10.46604220160173 -0.7867909916945806 0.00021880087902542963 -0.4870870092651805
Ni 7.2458527992226 2.9786362830202973 7.528596150267946 -0.8589515730192303 -1.0374606944041487 -0.1974995464444921
Ni 7.837385380342994 3.292449863906465 11.175955377100438 1.1406269800816937 -1.634374432086185 -0.2260511328299397
Ni 3.2965889807744526 1.7894504132856843 8.269924019024678 0.10396435609880804 -0.38535205671752343 -1.310690284692104
Ni 7.550165856827882 2.3484163858496703 4.701142268322074 0.17665021379930868 1.0840118026908105 0.955848994968928
Ni 8.394341982973303 7.483476998476092 11.944903285664408 2.069315612585746 -0.49500060768530235 0.39445273346721094
Ni 4.6320606855884305 3.4438841307052956 12.03260163453472 -1.4348398574895351 0.7973217160225752 0.27756498443851546
Ni 6.314023697076339 7.708119001199562 11.143550814506424 -0.5195302173955504 0.39011142577937974 -0.3683555221595269
P 0.46029572307426 2.9318003700040025 5.2653640859291695 -0.19266870071475206 0.5859986334314295 0.765575791069546
P 2.4323747139079437 5.451096538139697 7.504052205815397 0.5048199077685693 -0.8909633500391365 -0.8965506143189269
P 6.809263937458012 0.9646642440117776 6.2603429626085525 1.3834656167826174 -0.6431375445362666 0.38052121098778335
P 0.5199517866581824 7.607604205669336 5.142089703486577 0.30345907859645804 0.4621876749203395 -3.657640044391404
P 3.691101450932469 9.0301177417117 7.584215880422883 0.7545365025362489 -1.4015533275222636 0.506109058893638
P 8.855172920711926 3.5888365590083957 8.818275518063443 -0.6394678089941632 0.6831603647861074 0.6808674549868726
P 7.282549264877716 1.8684084659329652 0.5077807459170559 -1.7768469715625206 0.2207502894423166 -1.5573596079930274
P 0.7763742435262212 1.933958372663363 11.890245645537624 0.1693621647783277 0.15048615380943117 -0.7857964889917951
Ni 6.601095064282977 8.000385098972064 5.893161627456249 0.36319737499735516 -0.4515991007712158 0.7272601833187992
Ni 4.788411889874737 0.5417020587190712 10.280723661078003 0.2371873519524173 -0.5054151181504071 -0.19547891647003754
Ni 0.0867520004499332 0.6067667535392169 5.678245160407158 -0.029372796735162313 0.3993547987545187 1.2096940100826845
Ni 8.014080297736616 7.299216849581024 9.214012129720222 0.7777368519121122 1.3097034952988025 2.0602396184264067
Ni 8.613511462052521 4.692017691673941 6.943258354795615 0.40550076375125643 0.9815577125889419 -0.4476735404645645
Ni 4.039953998772701 8.376303952416613 5.309898020302552 3.007863654382381 -0.267974512536603 -1.8793110889667182
Ni 5.670941980376326 6.233926692807666 4.258121570815864 0.6990320417110413 3.659675072543562 1.7917696543106236
Ni 0.7987504759904119 6.321292615960837 2.4328284426026445 -1.1461347972738003 -0.6055760413427248 -0.14774201540539073
Ni 1.939301259537701 8.467734914283534 2.880145673054596 -0.45789470397194043 1.100536025598079 -0.7084461359360895
Ni 0.9077851852348117 5.9933671466925365 9.124713692718396 -0.3706659154602584 -0.7834022777280056 -0.41712626380532675
Ni 7.989152998835891 1.9547743340039385 2.4273938840124383 0.6075285370834054 -1.4646361149153615 0.42497018532977776
Ni 5.0973826114276655 2.365639556709755 0.7011376921524178 0.7741028547039506 -0.5268912857463119 -0.41884633182022707
Ni 8.474124155086471 5.371444002796444 10.560287207352728 -0.6958485017767371 0.12534539287774543 0.4643605142019422
Ni 2.9040858805501135 7.094937079503428 8.836720978468435 1.7871157004783802 1.5159507060289377 0.5122527098975308
Ni 2.019407523575654 4.378611540636077 3.360951785083204 1.0203988538258555 -1.0514868334799117 1.293947003795494
Ni 6.760622369432191 3.982793443009635 13.115102924468099 -0.17375875118412654 0.22867468649571587 0.7803220961407852
Ni 4.082548937458932 4.545824454287373 5.256622863729213 -0.9701512705242131 0.17578503758553596 1.3593065030379106
Ni 6.83483016043903 5.123013652793642 1.8291544520028193 -0.6275515171725515 0.9111043437633858 -1.9257608957888255
Ni 5.60992936059294 8.172329754725244 8.707632386895172 -0.5299133604020874 -0.5292556722134304 -1.1206114561917153
Ni 9.0686383819149 2.98821088445542 0.4266846125431118 0.3735671482674534 -0.3257446294675358 -1.3867152340681665
Ni 2.0559743524608556 3.555677325218093 12.606852708248566 -0.02030400166467471 -0.21824963450764992 0.21078803602328214
Ni 3.0727433182090294 0.7923945703568839 0.8949122539822904 -0.29231231795101914 0.7750382220340265 1.6908502556857266
Ni 6.15001466359579 4.868082944756549 6.121212151251546 2.0735823582819 -0.4131099435570821 0.5578142005774136
Ni 3.5366484993484835 5.824931943496331 12.773184091864442 0.10050699367782692 -1.2285309402835292 -0.00613362370156363
P 3.7052133393146027 2.499711756109307 10.171205591877207 -0.04186218745142467 1.3114945257609543 1.658383136295957
P 4.210074479977796 7.643041342702425 10.873203516595702 -0.7415709435145165 -0.47316859941187545 -0.5107987510598235
P 7.130226060228042 6.57958462024643 7.541444080143412 -2.1524193231854607 -1.7398174296130489 -1.7311260724866377
P 7.2140362319778415 0.1509972056888331 9.883917546069425 -1.3120475700509466 0.02431235149311942 0.0446124965030522
P 7.450678895687694 6.846932678887487 0.31550348877969714 2.1042381354945436 -0.6807278440852148 0.5259487193273845
P 1.234725415051762 5.160099028758501 11.464409227860525 0.4652886824431664 -0.4709466520598921 -1.7008027389127485
P 6.500932139985376 4.346591258467166 3.754980895284824 0.873221195564367 -1.9741272029073549 2.0341678610400193
P 6.166913742531088 4.884519035227867 11.103407862725435 0.47465392570815035 -0.4123548105586125 0.3310614136947589
Ni 4.990830446327132 1.8612877033569408 5.66026083651229 -0.4715606314948072 0.7753596099291873 0.48538159653829954
Ni 0.27254649311463314 5.559648813404628 13.30319939577571 -0.6372708013428444 0.24767153931319283 1.2233056873288481
Ni 2.306988178092671 7.576713615352539 6.331765415016082 -1.2207610665301234 -1.5275001014294338 0.9514758056018967
Ni 4.533462662299086 4.834618138580018 3.1401803659186123 -1.668666777610152 -2.0791040594310775 -3.957426045011649
Ni 3.4902940943347285 0.973081374286948 12.184174797872743 -0.8729118918540644 2.0456192974100706 -1.0118193396869606
Ni 8.64409647998309 9.069666216304936 3.672607839727221 1.2468585349481236 -0.6673694205004377 -0.4948627965558574
Ni 8.519895194635609 4.145774642100146 3.052955191258491 1.9977227308391081 0.11237134921558066 0.7872902999285022
Ni 8.128716241418255 6.151273992217818 4.570711936180194 0.6586207277735302 0.12629695815773734 0.4473614085407844
Ni 2.066604567593854 7.149653056176676 11.400427000069165 -0.5237990199742335 0.23421412825670632 -0.5577537796531233
Ni 4.50517406714986 6.444892016305144 6.829077991762533 -0.0743493614458526 -0.048184273014710566 0.6300082062431602
Ni 6.441975188982065 0.29994707638994317 4.082601718143826 -0.8735490112174311 -0.7274473596289408 0.094066894479438
Ni 2.020852047583274 1.0980697400231971 10.116235897525696 -0.4048610732847286 -0.7945685787574702 0.7881410779645717
Ni 7.215008507752201 8.970558905705214 0.010148707130458524 -0.903724763469863 0.3586267249075372 -0.14567227736055557
Ni 4.829682681553983 3.8634257572261124 8.028483868851056 -0.8163100841996198 0.014338528109859175 -0.903710879512792
Ni 2.630413399491079 3.2965889807744526 6.5795744345002225 0.1398261029924237 0.9533205721201194 -0.42416285893713407
Ni 9.025034128377191 1.5412145184377535 9.579552633756178 0.2991301122038009 1.5107797033509596 1.0557772333251494
Ni 5.41465008625513 6.854470131081094 0.7451540054230698 -1.1222754741576995 0.3617146198042415 0.20867304656280836
Ni 9.127780528303804 7.234620699086427 6.99211567544565 -0.817511817817205 -0.7664245122230865 1.1971290289334802
Ni 3.1737211022032357 3.452542014981736 1.3381070351509565 -1.0578426004946104 -0.1741611288288678 0.5960246502088639
Ni 5.470968003013751 9.218211435088527 1.8385197826522224 0.4246616529504235 0.2161901808754599 1.0292956420948531
Ni 3.7472804711518957 0.8274057580031099 3.339958962149388 -0.9755415883018489 -1.4049415272682062 0.5031396918526689
Ni 0.8936288499601356 2.1662767241196343 7.459328446171782 -1.2402464289482447 0.04563476711997947 0.004994110780481721
Ni 2.757633369623716 0.8162218086671904 5.959488428829207 -1.3547492226845312 1.6938908422842631 -0.49098583009895436
Ni 5.736315951490411 1.3103962496047794 8.199030299443015 -0.06386954496045129 -0.47677045783052086 -0.7161905557681988
P 4.733492198277339 4.696545718851672 0.6192674420666978 0.7481637662406857 -0.06141157033826198 0.3058746300164861
P 4.550019129771038 7.713508186920299 3.149653109891659 -0.8715571775983829 0.17720145831708836 -0.21581248582106705
P 0.8809938947781003 8.109205907546105 9.840413298039936 -0.42872528149683586 0.5371379031749847 -0.35359610446216516
P 5.052852380961995 0.1504240259704249 13.363399933793275 0.7589922243147574 0.6504497619269636 -0.4284180346690622
P 0.9120826441574813 1.1822225232363424 1.488035663464922 0.15114872709409455 -1.0788878512006839 -0.15537562069124852
P 1.0193987402235845 4.125329071530755 1.6122999152435051 0.375229880681857 1.872986175189955 -0.8546706862556892
P 1.6572209079727755 7.386406837117883 0.3725853365038866 -0.9078423851826622 -1.2216169867725155 1.0353225650152234
P 3.418854974342495 2.662757773584776 4.317589661083411 -0.6952003266697768 0.5784989826202748 -0.1432760092142371
