# total energy = -340868.38080927794 ev
CRYSTAL
PRIMVEC
9.28165910157882 0.00000000000000 0.00000000000000
0.00000000000000 9.28165910157882 0.00000000000000
0.00000000000000 0.00000000000000 13.58464629963776
PRIMCOORD
 96 1
Ni 7.760942895094156 7.072531512108099 4.452096353346951 -1.0285428230892286 3.124108627620755 0.4817877085394542
Ni 2.9911353465091306 7.777816951563418 2.040346307914894 0.5555508584645336 0.2034375091954819 -0.958218009421737
Ni 1.20477793059575 1.90641567797603 4.840779755841465 1.5261315032166813 -2.011953015505877 -0.13683076780952566
Ni 6.561641143440576 7.892259809795537 6.309130819753448 -0.3400746729369627 1.55770413581664 0.30204265786490564
Ni 5.055329949634212 4.345812073572742 6.06504174548027 -0.2879918361987943 0.7695682000583907 -0.9832083608184873
Ni 5.868533240887166 7.8354189287076625 13.230032505948408 -2.0139859867755057 0.5062067608137669 -1.6641493493557726
Ni 5.429529322909649 8.876421982295646 8.484875187930523 -1.1799625444565227 -1.1183720253382352 0.04364704726598935
Ni 2.602567964754917 7.711815072821438 4.862936932741038 -0.9548472931772911 0.3745822197955291 -1.2187334945771333
Ni 2.0230768527626894 2.3141589676870615 2.6906973190869503 0.16209622724453374 -0.8204482747377095 -1.469104177989044
Ni 4.856600343988801 6.78302727925181 3.0888767871335556 -0.3043049715365211 0.2121736035168991 0.8101507494664435
Ni 6.797664455848084 0.7630136471650096 11.524398608472218 -0.46249852129253893 -1.5201470034984723 -0.6703120480685294
Ni 8.928000162603505 4.469852167442494 12.781657824818323 0.7063380884541512 -0.6060668649362143 0.4442999960066413
Ni 2.7326968270756233 5.58744747294706 5.819852794589047 0.1713257162626017 -1.0015914913113653 0.5370990795172492
Ni 3.8630544140132117 0.09068923594601742 3.7498515854534205 -0.0008597768971340031 0.40215447298684287 -0.31574432372171424
Ni 7.602764858598472 7.49476347186782 8.50902884972918 -1.9378059998788175 -0.9779712807892641 0.9063670861887165
Ni 1.4631050701185686 5.182191667908065 11.528541941149818 -1.7158773738576836 0.7218145868231955 -1.4362516502353975
Ni 2.4698402378514848 4.001434671384069 4.121948662914618 -0.48684198313391 2.123342974644795 -0.5353867248118329
Ni 4.043072194663005 2.5038946455444004 4.547025451226499 0.4782359866324538 -1.46420519802553 0.495213752137373
Ni 7.649989940730267 3.5223896755141455 6.384648255531889 -1.1658790697802632 2.280225261788557 2.1719946742142273
Ni 0.22569839468671218 8.541873857225207 8.846036614493984 3.5213767190495746 0.5062764377094378 -1.0112372419312454
Ni 0.8143811338084824 7.674567774355461 6.4264890471478315 -0.9809833281427105 -0.008848451529565406 0.48159924667773185
Ni 1.3388886247235599 9.193186448292872 0.8014991189714703 -1.0077202299169223 -2.0243824995184814 -1.3941513786312376
Ni 0.06085519870226217 8.949960568327526 4.4025935520415835 -0.0693706772843386 0.4495015948122388 -0.13692538440586097
Ni 4.707555460169549 5.566517331396903 0.8405136453537 -0.5081492292521185 0.6838887583116996 -0.2261372647858428
P 2.2120514345636595 3.0266469747002165 0.5594724293778689 0.04070647658042666 -0.158381754507424 0.41712986334975255
P 0.029676249036946975 2.0785069216485144 9.461787456410752 -0.3233627594989205 -0.030108389349606208 2.2506372637187946
P 6.289307980148717 8.112977666142642 10.41471034846059 0.08853310914540237 1.1273384905029036 0.46683185856057013
P 3.5561563517711163 5.575455569229631 8.429992736938916 -0.2690716022555237 -1.0735278724403512 0.7752320832123875
P 8.303919959699103 9.194114614215273 7.095206605592371 -0.0322640022400283 -1.540836927747656 0.49796046164457464
P 6.257193439233621 5.388188812725881 3.864519059838761 0.3847244504358535 1.815959107072634 0.6981594092981008
P 7.5001839608546454 8.679196005444526 2.482757522993549 1.0294277967973433 0.11342164485696596 0.9563182212958629
P 6.965718177758121 5.101738245754293 8.341434569950732 0.5096486966157803 -0.49165328847962425 0.41192337944814866
Ni 5.35909081105859 3.730679390160293 10.814669110580441 -0.8623801390848052 -0.4317686963088499 0.04860541971252919
Ni 4.990330490088427 3.8765685098433793 8.403054577373053 -0.29302091398226954 0.5242013976189747 -0.2221831652341012
Ni 3.2306207178071964 4.15544524288817 12.56909947509505 0.03336777682716834 -0.8043218014894922 -0.06580147187584152
Ni 5.755389814946409 6.1076195008386005 10.094872725094294 0.2529996363943256 -0.1820472164451639 0.05011414304757176
Ni 8.269967650257653 1.5247352873660363 5.825394873311707 0.1518681217586223 -1.0304793779903092 -1.1743637102125064
Ni 7.1379579279781895 3.167171295351822 9.226881655773816 1.5351828147856723 0.14637701673706405 -0.9051956915884347
Ni 8.143885591358616 2.857238130543473 11.259539037187537 -0.08599491610458093 -0.9437110740548134 0.6600014101711408
Ni 1.2811381410317313 2.655631210538617 11.363923361318589 0.009514624358654583 1.6184176516466127 0.42122537357536494
Ni 6.5034172951283225 1.41926779360354 7.544342382778824 0.21179308024902882 0.2800558691811693 -1.367779316395612
Ni 2.283371704041 0.4270407874036834 6.397960939356896 -0.5630489666137917 -0.05516430387696951 -0.2716439909683902
Ni 6.488640893643688 4.080467999676567 12.811068618401464 0.8576310544355938 -0.21365378760685141 1.7798484773930057
Ni 9.421441011929877 6.121217131601783 1.004303373016224 -2.0364913669668736 -0.41896383123469777 -0.44703590688056555
Ni 4.861343271852273 4.177247860405384 2.8641186245262364 -1.1581462199123798 0.23855209351042786 0.8283078799914445
Ni 9.665363016337022 3.8873445162024622 5.338943113381018 0.35805234046130596 1.1603231729590402 0.3942925537402629
Ni 2.4371780790421718 0.8061510865745474 12.358931152621963 1.2840554557133952 0.12052071779559244 1.499795950645946
Ni 8.816146887294884 1.1533111301985801 2.1965696269780004 -0.007775530180360804 -0.21157222248747432 1.3318203818025
Ni 6.7828880543634495 3.387313688827038 4.087579606974008 -0.5285933560390832 -1.0475707862549573 -0.23045440410395795
Ni 7.6037301511577695 6.496780908783151 12.754461635126031 -1.3046985858850433 -1.6683649300990169 0.1831813300496071
Ni 6.940704106149397 6.73666539142785 1.5873790618007662 0.11760688658290712 0.0387642652523913 0.8345795719327691
Ni 2.0723346182645437 4.2801536162220515 9.282579036445293 -0.6009393139016618 -0.4661325185007005 -0.024121061417919747
Ni 4.621635140732831 0.17800180426633774 6.117695670092192 0.5903155156392285 0.08622502983751601 -0.14498476437522773
Ni 4.397548042087409 3.1384631233719396 0.9596251781754999 -0.05303697312132156 -1.0235695382443535 -1.0130820084494683
Ni 3.8084596944575484 1.8131350027746673 7.81488047317676 -0.19611886404688159 -0.4797472810706576 0.43509673224081846
Ni 0.8547442852759616 7.1701560038263015 2.693102196991893 -0.11222402500443898 0.5104981891002691 2.7460240510989222
P 0.4655995843180139 5.977555610132461 5.06871688673301 0.8777975020811398 1.6214700653196912 0.47984266899794137
P 7.687469280676844 4.824105255045521 1.0079816945667017 0.015478555251573343 -0.8373208821233322 -0.0387210707192817
P 6.932471274417695 1.9687420196652987 13.155615874953934 0.7725838469562629 0.024960269489763463 0.026545097478380086
P 4.610227981546515 7.288886988619916 5.375267814920128 0.4000610807929239 0.066132372852699 0.3135277756863697
P 0.46728606179901766 6.157480574190014 9.420490570025338 0.20699488752943707 -0.14171689225723336 0.7604374414017162
P 8.706948166524334 2.652837431112188 3.935594293512588 0.5698613615499347 -0.47272277012370856 -2.4551785475014167
P 5.823201617237071 2.4197007147233496 5.761112886023938 0.0843478674194612 -1.749333082412968 1.2586668404369614
P 5.031958731708139 1.6669581516556364 2.6903436878705156 0.43936347793697234 0.39658109266412345 -0.5584371788733931
Ni 9.697199107475399 0.33210333603083386 11.57676758614596 -2.5102137819996897 1.0920020199851388 0.7884431825860229
Ni 4.368951250018214 9.289641450948848 11.212237845450105 0.4340009280734784 -1.6943451562128629 -1.192235962507237
Ni 7.963236657881589 6.109707874164003 6.744287489982611 0.37312311875149934 -0.9743221140724511 -1.5428593574943235
Ni 7.703591522748961 0.5317137711366037 9.412679125622406 -0.3288147837524273 0.9692305584821567 0.0963960568332469
Ni 0.30986076786640143 3.909471991792517 1.820601169454466 0.15993084416209874 -1.1677590604117956 0.20636368170334138
Ni 1.7210423799539787 7.934157219532747 10.683088596757099 1.0860216340319877 -1.5928441740528825 -0.04155596906491553
Ni 7.95105912097968 5.24973430208123 10.680697641340991 0.5684966199919241 -0.20738055300362992 -1.202833278407109
Ni 8.553754381031947 7.750426775193346 10.809901122237061 -1.2742533820213087 -1.0738628871822666 0.21041214074110212
Ni 5.376865188472581 6.351448688653505 7.626787649002071 -0.06626118512107942 -0.12014970760941887 -0.7032908169873952
Ni 3.1055874864004744 7.293295776751324 7.366152160830239 0.37283875474186107 0.5500016465115302 -1.5460920054990082
Ni 1.9249418697871663 6.514657384448606 -0.12543141458743245 1.4738823161039778 0.08637621070339964 -0.8673824773954029
Ni 6.521126700927746 0.12059288563395279 4.372843049730845 -0.18557605553402878 0.3897807819128384 -0.7554399881871247
Ni 9.745742185217004 1.890998842004939 0.23400547969220667 -0.6210175727087756 1.42801897791296 -2.175534311936369
Ni 2.104764735593256 1.0031524472724462 9.951568547505097 -0.1828843676344786 -0.37806220792432954 -1.573144638741426
Ni 8.39947464141035 5.357188070917667 3.511699060419924 1.3706126720793492 -3.673142253792061 -2.7724452214049284
Ni 3.4796012264914307 5.7690060090280415 10.618058507735872 -0.05746466987537199 0.2569159407295962 0.2757328163257832
Ni 5.563909185154955 8.72057364226519 1.6761145084801283 -1.1189361253718215 0.9932292353895991 0.696768185377529
Ni 4.88788881723296 1.1604672894602965 13.121491854816838 0.8124847969162587 0.1627747413687971 -0.05815064019880308
Ni 5.402408314657073 1.714916484866128 9.55597030888869 -1.1165267445993805 -0.49886806106050857 1.332548518217776
Ni 0.7126875626864715 2.6231175582768884 7.612998816058873 0.45923116339517683 0.4276806422824054 -1.3643849460020827
Ni 6.919226346705024 2.6868361488497596 1.5279198246457961 -0.169536742682979 0.823940089941052 1.3000294625441482
Ni 3.4953893288314823 0.8494927224870134 1.3254877651359254 -0.5032121969618172 -0.1785309757617893 -0.006678954682072368
Ni 0.7668311936038474 5.15054120995417 7.2580050520497705 0.43176663942632093 0.5494118354463312 1.4087431604024834
Ni 7.958345223470533 9.281055916166633 0.059786879725577904 0.024762551656660577 -0.1913939477673865 0.7481195432663116
P 3.6793982229476034 2.0888930983201885 10.96491504110328 0.6870902959681328 1.084184837933565 0.573311010661432
P 3.2180811961955507 8.205190950533243 13.335857343591027 1.2895529884928565 1.5213556790945928 -0.05867077436833122
P 2.576013137715006 2.8527086808421527 6.402783689489694 -0.2733825709260518 0.6591493465834906 -0.9645377809921775
P 2.887570592887558 5.643211681564949 2.406968134599844 0.2683941165725249 -0.4634878817890018 0.22641468681694557
P 2.6269044752402873 8.96469056151604 8.364677700979515 -0.12575394117007374 1.376418994348481 1.3387199371358105
P -0.018586522596092427 7.6147474806566775 12.880622588128473 2.3600400172243545 1.4975122968180918 0.08783171220300356
P 4.948340263758977 5.393228753684522 12.23160256688914 0.28591489906510753 1.872132568940408 -0.5600842275585128
P 1.543029437696572 0.13913021543615792 2.841446315539732 1.0055821005279972 -0.3040954266288763 1.9705523410719032
