# total energy = -340862.88250290486 ev
CRYSTAL
PRIMVEC
9.34903755475993 0.00000000000000 0.00000000000000
0.00000000000000 9.34903755475993 0.00000000000000
0.00000000000000 0.00000000000000 13.68326147658770
PRIMCOORD
 96 1
Ni 6.668556453190356 3.5092454684686674 10.934061480272847 0.7102315099712865 0.24231001789096332 0.12911077345744862
Ni 1.8367306584530845 7.222253215143731 11.414686163012588 -0.906982094064896 0.9421280458384098 -0.12050606250757309
Ni 8.960893769309523 4.639310408968695 5.00711557841384 -2.3156136685901796 1.1240503066699352 1.1803307264292189
Ni 2.6333341197576217 4.910806465821816 12.059195738252756 -3.25855521146882 -0.050816054210602805 1.678394803531193
Ni 8.220010573116715 7.189709214664885 11.34539483467331 -0.06601590187949277 0.4080793231117101 -0.27683839068513616
Ni 3.2937407988226184 5.767253117894838 0.24283003724144475 0.9451508918251336 1.0627395235755956 2.252781563755307
Ni 5.6858510460277545 8.152155256978977 5.731918429641519 -0.33998751253979514 -0.19022769537342724 0.4787833744954915
Ni 0.23450939362576723 3.7050984607212842 11.785941127395018 0.821078966343173 0.2845087627462003 -0.5421561823251824
Ni 5.680372509894286 2.384976931386302 12.91032185293063 2.5894117297870953 -1.6530884635559207 0.6058372654239114
Ni 8.102726894286743 8.115170463559178 5.333242737478434 0.6235429102337906 -0.5856399645404301 0.28251461513430703
Ni 2.9084856503789767 1.8007462120747217 2.4267671302200986 -1.077576331478112 0.8201060609069425 -0.3413977626237604
Ni 8.860868414203756 1.0258792635864207 2.6489152261058106 0.5787571213776678 0.5836931252267045 0.8179723023933911
Ni 8.3701654687475 1.8552884984273765 13.49991985482621 0.03451551727836637 -1.2204607616808854 -0.7334128331837563
Ni 5.2355452927775 3.742092603178853 3.4611399946209493 -0.400381183136504 -1.6398125723826211 0.37565951202010783
Ni 0.3512545678801627 5.47399250111217 3.062532550433588 1.0720147782299345 0.8306221299469179 -0.38503889635247884
Ni 4.946220620896183 5.252981248219342 5.145727217109481 2.432860857840823 -0.007152808994697358 -0.6371931540273735
Ni 6.528218047218518 5.727921715994663 11.717811884450606 -0.066168368296957 0.24299213155965246 -0.24959163915404112
Ni 7.0670404900791475 5.861547512847336 9.142649347508119 0.4352571690780826 -0.7515445097874606 0.5500345566319946
Ni 1.910260840517471 4.094364346368438 1.2121737996225563 0.6703855816189422 -1.535194384749898 0.7930416005899826
Ni 5.537220043553551 1.750354898492135 4.865357053604675 -0.9287914766305037 -1.6547349980204082 0.025686091912194474
Ni 7.329037924557516 0.8198311456451561 6.512110590043854 0.46229488992216505 0.6382007693562814 -0.32972649693341927
Ni 3.571126749471105 3.1490831374008446 5.376440901400456 0.6512036093738527 -0.26854349766619556 -1.5230479791953513
Ni 7.221196773875673 3.408060832679366 8.282601446085929 -0.5249732427879926 0.3258328183059679 0.4166922615917017
Ni 8.866272158035061 3.4822080512366003 1.9080217459714544 0.4010293582434642 0.6618052961490989 -0.7929495550968085
P 1.1217723439976621 7.318997057992081 4.459867782714504 0.4725147678779604 -0.4628520479772158 0.3502073904955904
P 3.432527264524566 5.926102618652116 10.52993997360849 0.9159555012080999 0.6339479076171984 -2.2539992382124923
P 5.761821326950221 5.476404552856939 0.7673297542377848 -0.5641799948944412 0.16072711481114899 -1.0986958870655466
P 1.6569673602033674 7.414665761496831 0.5993696161732283 0.18606327958309246 -0.8413780829118414 0.6491935209223594
P 0.9876790952564675 1.569049009010298 10.34108380122326 0.499216702649179 0.5305494513241895 0.5011465726820401
P 5.744759333019197 2.251893378724313 7.140007860069754 -2.1108985782338547 -0.7386445138963408 0.874766685674616
P 7.099378811727045 5.766065790097994 4.565597920667786 0.23147873160341426 0.16392582425410476 -0.2433775399235292
P 2.2036429947911538 3.9531190837328687 6.710271859721988 -1.7712064854472913 1.0553087783291633 0.502700033212089
Ni 1.2537994553915932 6.139466358648738 6.812869135118401 -0.3264480832924636 1.0151689728854838 -0.02828419165667387
Ni 8.75298051833306 6.907452415338006 0.5491110589269818 0.6159152184852038 -2.0346715401493154 -1.196595010806881
Ni 1.4656580003071764 1.6512550981256382 12.647917735309246 -3.1927735370873207 -0.392833195585917 -0.974883643002876
Ni 5.065991143773087 4.33197014130377 9.621412636827767 -1.7463426323260762 0.6367205852663292 0.36199487004882175
Ni 5.891361594297219 1.4809343280240495 9.241620131153383 0.3990537225743321 0.5357698191828644 0.7328091381614864
Ni 5.714047743943354 0.2705742417289557 11.376277511140353 0.4061738785588811 0.0964384800354081 1.0039548493372195
Ni 2.5545123823151745 8.24901128828057 6.319450294189836 1.5930940852801596 0.18242979659556324 -1.4832958961083937
Ni 2.381227967240362 8.656143185107005 2.855176502108241 -2.962211917981537 1.7128108191172178 -1.5841574449121623
Ni 2.6900173357597037 3.4460459731405995 10.534647214125899 0.09528508315725526 -2.77184075505171 -1.4759816218351678
Ni 2.7705873432652197 5.791607361286793 5.06867712232453 -2.0713686384600325 -0.5377827358478351 -1.8226185213706807
Ni 9.036060032983736 8.104465815312043 3.1074144760580635 -0.31987582939158454 -0.9859031340418312 -0.7983709832226961
Ni 4.876345912600032 0.11994441497943466 7.601818539200291 0.1225817140896792 0.2987596162382597 -1.5264752597093452
Ni 5.024677745865582 6.972082313444949 8.221587755788587 -0.0808452535828414 -0.066418279524234 0.25740625010245344
Ni 6.472123820595972 7.682225873448603 3.49626526442821 -0.621830041307742 -2.3951692568273204 0.4439084169951774
Ni 2.8896099431204902 9.189412299532004 0.27371271370848715 -0.41781943321760945 -0.44465686512542774 1.2649398179298665
Ni 3.479824046605142 1.8322431203232807 12.936880599428852 2.768171019509607 0.8557667475333456 -0.07169958252783135
Ni 4.817129107362164 4.414419305401141 12.338443082321334 -0.2540028808478593 0.3338718865603605 0.6446773782195607
Ni 5.175038320327315 4.645854735407992 7.3021959022148515 -0.04581705833411464 -0.668645458999384 0.5428884325055165
Ni 3.5145557219222683 2.747700898803221 7.94654093439026 1.67552930905794 -0.33395107653772804 0.9784104252092117
Ni 9.318756237085823 8.967755963033015 0.8174172240928326 1.068310847015786 2.288741526789684 -0.594617485448692
Ni 6.895700674860583 3.2892439116550443 5.7890326362848175 1.8293170164367787 1.7073035161457435 -1.1570283042578524
Ni 5.877366084754894 7.555854929905778 10.205346056738247 0.5368383696566948 0.6197338209003456 1.2821273854527466
Ni 7.1759193839535085 2.6064088909787997 3.153239719593575 -0.5168025340517423 -0.7028064211518089 1.275983734448854
Ni 6.865839848221848 8.935866395198099 1.7285650961606074 1.3174738832728408 1.1499269173263809 -1.5165294613505431
P 7.604843887822802 9.399896535895333 9.94229872531826 -0.1823251526968989 -1.3306852397567923 -0.2442630278522761
P 0.8812449747590728 1.9684492516005911 1.037342118796738 1.291457404604421 -0.6179777574411873 0.9094485533275176
P 2.361314516789358 0.9181774135673567 8.602981751633042 -0.4308682959817676 -0.9777008007366967 0.07135222649074163
P 4.6807453443672165 2.328602233630644 11.060249182675372 -0.5106807374247204 0.8596383146736097 -1.535904523443045
P 3.0674847357405817 4.124533691253597 3.0178572385438387 0.7858060020734918 -0.3347638022470106 1.0131162041215132
P 8.827277321494622 2.060770999583531 5.18997901758823 -0.2328182763504442 0.2109325320209464 0.12315481298432986
P 7.663022949868151 9.099109943707475 12.94087637817193 1.1368078634459196 0.35647651133375385 -0.35987653815423826
P 4.11204337679231 6.706186330216313 6.409253411397423 -0.13418767375972374 0.9483030643008701 0.43988824009219085
Ni 3.925941430934246 7.794470420920316 3.959716699687457 2.240352079742703 -1.2047389800702542 2.981538386224291
Ni 4.638169826360704 3.344160159518516 1.1583897202330828 -0.32517538722762707 0.7682579658873995 0.1774462273380428
Ni 7.743303137202784 4.161060381822645 13.285270622136155 -1.1197182549534845 0.8849888776232565 0.6253424253363745
Ni 7.3079558443852095 8.095238315032635 7.654252617535716 -1.6543878990936347 1.2806055494915816 0.9015742927857634
Ni 3.978866333752617 9.234624246189775 9.650147839318942 -0.44093802151294387 -0.057702754028107074 1.396129842513847
Ni 0.858948454580388 0.23896981954603663 5.059468320120662 -0.2532886283896541 -0.1738194292187329 -1.7074873500217753
Ni 9.171518241239411 2.144650566459777 8.022003562561792 0.5557035819923138 -1.2522869050525465 0.13550639257114727
Ni 6.416618583352963 7.498994082186058 13.27816909304574 -1.1982011789517366 -0.8485046666542937 0.3255245430369297
Ni 0.10292168700704622 9.123959686101264 11.536426528147722 0.25964593806624964 1.3139941522543563 0.4362593850903519
Ni 2.7296666049440725 6.366199222657065 2.4712928575055204 -1.8353740212641358 -0.8382351664074853 -0.11430918966824184
Ni 4.742420946538704 0.4225372412645393 3.0048031771049954 0.9546426333656526 0.3706618016952004 0.28400971162259475
Ni 4.89811047252958 5.832855315929905 2.8170829128088704 0.9750003710863983 0.017151057857989815 -0.6710098454665026
Ni 4.035456059376995 7.128089706720018 12.249940416267613 2.1706947244558807 -0.09418516522485715 -0.34413444482863315
Ni 2.630641596879739 7.5001253157562795 8.658234564856249 -0.2648187405164407 -0.015216559839438308 0.2657006289007618
Ni 0.413011506680254 8.301580927663666 9.319218079551682 -1.0561405302018392 -0.7621148291041391 2.0338097063696523
Ni 1.1205008748608845 3.2778754817262086 4.517939330825494 2.74951020987531 -1.3593399273790072 -0.8698443086723341
Ni 0.14487362419427086 4.525616760642566 7.975192930445278 0.5115024619950674 -0.5493125908643055 0.232955830369573
Ni 1.8996403336102692 1.624675783744322 6.633809819412797 -0.3339557045234184 0.31789787972960737 -0.822720358601338
Ni 0.6177778715431935 8.882997586606349 7.275650244369508 -1.2957033243649685 0.5556187355879915 -0.5548607743760444
Ni 2.777337348535466 5.037551370875456 8.64600134893365 0.07185770537225043 0.11385050486426844 -0.5048839282372852
Ni 4.681437173162227 7.823489834159712 1.6218635931829786 -0.5993112913799356 -0.4508750781209977 -1.0882281547650035
Ni 7.537699098555614 5.76004500977384 2.06115057051701 -1.0509746697301836 -0.5785702021778423 1.151924921593016
Ni 7.602983429306486 5.360298852786042 6.828796155864096 -1.1291495755697134 1.400150790747782 -0.7335920390740979
Ni 8.269999878075174 1.9299686121375252 10.933760441256641 0.15093712530392067 -1.0458160083473795 -0.5795659904322084
P 7.035412695301802 0.2717568950069144 4.037588574892428 0.3290425834925172 0.9976417626349979 -0.035142866449720124
P 5.051976936155222 0.474253313499195 0.8107345318945334 -0.9163897605320412 0.69346277515338 -0.5518384426099529
P 6.773303072370189 2.4915746600446793 1.0668186999831086 0.14738977427229455 1.327615599692533 1.3490884248543282
P 0.45513453125867737 4.8735038051178226 13.69407132220461 -1.6602410154403018 0.9787616379010434 -0.8704400332748041
P 8.73910654628175 6.775836661605974 8.054871039747496 2.9403269449829876 -0.7976387330423618 -0.042162749410979
P 3.427067426466638 9.11133848511119 11.904752438996677 -0.5913236451887687 0.39098302975105564 -1.660217104180902
P 8.507736559539293 4.244397704508206 9.872555838454673 0.04532649185094129 -0.42389340732583125 0.9939614855699332
P 3.210338032872664 0.6088186886477961 4.709504854356595 -0.3732719856245378 0.7161851564515601 -0.052736154051451115
