# total energy = -381177.7724192276 ev
CRYSTAL
PRIMVEC
9.11155548398825 0.00000000000000 0.00000000000000

0.00000000000000 9.11155548398825 0.00000000000000

0.00000000000000 0.00000000000000 13.33568246096691

PRIMCOORD
 96 1
Ni 0.8604041585172171 9.062279919813152 11.739894471801781 -0.8096974639791088 -0.24442397891017262 1.4773797877342751
Ni 6.62343549442386 3.9089118545889785 0.2494834932157145 0.05259860003232232 0.8372339788364807 -0.27424800425014056
Ni 6.946968596834421 8.569700133584208 5.935258863648973 0.09374987745965144 -1.9157983852594747 -1.1346283392960974
Ni 5.183745990295617 6.208067027047767 1.2259369746700757 0.8832574967544466 0.5674154711126035 0.7994230786362941
Ni 2.121534515187428 8.016865632748948 3.3588982912468555 -1.1247259925807211 -1.636173432968137 0.24301604281905245
Ni 3.6128774258033762 2.461805544519478 2.0808331980626114 -0.7176434861646416 -0.243988948255283 -1.0324154186707575
Ni 5.851176521011965 1.5372378142106877 2.9647889044876474 -0.3651488422967711 -0.23218038565612914 0.7956998641484361
Ni 2.71403161585352 2.8233793899334216 12.629597747253532 -1.8707441732333137 -0.14174954526738168 2.126830676083079
Ni 4.562629494713687 7.063678507524319 10.318404388050773 -0.5093046830128003 -1.0650730568047788 1.9983410811493971
Ni 3.803855623013171 0.25597820976968116 4.730379604225631 -0.7328394771787895 0.056567611982399346 0.12172785072981616
Ni 6.105689592703815 0.6326398794565115 11.844726559119414 -0.25007037856267256 0.4389906679785859 0.6920211576108469
Ni 5.103700977772333 3.0429860936142643 12.165262871021277 0.11030675337706808 -0.18074366714239193 -0.5004302633413059
Ni 5.910848096084814 7.063131814211696 8.343789144853295 0.28153168239574744 0.3384875309555009 -0.07372458337766012
Ni 7.580066787518016 0.48658256058946564 10.126570615806726 0.7287449953944417 -0.06415442319072176 1.2139129332600382
Ni 8.620679284986345 1.473876059277629 6.3348752743773415 -1.1564611189004728 -0.0344862067023277 0.30245634836355656
Ni 6.994184675934667 0.5591761432616924 7.935851150751277 -0.2925609436267155 1.8045642349721311 0.25673827750115136
Ni 0.0845625215965963 7.2120510725703255 10.465776504334679 1.4741419975232675 -0.6118179084873785 1.3735460436760603
Ni 5.94009618831017 1.5373289297627917 5.508103688452719 -0.4846280062017266 -0.6790640832295466 0.022721609967231837
Ni 3.4532065322964858 4.747430057490837 2.7033027595932846 0.2590000769521346 0.9714697322253205 0.28153193950606353
Ni 4.036719639525132 4.622045946240647 9.296197232107435 -0.02843048742655104 -0.13847755938432926 0.009971509390415084
Ni 1.466459253336371 2.208394971008085 7.351148074412153 0.36201389621221525 -0.2846512018613356 0.45453864301551394
Ni 6.622797685559132 6.696573948097668 3.1795464384855197 0.4271674500914127 1.26038767978281 -0.2510617959416644
Ni 5.672681154440406 4.642683618792183 3.6122232161392707 0.16619765100741699 -0.788791567064377 0.5143946959411979
Ni 7.771373000715383 4.315505894297464 2.1556600229169054 -0.6625912823855041 -2.1181922836817906 1.6177813036141944
P 0.5161942038677152 8.213793675511127 6.899748873112092 -1.022631599811116 -0.14360253931572042 -0.5090452587038266
Ni 0.41281176498405636 6.842969305663019 13.31071747851797 -1.2351471600484663 -2.868779314651988 -2.5396631976090585
P 5.647542373614937 8.561244610348965 3.8189525588412674 0.4480414653269445 1.0129925340594554 0.8989566526572581
Ni 5.566221743362198 5.708598905079768 12.31339489100973 0.062172616874002606 0.14756460928726198 -0.26702089037408205
P 2.7061865668173732 0.9975148413231801 0.7737578242440043 -1.8819588110022103 0.6234485507477714 -2.4968085643373774
P 3.6601755089005157 2.732045160504463 10.596399759830845 0.22805530774416208 0.7926021990597187 -0.8004412354881634
P 1.7631679372075415 5.558322024994789 3.9427075240198395 0.3321222508591054 0.1988912845856962 0.25126054221603183
Ni 0.3299886392771237 0.5964178028731233 8.76651701537282 1.07630466385454 -0.90243124146942 -1.2017225618414338
Ni 3.025911039149992 6.902294641637875 1.091883218637199 -1.1692227894415153 -0.3981540935781982 0.18097403798564315
Ni 3.939362672102105 4.496224480340358 0.5246752394575471 -0.06784035668274122 -0.7990566964358109 -0.9050239418972608
Ni 3.0513322781869827 4.188682157324032 7.052588833677752 -1.5261099059501266 -0.4723268202368704 -0.04551289683013452
Ni 7.442309184292116 6.197351838120348 0.8998681264444622 0.36402038511928275 1.1264594303320599 -1.1205543777015345
Ni 8.119206620872058 0.6651444415140602 4.031229927510871 -0.25889903259789604 0.07204051080701786 -0.7789969495714584
Ni 9.223262877270338 4.169711899375999 0.2976070832149153 -0.37540085904208254 1.8747013581088487 -0.614723769280264
Ni 5.123254375253832 0.11804384237269887 9.783149721838443 -0.14477547657789902 0.4539310913385022 -0.6349858619634096
Ni 1.7567078445633746 1.2534037578517994 3.055204689151399 -0.2969495596127144 0.44339316792165573 -1.390688874003934
Ni 8.513855411699721 4.948658754312321 9.575219476159715 0.3988197521866551 0.728437491456352 -0.4817697108173251
Ni 4.58577284494808 7.396851635347475 5.670412377193019 0.5172185385432383 -0.30720131924770966 0.7735456966489
Ni 7.885805022602684 8.67884745344948 13.09701324030242 0.42365043807708974 -0.13263344189872642 -0.16692964407743507
Ni 3.2667567780262554 4.759539314365446 11.623953576371642 0.26465907501012487 2.0379759219322 -1.9123096553799255
Ni 6.298727001391157 8.61451076210891 1.456696221928437 -0.3862267460129929 -0.8970964595200679 1.1147547403006222
Ni 3.763956122746869 9.086252421571691 2.134229645062066 1.2319389375238137 -1.320618085328777 1.1188273677080989
Ni 3.702762917953883 5.309120989990596 4.922000166077759 -0.4934322347569179 -0.18415320704457316 0.955853108733986
Ni 3.130083449870391 0.9008703975176054 11.641943430979037 1.5392932374096202 -1.9037088010847925 0.705827724476636
Ni 3.6009139538121335 2.5639916362040123 4.315706348512093 0.4812961136150163 1.1385289599020845 1.1615549884836123
Ni 0.8826026404762926 4.080281984986011 11.250621268958689 0.030674289155405238 1.2058514964081428 1.1363388942293011
Ni 0.37520564316420985 5.8084159924096 2.4271479219657137 0.7360104187076033 1.9829036635484043 -1.5317190246067878
Ni 2.4192272470213214 7.245262691312201 11.938476261834648 0.7364364505014285 -1.1253463997735393 1.7368956279805634
Ni 7.519748292025227 2.9943759465668287 4.464693032379279 0.31789813683992346 0.6731605732609182 0.07053384435450433
Ni 9.066052103670254 3.8270354194684053 7.243062250728891 -2.0972560477497555 0.2903919609998547 0.6856605055001417
Ni 8.039699190106187 7.787491341882565 8.68452941927868 0.36929217504118333 0.3634156616557483 0.284798011851845
Ni 4.91063623441936 9.011309879966225 7.281055613645179 -0.6454646500075465 1.2991645434406915 -0.08605507991855502
P 1.9028480785828348 5.288310197890064 13.28915407195706 0.9388552886244089 -0.20124872907427924 0.06382300799323203
Ni 8.253620283335746 2.5873627753186654 9.296064203401365 0.6491418417488175 0.80333372654461 -1.245111727460346
P 8.464507228680244 1.4845092442081553 12.126815752655512 -0.03735350094779374 -1.3416558798356828 0.5517080876796756
Ni 2.499910068409333 -0.1635761060700645 7.375432191358888 -1.0950809160207784 1.9440314119632387 -1.0515580530374793
P 3.2531987838731937 1.8167621049550613 6.3693752670259665 1.42368821174809 -0.1311177765851484 -0.24504798564741667
P 7.865641150922089 5.4962541109016065 11.755270221219316 0.08127642758298906 1.1695367211375083 0.32564975576088434
P 8.815630120267869 2.328612830453983 2.73145473172683 -0.3179896681124652 -0.017073153432202854 0.010518897253452852
Ni 6.094582606902348 2.466324875903832 10.07312041063153 -1.065411928201436 -0.2551886736258444 -0.09054499736910858
Ni 6.2628365854174275 5.045195681766413 10.11447502626493 -0.4154000251428394 0.1906519273950394 1.8673248631391197
Ni 8.114095038399029 6.40529575113189 7.012115305433196 0.1847908406285721 -0.5049101534895304 -1.8777013212774372
Ni 1.0792454915603868 1.9053173100448508 10.55388524321916 0.553328396891918 0.23341245829101734 -0.08820040839633196
Ni 2.4194277012359495 8.517946499989186 10.12120937672093 -0.10912481725382496 0.5951527891268718 -2.969189634850951
Ni 1.4942677198384842 3.603182731059521 2.504708213383125 -1.0065148967549118 0.1176660219556167 0.043569914171150775
Ni 1.0312731533776784 8.4457920942781 1.0458844433130614 0.8933591039648228 3.5158732727328417 2.2577265664654087
Ni 0.7853440778495374 5.243053103160052 5.805022849249251 0.47792873980468015 0.5126057223615753 -0.506748749360166
Ni 1.6508680192394733 4.003918040767725 9.062475818250176 0.04288728628182936 -0.0056548842929321965 0.1826822789260015
Ni 4.983720018761905 1.1210219722000294 0.44947939661723263 -0.8544709115400575 1.33289227471044 -0.584298105800555
Ni 2.2236568259854894 7.1386119375745745 5.742438309975638 -0.6175262717260654 0.3891020106782589 -0.24379945795229627
Ni 5.050571499340544 2.2752555631419336 8.025919785161513 0.19976083167484307 0.15474724307863025 -1.0533637387876504
Ni 6.260941381933666 5.760097415128897 5.622523865318246 0.2604668913056482 0.37545716620131464 0.4794955700711678
Ni 1.0608948193666594 6.323437539121738 8.201017452795115 0.32281999962157304 -0.07125606723250955 -0.6177558712383684
Ni 3.020553444686282 1.5294929922818556 8.950830109946214 0.12049654942587636 0.03477545580797237 0.8214376352341723
Ni 4.755265994971772 7.97101628693026 12.925916456561698 0.04482872627891634 -0.06367285556861293 -0.5324448685746894
Ni 7.722525953232478 3.319184666706845 11.578532473647842 -0.6605647388737784 0.7270655508094898 -0.5743368808227851
Ni 3.5457070407923745 7.326738218003516 8.290033702578551 -0.30981921648653094 -1.9910440332673516 0.10405434470945304
Ni 1.3428518953522075 2.9331736302186324 5.004628304503188 -0.615989780476881 0.4721298737347159 -6.35062480837616e-05
Ni 8.087607747402423 5.365639966960652 4.144530294241041 0.5713317754478742 -1.620983612601576 2.1577723599672582
Ni 7.291786292216456 1.6885716347000708 1.056597809929439 0.6588341293359169 0.6037315319348182 -0.20449191860192525
Ni 0.5549629601324076 2.0839766846101964 0.6105051783839088 1.1816941824356486 -2.4082147771573683 0.09457623001568873
Ni 6.937674810519822 7.493315670359884 11.050786640084393 -1.3001934989258381 -0.6443639607442 0.3045631102939142
Ni 5.0574325004139675 3.7081569586384346 5.984347367344954 0.6800431593133643 -0.23359243551230735 -0.2215136499709024
Ni 8.827347580268432 7.5372242549187565 4.44428952679665 0.8054458877916064 0.15471613273037874 0.5372772569663263
P 4.570957456175984 5.674330345933487 7.339265695262283 0.5547121646133221 -0.45141938066024195 -1.3294796494844654
Ni 4.310376088714014 6.966813564082653 3.307689528653416 -0.8842663976349351 0.07601569340468199 -0.06675689381057534
P 6.95066788824984 2.9776653543109717 6.823762147279515 0.952031935215683 -0.8154161116304409 0.1975849070694468
Ni 1.2606656673544812 0.4975528730627763 5.061918119044043 0.32260222718381215 -1.254617610068252 1.7864266448311557
P 2.139484278951898 6.330025193538851 10.00777598128469 1.2308660161746092 -1.3643715762656439 0.1394538072546695
P 8.206568212229286 8.124892231323342 2.39328847164838 1.3210567155280926 -0.2770494782546777 -0.8518249892767782
P 5.438450404646886 3.413543932465654 1.9251121637394253 1.061046966364521 0.33765166531776686 -0.7952848880982045
Ni 6.612155389073396 4.776732819047454 7.97483129509685 -0.034041920076057504 -0.9937941067541337 -1.4034631429504667
