# total energy = -340855.2548560836 ev
CRYSTAL
PRIMVEC
9.32389068727438 0.00000000000000 0.00000000000000
0.00000000000000 9.32389068727438 0.00000000000000
0.00000000000000 0.00000000000000 13.64645649414066
PRIMCOORD
 96 1
Ni 1.5673367095547075 7.610010439985958 11.517936495526731 -0.5802095375534781 0.8870125929215045 1.1302487221711632
Ni 7.381696327428083 1.7492924373517802 12.9980724493218 0.4515692759745448 0.07968285784362407 -0.06113954762379793
Ni 3.587273723425352 3.578537237801685 10.783471244575045 -0.7706110395006083 0.4037259312390209 0.4468919251035336
Ni 8.745921401095963 2.200121202427059 6.573921053141667 -0.3839083822924614 0.24988268803189867 1.2448661871084432
Ni 4.344103258706735 9.037712561813843 7.400459725153875 -2.143737479140747 -3.653255285060147 -2.7929986200762476
Ni 6.250727028410439 3.380218081755375 7.926844638843224 2.3433515008250803 -0.8286876319283664 -0.08661018109107664
Ni 2.931104912576313 6.024902394680226 6.676542591796698 -1.208463480109693 0.8728956939041482 -1.4310631640559226
Ni 3.1238390580691795 4.728033107720317 8.386157212103106 0.2756636536507446 -2.2952492460012146 0.8212023792949148
Ni 2.2222934146075066 1.596809528184815 4.093200156052321 0.645747728465604 1.3731629493050288 1.6690012781314352
Ni 2.762510320210099 7.251870472760062 1.489182924980388 0.9327617741321612 0.48192346278637005 -0.583036465479312
Ni 4.001468921781968 8.45915581748711 12.970765570510665 -1.035913404521687 -0.7183585099537951 1.806273504353754
Ni 7.597581693629129 4.879462417233628 9.190219713096731 1.8488337463134674 0.8652186369748647 -1.1978605077828661
Ni 1.5686979976027924 3.225972957238492 7.116995731256164 0.3170612427609249 0.2900397198667586 0.8534005612940141
Ni 6.793051133320341 3.4787622829896696 4.871484896316222 -0.1290251557221778 -0.18688063327806523 0.6175905493050976
Ni 0.2372995460643073 0.6607748128747498 13.152481674315712 1.6399737805508336 -0.949216834364391 -1.2592574228331086
Ni 2.9715239789355397 4.681143261187318 2.681542585410355 2.4516245116015716 1.8422110987906273 0.3082395307042369
Ni 2.731321905683775 8.776429171598245 5.1368260437819995 1.486773313134033 -0.36066072461843046 0.4202054169512828
Ni 1.83702092532732 5.514764360605862 4.581265743577159 -0.16408034755409803 -0.6680908720474945 0.016040855512946567
Ni 5.238161817903942 6.427619883535525 10.85475984839728 -0.7040595768326198 0.21910066965403557 -0.48000156317330883
Ni 9.030551813725287 0.008501523577011061 7.508498444329023 -1.6991600611030027 0.10764231917102753 2.2894364959741798
Ni 0.6418818130676677 7.343981189383545 5.505458185257962 -0.04080520694182005 -0.20058281335550615 0.4921469402865911
Ni 3.21159551771694 1.710225335149898 6.386432528579298 -0.6274376173025065 -1.4470734234412497 -0.021859519077252674
Ni 7.667529521962905 6.765209995569786 2.875472053696129 1.3130988941335966 0.0938195543553223 -0.9353817282535116
Ni 6.180555426698896 8.830573005127203 0.605060836145125 0.47750605044496475 -0.2834129585788603 -0.17876108949472438
P 8.33270521126708 8.22700026194423 9.895073219446278 -0.19390591555596284 -0.4175201568096357 -0.4499865048684573
P 4.062036916030996 4.408270274781521 4.523759715047247 0.6357926741354212 1.0136607637710737 0.6365848310194133
P 5.363969075662892 0.7915740817360593 12.498434980999168 1.1164503828354901 0.6323394254794981 1.5376790988449647
P 4.260859562177282 6.818514678932117 8.382513435601794 -2.3582037353465646 -0.9702713410418452 -1.5668454359962758
P 2.783088147073954 8.956687951280582 10.274594732917842 0.7206267371626816 1.7063370384674164 0.44342170716674595
P 5.380761402886183 5.956707457805628 12.740632366869358 -2.2338446176414886 -0.13523822651142517 2.401328591560497
P 4.855332187997716 0.5783367005052599 5.113723307305669 -4.178545801978243 -2.5719158869951775 0.3647672905876363
P 4.368970075311131 2.9348531166539162 8.77150522489829 -1.2691109185884208 -0.3687342456551843 0.4266804831526651
Ni 8.844456278439518 2.2254262418962494 8.87848008813997 -0.9987979877266282 -1.020297809471617 -0.411634130342504
Ni 5.624068331754469 4.497126953536638 9.866156104704292 -1.3486204840789742 -0.755768575171137 0.2623931617940836
Ni 8.7275160407746 5.383213586150883 4.933958693832569 -0.0007062820384052352 0.10615519310253976 0.48012883277979246
Ni 1.1797052759172235 2.288912613946993 1.086798299024518 -2.130433305832673 1.0868657271998379 -0.05957683112236836
Ni 3.105396402184854 6.123623749838587 10.104150280628753 -0.09310787300027835 0.051239772011582724 0.5686256893706207
Ni 0.33285730509448197 6.453353821978771 13.461164927887802 0.41710775186256555 -0.035599751481480625 -0.6525225852955923
Ni 0.4684490537963088 8.370261843169033 1.5230538228726982 -0.49168105639376614 -1.1178850583994877 -1.5087822133049564
Ni 6.743932876900409 9.126280199956009 4.825809952746685 1.7202523629969277 0.507114617340017 0.2025561350317931
Ni 5.879253897425905 3.719076242930318 13.704180951364991 -0.021768759135659285 0.030673260714140727 -2.0485583254337363
Ni 7.765877921491653 3.2048823163839195 10.738600952776396 1.806476107282863 0.979108736827817 1.011626249839548
Ni 4.520082372539271 0.6749676393596438 9.159638283857602 0.6444760608420319 2.362824264837711 3.007905820474226
Ni 8.954925735930663 2.236810712490163 3.117696478849466 0.14876300047073734 0.5618865708745743 -2.8468236363165036
Ni 8.358000926845529 4.877700201883711 1.1171960476160638 -0.25607698976806864 -0.8163229397154264 2.774383833188538
Ni 8.229853372510764 9.022262874857155 2.9825560064594696 -0.8211157331183793 1.2765884579123883 1.3860264355312581
Ni 3.6411098685598784 6.874485995046174 3.689974515151675 -0.8118368789196149 -0.41552575208742626 0.8037546161321124
Ni 0.8219634388259388 3.823662325364331 9.69638017538128 0.9516750660968966 1.457962816660244 0.7582445475154554
Ni 8.319884861499158 7.917708158306797 12.13201353401773 -0.40734758715200814 0.30135025978357133 -0.40176340819601125
Ni 1.795473668188516 4.463169343460443 0.38124270370222624 1.1876079768169225 0.2425416742857952 -0.08544238603522059
Ni 3.5317126585038676 2.482364699026863 2.116783334601129 -0.9438771673190324 1.6062221380216855 -1.139717838003863
Ni 5.913537843678011 7.566570433026872 9.119626671523726 3.4732163572942634 1.7333498196108341 -0.43719809485453737
Ni 0.8010294393358036 3.257814044116637 4.911373433292326 -0.4301321891466915 0.8163046848829812 0.18665514753082046
Ni 2.502923878109238 1.6472144815269094 11.819605386094889 0.4139157272878291 -0.6272463272273069 -1.2016711397782078
Ni 0.2843935858045192 0.5752262505542937 10.547687763145111 1.4257672057643056 -1.3293007007044397 -0.6546689422146338
Ni 0.8877817159508333 6.062403083237737 2.0588269621484607 -0.5065572021746502 -0.7418247113965353 2.1294714561400356
P 1.5751314822136036 9.00598336162458 6.963459222435545 2.776745134331863 -0.20049513873770633 0.10208153725379839
P 3.6761304021804686 3.2225510893368 13.30807876298994 -0.28308385737421565 0.6790134324972693 -0.8220948092021971
P 1.4146207031192346 5.339195497965899 11.633931290670581 -2.6751785890412703 -0.9365256120499678 -0.8263913796950219
P 0.5304165640454568 2.298991739837264 11.714050551412958 -1.4133575192460435 1.9005093203108883 -0.2712966349313005
P 1.9333833361283828 8.526120000783989 13.58347852378636 -0.5924014516339797 -0.061516728457558574 -0.8871501469406334
P 1.37273778591378 8.142684317979642 3.510905463927801 -0.0285209902578283 -1.2650709441910923 0.14959500945372947
P 8.228342902210834 0.5874899640450183 1.0465768991489857 -1.4119974056737232 0.5572961232904144 1.282983562805455
P 6.635449408136948 0.8407203098282124 8.531573544477993 2.0760516457579987 -0.10044065921626573 1.5766092002512588
Ni 4.999199822120637 8.72905448274675 11.081468386969672 0.49346565909801465 -0.717466594267145 -2.9184291164686322
Ni 6.746627481324357 5.583313605328591 6.636230750180984 -0.5395372566450966 -0.9653348229721761 0.1228678778715303
Ni 4.982938956669544 1.6789530056069115 3.4697209061387952 2.2182634753737798 2.008883632551934 1.776028332315967
Ni 5.794863362335396 4.139975318729214 2.20016315993539 0.061073470272552874 0.2431649096920909 1.9712316265271148
Ni 4.9503146629692125 6.97948232867276 6.2689226011901455 0.3413106022265928 0.6953556213007186 -1.124119983565606
Ni 1.6405758713198115 7.604406781651033 9.186303678985803 -0.9604435563181459 1.0656402421621585 -3.0439467732581833
Ni 5.4235114419304855 8.257069809581717 3.2471605665567638 -0.18892903116666174 0.5178150344766566 -1.283879592257163
Ni 9.273019592426945 6.281980710171945 9.99410506016629 0.33759201572442504 -0.9952946025590601 1.1953451975601803
Ni 5.821995884389686 2.5005929054241616 11.373653015876789 -2.908760740140932 0.6276497333133126 0.2757587844677122
Ni 6.84359594502354 6.377056424050846 0.4752638855383985 -0.05883198253654385 1.5115875439642354 0.9867410565620942
Ni 2.0201607872484115 0.5305079381747119 2.297612736396773 1.0471573528666225 -1.4965645881928418 -0.695164588335835
Ni 8.449365732209788 6.849814980147324 7.729693766306673 0.7476161212673318 0.2357066536418328 0.35826934156811846
Ni 7.273669729310897 0.7369155694382371 10.771667198897818 -0.7850619248186157 -0.7880480040301331 -0.811841506905305
Ni 0.39066263051715744 0.31374053190963247 5.200842012826793 0.7984375747945732 0.4225623472192336 -1.0992396753841585
Ni 6.255556803813917 1.7124350972553504 1.4462380166196125 0.4707972709662214 1.0918230712051131 0.4105516959116026
Ni 4.532641653366463 3.534696303540766 6.473524194817275 -0.5115284301369964 1.4493604197032137 -0.5760757178907627
Ni 6.847194966849298 8.491668224498557 7.1061874771100015 -0.5363845699487279 -0.10052370584837526 0.12189420110435137
Ni 5.881398392296176 6.071699002305823 3.949052805207189 -1.0731301227813002 -1.976345293604596 1.547413295413593
Ni 3.1374519385500266 5.9912151774355005 12.435224596114336 2.432992241212365 0.015049952354586985 1.8659488087271994
Ni 8.771580748413285 4.4083541897981835 7.108807490408028 -0.49352556580167267 -0.27906702290533875 0.3408799424470775
Ni 5.733372302903077 1.3140998370479953 6.7329838320040665 1.943405605453782 3.160269136701712 -0.18790033279183124
Ni 9.079893843522987 4.0225875343087605 12.932392165779861 0.7603986177439807 -1.3980234599921342 -2.6258105801311036
Ni 2.3468232993350338 1.6743936230349017 9.370516720731104 -0.27787531659008274 0.6055446738841571 -0.4736380828491263
Ni 2.9351421572668657 1.2773637075311894 0.30942636766409287 1.9657158389152078 -2.5011370165094022 -0.6567039703667916
P 8.107710403812755 1.5685674631324278 4.791529736050875 -2.554877957676284 -0.5476406024785213 -0.3388474853980809
P 7.769924490072947 4.573014100271989 3.2764049498637338 -0.7339059707700909 -0.567320597405952 -1.743264764731701
P 1.0297025216871798 5.531435477249528 7.89275556190759 0.4856099104990217 0.11019002529354571 0.5010020766843759
P 1.3843833254484221 3.6415667392061537 2.720939753344444 -3.9202478932994547 -2.18161368536123 0.5850285562086764
P 4.5489677860527395 0.4416717719792238 1.934999166393678 -1.1499436294969292 -1.4476228681868164 -2.0804770285192045
P 4.382191352380885 5.838331340966702 1.786239286799317 2.4837388756376124 1.6695908320863182 -0.5795441360553374
P 7.27587949141635 5.065240940234226 12.3991430037275 1.3448597314849613 -1.0715944028630642 -0.9103731220243161
P 7.5139650414700645 7.184244293220622 5.411679424581037 0.44928202260226496 -0.2932875373800949 -0.21865792568966214
