# total energy = -340871.25542340695 ev
CRYSTAL
PRIMVEC
9.24749735151163 0.00000000000000 0.00000000000000
0.00000000000000 9.24749735151163 0.00000000000000
0.00000000000000 0.00000000000000 13.53464712529459
PRIMCOORD
 96 1
Ni 5.366812702453613 8.735620422285571 10.648017624966924 0.2520691541602562 -1.0563935267529099 0.3979646032752114
Ni 4.82245878383868 5.839868418188716 3.104915593204134 -0.09964464567753162 -0.10964700830588214 -0.5327780835443922
Ni 8.811671838690723 1.8296173073637032 9.527539086593876 -1.4987009178095545 0.34962066475418496 0.30467289639890105
Ni 8.619277660880755 1.4435527971396958 6.878483488209795 -1.2187417221072494 -0.00741686128936142 -0.09433711742168914
Ni 2.1790154914633892 1.990061382586146 12.39946861333162 -0.013870587334505143 0.21984423268827946 0.8181754195431329
Ni 0.19109767871220348 8.606451382360092 8.185009647111821 0.3475810086163369 0.5189064677686224 0.18161552822438398
Ni 4.066697833312494 7.132659269602102 1.2162761354019729 -0.6714893562060822 -0.1331402063318159 -1.416057948896342
Ni 8.369465773384556 6.584088492295445 7.947341572848019 -0.4075494187501691 -0.7841504687479398 0.6446028162278834
Ni 8.358858894175325 7.426026868585201 5.553332870085983 1.405375015261199 0.41932070035348434 0.8548025838478633
Ni 2.0056619102461033 5.185136373818448 4.490295160141996 -0.4961961706553003 1.009308657449965 -0.7823362983573365
Ni 1.169845377057053 0.07326329602016143 6.099753604309689 -0.681892039596645 -0.32658538020127625 -0.2897584411809139
Ni 4.744113988145048 4.03617184528314 10.620840155648697 0.050861305626241436 0.623645754360242 -0.24684930052221357
Ni 1.1940275820545567 5.628701821202868 11.375356393061054 0.5477640154302632 0.5558704465874813 0.5375045424857839
Ni 5.612851611120374 3.099196940978338 1.545413053287689 -0.572151186025376 1.4298179787949117 1.4113700565023692
Ni 0.0753606283694669 2.5128131479031173 0.030855198927216235 0.11958689312741341 2.0555046748445824 -0.003574861835451908
Ni 1.5508515063504162 8.083819834505823 4.115155643028524 -0.8006770056480533 -0.5489991733889449 1.3995039011924026
Ni 8.212655964534587 8.111691790858586 2.9411738605047852 1.705786822390901 0.9216510089309805 0.4658669235441396
Ni 3.7042236882696074 0.5678656800704402 0.18422678834388792 1.5048548532260921 -0.9888683873177421 0.2601411325351133
Ni 3.89336274708947 2.0054492178120906 10.006205258838342 -0.9144614331610766 -0.3314427082935775 -0.7901619650493424
Ni 1.2623018533725563 3.0367208503614607 6.133956397198318 0.8295610356722553 -1.6301220845677344 -0.9148283295821922
Ni 5.770244012289594 6.727082540431734 12.762021362100121 -0.257023412841738 -0.30133971826061007 -0.8030763591181653
Ni 2.684298734699946 1.1621884494326045 4.599357367055593 0.7460906857617409 0.12527828708523586 0.5651079060253494
Ni 2.8446873249396023 5.125591739792091 6.5418903133873725 0.7722238925136828 1.0157554415165733 0.26469481334406675
Ni 5.76111673262132 8.05026066741751 6.4611023289517355 -0.23968723555613558 -0.3792382305103017 0.4163983845003667
P 1.2411805699254057 7.092969011915951 6.372314334748091 -0.5295366937889591 0.08700407409538564 -0.19276306020077125
P 1.934853824714216 4.023512021710833 13.280154927349884 -2.2627864974868195 -0.9086720801728092 1.1013258684892258
P 5.553482679539505 0.582948347891063 1.5155010990678324 -1.1600298100883375 1.502822653287412 -1.0510062942990674
P 8.033356242662084 2.9757983392625875 11.673632563521275 0.46252603209636467 -1.1885741973849338 -0.11158279187601429
P 2.8285319474517863 4.898389982781129 10.128165874750227 -0.6714299637230565 -0.27029287625713444 -0.749046425955955
P 8.647769199541294 7.063404763588219 0.8067054122207361 -1.0539476363155784 0.2846432314415356 0.6427737334389445
P 4.576253420223562 9.065802307347088 4.6924214039326015 0.20874580878227275 -0.5512504313169667 -0.1740325736708035
P 8.379582535245845 3.6297535938738537 7.701132510234047 1.241820972524216 -0.5531787586879312 0.9533887063538936
Ni 6.359873676857788 5.552271257415347 6.713848447287594 0.3248437149198212 -0.1486825249417891 -0.896211228701637
Ni 6.8981982273433236 8.985645002215783 13.027057404123047 -1.0040468948303933 -1.0686777434369015 -0.4350427390744314
Ni 6.194315735721916 3.9829802417857634 12.505377423723555 1.1185147215636866 1.8545796476583092 -1.5255974850900824
Ni 4.261829270273229 2.9155878854427995 13.213794887937997 -0.7869105479915802 -0.5658221584835545 -0.9961317537483747
Ni 7.471515306972474 3.3000618261602788 5.843692258252376 -1.127045898963149 0.5076872020140353 -0.23919306952853644
Ni 3.0376363525774273 0.1558055306615447 11.271505150780762 1.5824587170535005 -0.6702778523964844 0.36048229005903726
Ni 1.13752537458429 8.091412029650353 1.8135747493408851 -0.12492630306245579 0.06333655527511672 1.137486120459867
Ni 3.846931063994837 3.8659346705989934 4.319176698981267 0.712861748505282 -0.2213084759386318 0.7186439024046979
Ni 1.8551311519480675 6.485223500468175 8.414232906995613 -0.29598462459628383 -0.24611705034187936 0.7556508186463502
Ni 6.152859206083748 8.019420264485703 2.215581019868983 -1.785437027224377 -0.25551031863132123 -1.3986135281676493
Ni 6.167923378910109 1.0574697919214262 5.710944436937208 1.6467730628608543 -0.035321815229745625 1.005884205149448
Ni 6.214123874576467 2.3702537321319834 7.946515771354223 0.18707680844927135 0.5957639403483094 -1.9165609744571122
Ni 5.028798187322159 1.904522034124613 3.9869686872983534 -0.679055084368482 -0.9231859575182682 -2.002407795019603
Ni 0.7166024239250666 1.152080935068447 3.0058961681747767 0.7130702649716623 -0.20657065550782486 -0.2595893737967013
Ni 1.5706319027135751 8.677694100257135 13.216785528510153 -1.0640132480816966 -1.9560749733913343 -3.0774505614425838
Ni 7.128840053287009 1.645795559394152 2.528380384573403 0.6026640099022524 0.1600642844161695 -0.7815811653588668
Ni 3.9319618001141663 6.910636110984488 10.239217218296698 -0.594405369437886 -1.2761341439837894 0.9911456133876931
Ni 5.9443281457802275 6.984560603049513 8.711805342924167 -0.0064051321953954195 0.7238766115585469 -0.9420776522164485
Ni 3.094739647361207 4.618237057198195 1.6962841194801446 1.9002473248987535 1.242998280661769 -0.7477958413783057
Ni 6.909498668837378 4.421182140834216 9.035120961365934 -0.8058140697643026 -0.10054118934987201 -0.6863261641085986
Ni 0.4444652288552635 5.023582598940289 6.39873443405129 -2.200963550642751 1.535062230047408 0.4345004934177162
Ni 6.151351864051398 3.913457558355082 3.7728502892282973 1.6396976440713116 0.8381606044158081 0.2607173167535574
Ni 2.8899353284014704 8.581806802506039 9.031981436089968 -0.6292749276215615 1.104213731559982 -1.609026954460332
Ni 6.767836260287948 1.9942135087979544 13.419588689090748 0.8789038477714413 -0.7979572927240451 -0.2878396268916462
P 9.0248174000626 6.700292541243295 10.092231025648966 -0.3577016419901065 0.5344225611263504 -2.005740716047578
P 7.945791692328867 3.7715454673831164 1.7876558643821843 0.12635943596455657 -0.35205652788918723 -0.18236809011969238
P 5.158253899658699 3.536076447937061 6.19893578528855 0.7158431997311091 0.020975830920718714 -1.5271871981747054
P 1.7003650399640446 1.408023913162484 10.263687945204689 -1.3312603955339717 -0.3156610199792886 -0.5745770218580492
P 7.642187114021777 5.515336753874227 4.8384060926410495 0.1486717263085117 -1.0406074675632466 -0.7567749049484644
P 1.8046490651100666 3.127078144828232 3.9839503042348032 -0.34913704024954706 -1.505642125014078 -0.7818485600876406
P 7.2873606491062075 9.091010984526129 7.783382523966092 -0.7764057918055144 0.03405143315775426 0.1756487691179878
P 1.6549043440681641 1.012369748413654 0.8366007209457571 -0.47645112681788915 2.653801923137707 2.755510393322803
Ni 7.654726720131381 8.634212368747283 10.036874583073226 0.5909109831313824 -0.1057175913444889 -0.42906029623875136
Ni 1.03676464584517 3.9444181787495913 2.1403960939450046 -1.5533574288121699 -0.7447182308942464 -1.0051992632672815
Ni 2.0902765089945383 3.842085375498205 8.290458856896345 -0.3603627337620374 1.0939447455338063 1.798915778437102
Ni 3.9294372333974095 6.82079667635705 5.040180931540679 -0.0029894216456271094 1.002282346730803 0.3231940951315402
Ni 6.4554280647121685 7.303636244056728 4.310176110023687 -1.639290381330564 -0.6930724816934968 0.48194506005292476
Ni 3.691036757360835 2.3722696865065362 7.3445222031219135 0.9419221004751906 1.3536793866591204 0.11172883053557532
Ni 6.215353791694887 1.5932327857016817 9.973965709590619 1.5454731409680869 0.25800403158745244 1.9618139327576405
Ni 3.41844828443104 5.1791255006833135 12.563427662213549 1.2683514147145771 2.250137184153925 -1.2315144483918856
Ni 8.7090893530168 7.495780739444157 12.202161240295966 -0.6250439202593493 -0.3887415420150466 0.8873725473640846
Ni 1.0405561196688702 8.212415529609181 10.610554164589912 1.1587483722727527 0.7951373067767467 -0.5706229223063076
Ni 8.745089859347692 3.1989774350215745 3.8740354780857293 0.03431342856988929 0.24844209893063024 -0.23550199383019443
Ni 0.1707346900297932 5.874990412292165 3.378965170680623 -1.4790337783979302 0.9117270649490491 -0.2461227067688342
Ni 1.3531677601815315 6.366494884803567 0.2622747393796166 0.8218582677113587 -1.9011479823361517 -0.42318121175015505
Ni 4.95805483427019 0.27919026113159884 8.380098545585753 0.705129927078663 -0.01492319696873559 -1.1277434392508061
Ni 8.72898071934553 0.5131167980562069 0.7606658230044565 -0.43342037297966 -2.0646714289455153 0.867022780063139
Ni 3.183746807246856 2.1709701689594394 2.012412583151716 -0.37121973108119943 0.050471012166358235 0.862941925125546
Ni 8.46846947766879 4.828673101910696 13.082819811822835 0.7312536207489083 0.480785749637501 2.0616390698770948
Ni 0.9343301201253431 3.3250300684139154 10.958394145423027 -0.7372075243394981 0.6937083155052827 -0.4523730028227629
Ni 3.2626926902540028 8.93676273238144 2.678438595768046 1.4322916371463847 0.4129255954604179 0.20311560707968887
Ni 8.01618364048986 5.10949184728706 10.895729405864678 -0.7677735700518131 -0.39915502403888675 0.44078221266136997
Ni 1.3952068821389507 1.6741113956092022 8.140764997088663 0.99231932198082 -1.2601318550182619 -0.24649166007247875
Ni 4.551340662952711 4.555067404296494 7.980095282936224 0.3697930259370018 0.5953366230029037 1.7537314685909797
Ni 7.2070553840208085 5.883248427230127 2.1671537268934853 0.3808641961494989 -0.7026123028631319 -0.4471258954912105
Ni 9.14215889115756 0.6484557680674744 11.77994733903726 -0.4880005222183853 1.468585843591729 -0.02745629643873981
P 2.590057491438164 6.619358446352988 2.913833635237053 0.6255077472696453 -0.1953609028349345 -0.8305213427029955
P 5.088703473736625 4.986287443011061 0.46142421384376137 -0.2908226207793701 0.6780680378648645 2.0035905024737946
P 3.3749388104297955 7.8012255696803114 12.572387562183751 1.5652878617011687 -2.6915349189121067 0.3455904605488693
P 5.907245682285011 5.8757394595597745 10.46913034146646 0.5686316029078917 -0.20517094694682084 1.5495231426677443
P 3.9609711986140397 7.147908392371082 7.582217095127395 0.4758877981152514 -0.8362317628242114 0.15860775447530104
P 8.132156502009437 0.9321754532938256 4.16662721205954 0.17068936823018344 -0.8428636663184323 2.4829588029384784
P 2.973634424933939 0.549633314727007 7.0496019493705235 0.04381956828811163 -1.7769475016961267 -0.00047899651894756215
P 5.109306897344441 1.168624707435764 11.869059920390203 -0.22230966350963646 1.2972393013935208 0.9454707370583976
