# total energy = -340868.9992855291 ev
CRYSTAL
PRIMVEC
9.23922085028865 0.00000000000000 0.00000000000000

0.00000000000000 9.23922085028865 0.00000000000000

0.00000000000000 0.00000000000000 13.52253362915300

PRIMCOORD
 96 1
Ni 2.350162116311411 1.895444625446277 0.05312551959676772 -0.6207290949340794 0.4113022009243819 -1.2132871267505814
Ni 0.7819725394253829 7.7113216166140255 4.367724294830098 -1.598219836542499 0.3419425793836369 -0.7041871035494195
Ni 0.21368192688315912 6.020211598368117 6.121556611317151 0.08765044943013292 0.9322267275642978 0.8322789488240506
Ni 7.538104705066164 3.5919133917558597 8.665902202936588 0.6517119164688389 0.9146226413292894 1.241081009034398
Ni 6.753334529582712 3.9550979221609626 6.542417901484825 0.7945572659035606 -1.04261755601474 -1.2850520152987095
Ni 8.278803797336298 4.2634014810174055 1.546491266838548 -0.21857899282261065 -1.5693921136775293 0.4568073844450327
Ni 0.8671997316897977 2.12319141815242 8.415085999816327 0.2425604433388726 2.5052435824786077 -0.7591745155288925
Ni 0.21440720571591498 5.665407041228105 11.188192850585684 1.7766852491736758 0.7031087828835761 0.8013773741491876
Ni 8.692656214605519 9.00840658542631 11.44810968619339 -1.8278147208596394 0.29574088401659393 1.295258009297434
Ni 3.617838645319082 8.994584711110349 13.283130731533424 -0.1788770462472984 -0.28494662161456735 0.4012746414850509
Ni 5.599328134070524 0.27724129852873197 4.039126787487691 -1.0575968030323915 0.28444037140211015 -1.2237972822532859
Ni 4.999065197951846 2.628733862635262 4.367332551868201 2.133540484003087 1.542248206272886 -0.8540929593753485
Ni 6.760864494534253 1.1134462162026553 1.714035296815554 0.5787064706453905 -1.9237019563772677 0.39784016188220517
Ni 4.5917356705670285 3.155184663787231 9.991029130797244 -0.6847305374867046 -1.1069966936217581 -0.24695420153119405
Ni 2.371310692721324 4.3986267166379776 2.1887843422959494 -1.1336104395545445 0.3372145777803483 1.4026241919889393
Ni 7.727203837168259 4.259410137632048 11.679168739556133 -0.6458125202652684 -0.7598473732262011 0.2028332999525797
Ni 0.2694683420701649 1.7502502705831107 1.5828799379571339 -0.17780463911872602 0.44742054391349395 -0.05156733055433054
Ni 4.0801692541229535 1.5825861307357119 11.812865808056479 0.24755044035429624 -0.9634527754581149 -0.1647614327815227
Ni 2.9494549342461487 4.542111815653247 13.441073363255654 0.3958876661415246 -0.38403796589179023 -0.500150527317358
Ni 2.859002962619652 0.06519286588291352 4.200585866646186 1.2973148918264625 -1.650553612949209 -0.8163836177500327
Ni 4.254633460478738 0.8597834091540888 5.987980576609277 -0.34679373682835113 1.0143017397891823 1.0406447485590853
Ni 0.5087761717626449 3.7176591868362094 6.448261002317753 -0.5202583538108265 -1.4599222543794599 0.8068425110288169
Ni 7.974316036670024 1.5147887285094366 3.801765661617652 -0.022845280029289688 0.3184077294864904 0.051603068888272416
Ni 2.61857995897668 3.7694265409754593 8.555436231214347 -0.43182988856408855 0.7175815225784544 0.8220742403769068
P 8.370854154161098 7.83633751325122 6.747244035231723 1.7923324687926294 -0.1127701273158961 0.39253957560489816
P 1.1327099915694834 7.151988428636856 1.9665413534200313 -0.7245402132844748 -1.723316089523916 1.2818376221264698
P 0.7263265603945286 3.6889529278123554 10.170270014306338 -0.9387298187901382 -0.7407037104182147 -0.3436713891492856
P 4.413224685501089 0.16819816680960645 2.0497996677320853 -0.5715696024902931 0.7607405744644318 -0.09869745127291389
P 6.6246229446257425 8.029344835751477 2.9000962449693115 0.12707548819497472 -1.1101100424397592 0.4113770200263754
P 1.1645021503403492 1.135657303004504 3.776884440004766 -2.0701267956331315 1.2057134281683815 -2.8489427395420353
P 4.989770541827611 0.30547728121389406 9.43192692334006 0.3956518959816347 -0.5154133670136994 0.757819801273211
P 7.670068495744536 5.98613735205979 10.05470676446905 -0.1784525571153701 0.39695570239472283 -0.8843324749861802
Ni 9.101223797577461 5.542959647973153 3.235266533988439 0.7791409313484904 2.508948285023705 -1.150936846648134
Ni 4.711817823297322 2.0554864081341395 0.9498214636887706 -0.2931214441158759 -0.10110991736914846 -1.3931784731950072
Ni 2.7727455972360997 8.463135491505883 9.656995265936446 0.33424392518779855 -2.758275614772766 2.3143021488676077
Ni 5.055461401711614 6.614034797589587 3.6860536603254923 0.9395566855668078 0.755824368109737 0.6425508187948612
Ni 7.423723151569124 9.077423564798108 5.403888124733775 -0.48215383362962116 0.7015833473779852 -0.5477082224916632
Ni 0.07561932655507915 2.2601166704000892 12.234674118356095 0.43730479563573077 0.08682769641852144 0.19835520957656805
Ni 8.50477665964895 8.630051254468528 2.2471475761639184 1.3816424475309494 -0.36089109546168174 0.5330431642803207
Ni -0.00021804561086673362 7.633869228652339 9.591898487949846 0.475067359096485 -0.05604439248907767 -0.23733956125956543
Ni 5.293057203789958 5.4658953072850425 5.816933958027205 -0.7638122714112201 1.1542250304811024 -0.5996229090830835
Ni 4.629893652468707 4.284716363401708 1.9541681889254239 0.024438849768654687 1.0153939444120965 0.6927647206450908
Ni 2.2863652966912924 6.934127602186112 7.879134507916296 -1.1015081597033611 -1.1708793512083318 -0.7917439648244816
Ni 1.8122639205889377 8.987128659925203 1.5616361975729864 0.14417332421752588 2.0109505423832914 0.07998521957539129
Ni 5.7951257012522115 4.990112392997191 10.430511146564104 0.7592516486237312 0.9170852439371691 -0.4108453158926215
Ni 1.0438841228036877 9.031116590151326 7.992250288163813 -0.7746301879623304 -0.4152159341564914 -1.9857192786203286
Ni 0.3372056893612436 0.4837498943832076 5.5101345443169105 1.2330979908289215 0.4428432089554567 1.8011919760657884
Ni 7.671676120163638 6.776672801322092 4.745097496616897 -1.6013324140295517 0.34706293132933774 -0.2126482291604725
Ni 6.439219500843423 0.853501662932551 11.991201247927227 0.07497413951404507 -2.1376483355238736 2.406006199541824
Ni 0.968963281341046 0.7324078155247187 10.17828965796025 2.353460307124308 1.4692072792258115 0.5412766079337066
Ni 2.8359326282834556 2.3997305359003946 4.592765843686165 -1.905913264935279 1.4507758119935015 0.6137272096949494
Ni 7.171594055173264 2.687384436270093 13.434529223163413 0.24852463134210748 -0.03543622932042284 1.2485626621234238
Ni 2.7378213426142244 6.819302566090698 4.17555589357843 0.7743782198525244 0.5524840466137517 0.27075438927458534
Ni 6.0207289947328855 6.3856043025442855 1.4577836600989853 0.7861009076060913 -0.9635149961546181 0.01369652365048609
Ni 0.8126541438561562 5.797370831906474 0.2752751923426116 -0.7751220399970844 0.07587891071650157 0.5915864119318521
Ni 7.139460045232819 6.7132547897547505 8.032722694875751 -0.6730615857892085 -1.1452007154953052 0.0055839218456807055
P 3.107242347058948 8.094592213037107 6.002625665498466 -0.5451319771240548 -0.8107606151363004 -0.7067371236647828
P 1.9017365348106938 9.09368459340512 11.760668830150054 1.1437560126289785 -0.817125895232696 2.107458185093738
P 4.539256896426221 6.832154322222717 13.458125269163098 -0.888814936237566 0.4219506817771636 -1.0079657702688254
P 7.88662659206256 5.5696794745251275 0.01202669371462827 -0.580435280411039 -0.4935587330324532 0.06698186533718788
P 8.494955367939147 0.9078864883242821 9.088886666043972 -1.76971627405501 -1.205012802556931 -1.4933432530420667
P 2.1338534789549715 6.071951234844969 10.115030560990657 -1.31882808330789 1.8147925975683583 -1.9461862535227126
P 6.318019402396398 1.706825932825753 5.900381676365647 0.26607703840357405 -0.05860212591392488 -0.12561227338588687
P 2.1850018053006597 1.8960082179150426 6.569503601180457 -0.4369690095628668 -0.30718049331210323 1.5081998584389251
Ni 7.284026133081623 6.838557102236726 12.084804717768412 -0.646353480370403 1.0034609404199364 -0.5543745787682453
Ni 4.254236173984363 8.302086633750882 7.715538396986889 0.13088637730063266 0.5437181274956636 2.2764899631158406
Ni 5.720066271477577 1.9891488027941757 8.07150524810347 -1.0330185994723953 0.8502399041778453 -1.0710056202391296
Ni 0.22480132911528258 5.420844866666984 8.632041382628726 0.41634927642998615 -1.0088291467103851 0.03246506250724086
Ni 3.541347136320536 7.412728478817793 1.956237774384498 0.09310992988280738 -0.8104338279245009 -0.8925972860981337
Ni 1.5653827016071584 4.740579517645973 4.608790348240711 2.7400518926758872 1.1013456659835676 0.6132821517377309
Ni 8.287673449303758 2.006185925948339 6.916316232328955 -1.531217659490337 -1.2368906251021343 0.12879787020272013
Ni 3.6227539107843834 5.436145016310853 11.278752921095535 2.498598566358265 -2.4506251238027796 -0.7982676248756122
Ni 2.7578796909698045 1.7501116822711194 2.3221303204059165 0.5735308399817219 0.938091413875191 0.25988967864593954
Ni 3.058089692405939 1.1008993543570187 8.658397183881204 1.1237528300341744 2.917739546600775 -1.5146289018937205
Ni 5.298111057567251 4.866029657660739 12.994059534693092 1.247827326619296 -0.761394920218979 -0.0228427089261284
Ni 2.418098106849677 6.7400670085147185 12.461582913735729 -0.4822055128031631 2.6184865356658644 0.2019133592414716
Ni 6.701502500897865 4.838293516820828 3.555668852481745 -0.9786953034394822 -0.9441682161968901 -0.7587597965889771
Ni 6.582408944793111 9.084408415722484 7.682787207097041 0.6412076745034054 0.012679909460513646 0.5879313316777681
Ni 0.41077483282092747 3.266572709745254 3.579239028663191 -0.5786838449375712 -2.1255363827516875 -0.8920722668325991
Ni 0.4624969147782606 8.148004148478657 13.260629533198474 1.4779408024440674 -1.9838130627365511 0.1598015176730861
Ni 5.407032231571824 7.967127922888062 5.892065453724074 0.42179667269780263 -1.6381413553277853 -1.4234187601367871
Ni 2.422920980106984 3.00728321722983 11.21261395900276 -0.5324340699414121 0.5805404385303357 -0.059038185010078965
Ni 3.98390581261361 3.575948018214431 6.5833642802237735 -0.5308826662938922 -0.9569046899269521 -0.7369617268772792
Ni 6.945796738055802 8.185506145703576 10.070352460970817 -1.1382299406044267 0.8438692247648113 -0.7038857702589169
Ni 6.8668106394414075 1.7150857962204502 10.079398582055546 -0.323541708278946 0.5666647089895079 -0.7259165248067112
Ni 6.047744476350441 8.465731712550525 0.23201716055964355 0.3022591447510859 0.3962964715441691 -0.08756174637106856
Ni 4.36258451629937 6.229258208176198 8.76183118465299 0.5100585304596894 -0.9746650992341666 0.7654672905161397
Ni 4.908705618533344 7.808850831372891 11.369137446410196 -0.3617233615549899 0.1870259006066779 0.1879756661144569
P 3.6981459525077964 4.961433851635735 3.991419146967713 1.0968210386403368 -2.089087138785718 -0.0739914638858016
P 2.2244163212310615 4.96151700462293 6.678508852094304 0.4505989416414756 1.4304615259161815 1.0497451681984566
P 6.308170393024197 3.075348556859289 2.187716288371534 1.1112968636590088 0.5872402191480145 0.30044291747795354
P 5.245521412776851 4.281353287030712 8.152978544957074 0.5329104953571984 0.7418316533750707 0.9086147445723126
P 1.042877047736549 3.746614904821647 0.6406355592459823 -0.10903431442254768 -2.904775787351255 -0.517038047101316
P 5.784833209281638 2.8782667379864795 11.855177743629582 -0.33247834864694353 1.482052510619596 -0.315893704815385
P 8.402175112671193 0.3324973824418501 0.3122431626053224 -2.1169473555310963 2.389828047120065 -1.245789470253661
P 8.278397271621124 4.448906556228518 4.8955489681149436 0.5095060003903289 0.02288693190050252 1.2937261460339395
