# total energy = -340871.5111072841 ev
CRYSTAL
PRIMVEC
9.22674654337590 0.00000000000000 0.00000000000000

0.00000000000000 9.22674654337590 0.00000000000000

0.00000000000000 0.00000000000000 13.50427622006520

PRIMCOORD
 96 1
Ni 2.560689730815382 5.588474276705217 0.07075807359835187 0.27443826588407577 -1.5437368750032703 1.1623255481010497
Ni 4.944678039311491 7.695475655118063 7.680678721747825 -0.5543694365619227 -0.3721270733868172 -1.4947424473824384
Ni 7.938065274230293 7.28310467356539 2.162048148062305 0.9206716757368467 0.8356800040857996 -0.4123920915544511
Ni 1.5193222132631719 2.5572481543689776 10.190866778242164 -0.3563842087302636 1.15031283991089 -0.7006706057557288
Ni 8.98181329238082 7.850927880236077 5.846851781762332 1.4888736473064876 1.7791275400665811 -1.6537842040713648
Ni 2.6298903296036715 3.3109164891454976 12.700150613579002 0.4864766293746912 -1.9644984215683392 0.1925720272358877
Ni 1.4223029737619892 8.287961955196899 7.604635567751349 1.3234455274752435 -2.89045294297068 0.29035005201832575
Ni 1.2885243761844667 6.905952183422704 11.527223530983747 -2.0108091317094208 -0.6375441096088891 1.3119724938386372
Ni 6.076237003951105 4.332049751612011 3.6090040658112854 0.11580171505336832 -3.313623613197874 -1.8727979704385487
Ni 6.094432148059173 2.3043061256780195 7.284017198794745 1.760560061477039 -0.8518275603799393 -0.4593484056993315
Ni 1.2577808568294557 3.352870505504211 6.388765361572034 -0.5522143378921328 -0.25242550905841044 -0.6768768457702407
Ni 5.407620818458646 1.3951209785579488 0.279921035471886 0.15318478368751684 0.39487799393008766 -0.8198936877858203
Ni 0.3616534013634102 8.31881619550997 9.87446134173979 -0.06192476252925464 2.64692936438759 -0.10657505424877774
Ni 7.156928915108074 4.2963422426372535 5.685921637244236 -0.020946777454996183 0.6914745410787576 0.9769515812754982
Ni 6.964209860855939 8.452262630213308 4.385081399824755 0.05146011555250492 0.05803699743907424 0.34219403327281067
Ni 7.528637624812748 1.3696828384433732 11.8972677356189 -0.5565764715155705 0.20285438299850228 -0.4510054330512749
Ni 1.2170170907699003 1.9684340993991747 3.3114913154527654 0.06385643233432874 0.24694288867728437 -0.5391364216622521
Ni 9.252304592924487 0.3660988478295699 1.772746800796347 -2.163840163427893 -0.07347107260595732 1.826634841618925
Ni 1.3049479849635544 6.162645484971417 2.2239789932792227 0.05790021475089383 0.5509629819835351 0.11082457355375107
Ni 3.6700952770962383 5.569448725411689 2.97410056669918 -0.46967472732600396 0.31018662712827866 0.4216004975265965
Ni 4.186488598747469 3.422550895110767 1.1249009443615305 -0.02614606226774852 0.1707400189624608 0.653513488453952
Ni 6.967116286005047 9.07071299495751 9.748453510068867 0.2664863580268507 0.7315194728157853 1.8912628620119556
Ni 0.6890718824942774 1.0584093183471392 8.156028706920397 -1.156611271325092 2.122474713107229 1.6250708952970725
Ni 6.253870327667394 2.3436305192827787 9.618907221113236 1.7069515321229636 0.7512681161976222 1.4830886651935942
P 7.130402018905896 5.211690856422734 10.764569267785904 -0.9604013902263009 1.0472365428439898 -0.7918102992860429
P 2.148909261039035 2.233306311321234 1.1306316766158515 0.32473084349104075 0.32646016747732165 -0.19534316222312165
P 5.659769346950165 6.095124154047056 4.3520902450211 -0.7433221218776682 3.0714238956325297 1.5698016904111223
P 5.036004376219023 2.366522077361945 3.047158868201255 -0.013568996933686309 0.9199558806167447 0.45001478700323144
P 8.318926916468032 1.33260977098586 3.498863470105192 -0.4566294641062717 -0.8529069094870473 -0.768037108125845
P 7.113424805336503 8.788762075254501 0.7106661600148261 -0.5462169826581174 1.2584616664046908 -0.08332482547158553
P 4.8660661590879934 7.904553730923751 9.73188319602035 -1.1997127305002564 2.096576762294544 0.5111332515811068
P 8.28986266497695 2.996164485616839 6.883953774405232 0.5100436180613538 0.5196196917855631 0.4636568032666983
Ni 6.527148105655604 4.445252704483149 0.7627825149742631 0.93947749558944 -1.4567654539180332 -1.4520857890541765
Ni 4.190908210323414 8.172655304122596 1.140747881484049 0.6035183874827477 -0.4538051072835991 -0.20229516806092257
Ni 2.401316138432697 0.03520188326627792 4.510198850457935 -2.1541936414770646 -0.22040447606712363 -0.06649258440559518
Ni 3.9330390989987305 0.4250817475381064 6.454827943873937 -2.413571927704224 0.8602440665784088 0.44676311283515313
Ni 6.471372423032242 6.990542995381509 13.279079132343234 -1.323685154289875 -1.6525462178992056 1.6585006357104275
Ni 3.1598469686174075 5.150711288770493 11.3507490866285 0.4643283754124261 0.2903269120898742 0.3441899806569169
Ni 5.793418770076616 0.4767607547132014 2.331526873217381 2.9007473829181523 -1.108621887930007 -0.6713343186854567
Ni 6.902381432525227 4.6423544633252085 8.246143572011809 1.4237882276610638 -1.0181877051071497 0.8033563522524293
Ni 7.121673516712066 6.77994250640248 6.587115499216235 -2.665506870279461 0.28941597023983057 -0.2944787294747187
Ni 6.493821097279163 1.6934216930680046 4.693343309861722 0.799498669069236 0.9607847417076485 -0.15198022185645438
Ni 5.19252690393163 4.11130906822387 11.868584548758479 1.023844903392927 -0.732416530708758 0.78688997916629
Ni 5.83181126228436 8.789435627749373 12.138224220599726 -0.14786208592302275 0.826533561699841 -0.8144208375967069
Ni 8.3992918785275 3.398127697111753 10.840179687371291 -1.061590497572817 0.4189178084881107 -0.7600582036854265
Ni 6.653305410619909 6.8595877822345495 9.180261233537975 1.157643055023716 -1.170349961067423 0.06473420695359174
Ni 5.115575838079051 6.613307464520277 11.287157427040663 1.355238246505808 -0.8004898293379117 1.1832417294284265
Ni 0.26748338118300397 4.0468786973787205 8.613905079561599 -0.9190207703969849 -1.1877041360751546 -1.0160891707069082
Ni 7.927048538903197 7.339101798104874 11.554069672615002 -0.24360688232551597 -0.45397171476845044 -1.343095954716319
Ni 1.4123842212690008 6.020239879411621 4.7550850067752854 0.4440981644084803 -0.41038251732359005 -0.45280443393322667
Ni 4.764710348729412 5.048100640887217 9.59939357492959 1.1743212870103454 0.7591241219069312 -0.12268892909150483
Ni 2.6507150964656945 6.9560534169454264 9.69742037514913 1.2170609919707167 -0.007139953478890929 -1.7634165570892275
Ni 8.96865595186454 8.881444743898284 13.068465725919097 -0.06508876207953307 -2.9854060967098133 -1.0138240288218152
Ni 3.929228452692122 7.406770756973317 5.446571528829948 0.6280459403104667 -1.0601226547780387 -0.8962410534983081
Ni 7.6531248886596295 0.28684755407326856 7.589011917894255 -0.13540303422406358 -0.5223833705736293 -0.4055419014018371
Ni 2.7899097942417135 2.1768847564425147 7.901946252361407 0.9329679766056965 -0.07571873098955346 -0.5476195194325988
P 1.3372046907454025 7.252351927463874 0.31741576524468257 -0.8299050492752352 1.2119545239820868 -0.5794783158144083
P 5.912895910571226 0.1266472452037265 6.238489341243383 1.7727632884114501 -0.5663271231444311 -0.2892917859571405
P 4.717847703229981 5.5127134611517965 0.2223249157630669 -0.32013011149423576 0.31087388300329044 -0.396446109748156
P 5.248191865596931 1.600240780112946 11.57192250442773 0.4895650384920278 0.9881790745602014 -0.2704947078552954
P 8.190730500526097 4.827018567878388 2.2008456944416226 -0.4559987725008082 0.8570803241384466 0.3821667170110063
P 4.626023122011173 3.59274746114394 8.173449726996687 0.33185099947558977 -1.1598837714287766 -1.3932052126678847
P 8.681242798230508 7.175585396541397 7.857003692809689 0.4796485507092642 1.2374182154708302 0.06725131694849062
P 0.4910492943510076 7.628231126588855 3.6186460159091203 -0.8431480303280705 1.024728334439145 0.07715237811228648
Ni 8.54958635234916 6.041895053459103 0.07604499934577724 1.4592637948598546 -0.48535922794079633 0.6353810405192993
Ni 3.0351013558683833 2.415857490924743 4.872018333258437 0.1333471801362994 -0.006552456406537102 0.026899909714637543
Ni 3.1642573534468483 4.879611022957487 5.914049253884364 -0.6229232743719207 -0.8112437254203062 -0.5107748398004235
Ni 8.765270778652502 1.186614961035578 5.609743772748785 1.0074240388327425 0.49805867778533575 0.40686653375053156
Ni 9.073647100346134 5.524514469931826 6.358812574392511 0.7422743973394442 -1.4394195064404178 1.4115199518166723
Ni 0.32334764057281484 1.7190443681126821 13.199484603616943 1.4677456070786206 2.875563170343041 0.003721671825961332
Ni 5.923119145698883 6.147015376391768 2.0120424714062537 -1.2379614895688098 1.5356227305365682 1.2678922156899712
Ni 5.094529629300906 3.377533598912358 5.6544021485081455 -2.1129487758946643 0.45635358473706567 -0.9823665816434823
Ni 2.671226153946544 0.16613310687232483 9.593694213613388 0.5314184841927041 0.34436944365757466 0.33764163801543784
Ni 3.470437709472264 0.9803602696604532 2.4152798965935234 -1.311322261849148 1.367834852223896 -1.1872739905162715
Ni 4.703786141556201 0.2586017149971896 4.220193903730619 0.6495095095008814 0.2661480008508255 2.572596458001969
Ni 8.500287845772382 3.4401832076820233 3.9827352783498786 0.8553692549846106 0.49918867762472097 -0.3836502435350683
Ni 3.463600690311981 0.564047622000799 12.327135396569204 1.1624312204409786 0.5888592428086762 0.6577267552043512
Ni 7.970100538096019 6.210117095740184 4.275386455974858 -0.14169889453510434 -1.0346651339368826 -0.5183349115358686
Ni 3.9905770902045674 2.518495819047535 10.004507720355997 -1.2968968304524373 -0.11687077974783097 1.090475556038283
Ni 5.206939081972606 5.469172444394204 6.941724279622997 -1.2018727142660528 -0.13308904137890626 -0.6457798672551202
Ni 7.664639868298002 2.476587936421346 1.5709790762466544 0.05713788266357256 -0.3355667577642802 0.5949478722049173
Ni 0.6096222136881163 4.38709652126147 12.279100954263626 0.9180278103560964 0.8016612239381936 0.7523839749696203
Ni 3.317919589742872 7.4970360180327615 12.40569007096437 0.3335592404159481 0.32620331427150917 0.4225548910200659
Ni 0.9458153307453389 4.039349672230554 1.43360020218284 -0.4205900539842111 -1.253929325751976 -0.10092582638280038
Ni 9.051484455240871 6.182104693350683 9.56023064938867 -0.7512382914009514 -2.021295118842409 1.742279003779664
Ni 5.05542667761227 0.6379972272152669 8.536660603170157 -1.0537306352087659 -0.25872728290672214 0.8026932647471337
Ni 2.642512518822656 4.526134364346902 8.562440132905422 0.0744293227541686 0.21964265820043463 -1.3127620796194681
Ni 1.9570298407188642 0.11247219454793315 0.7908428964455894 1.3249840756069566 -1.1504977022281861 -1.2597130223132884
P 8.049939575604695 3.379406628452894 13.077770899769497 -0.1355351889265537 -0.31779554982378816 -0.3920919465445183
P 1.665169395269372 0.9474300113837323 11.451910212635825 -1.42068104949065 -1.3567487696130633 0.3003053634588247
P 8.394401702879794 1.7225136247986017 9.51551783582493 -0.7916850865620882 -1.052729190527445 0.5178903677992823
P 1.6411983078491084 0.735845028552608 6.34422785619189 0.6183323125671286 1.61121007815458 -1.174368595308513
P 2.8786895491138376 6.563787516027377 7.178764933387057 0.024627568740693072 0.21998487203120182 1.2408403537785018
P 1.4717952420153741 4.945785248892104 10.270339513914587 -1.609822453778434 -0.35005800940191967 -0.15138424014366833
P 1.867927149719062 4.03860230576364 3.821197091237096 0.37305678428993816 0.8788161731536412 0.5221604559295459
P 3.556006556560611 8.098619890165631 3.227089651797314 0.1607404845475877 -2.488432167348224 -1.8554435383205015
