# total energy = -340875.8173429312 ev
CRYSTAL
PRIMVEC
9.20627146621374 0.00000000000000 0.00000000000000
0.00000000000000 9.20627146621374 0.00000000000000
0.00000000000000 0.00000000000000 13.47430887498616
PRIMCOORD
 96 1
Ni 0.8807124469912984 0.40558321510871703 1.304252494817897 -0.3970024964722582 -0.5716518777914542 -1.1702905685843974
Ni 6.147073565697635 4.0002815083700725 10.014538035229288 1.1599555052069763 2.0059836852963198 -0.36653903777607844
Ni 1.3757944312704267 3.6624389601782723 3.5404825599234395 0.6388024074960225 -0.6497172546363132 -0.5635652441285778
Ni 1.1939245361964692 2.9161877921296813 1.0345335944407645 0.29293169670257296 -0.853072488530634 0.3959038640914408
Ni 5.854976980989636 0.1839440680610576 11.446735609965174 -1.0965521012496664 -0.9433310650075754 -1.288953921456277
Ni 0.3807999320138502 5.649097129633579 9.148530765833618 0.18858218935020424 -0.8262749087218157 0.2611675169170986
Ni 6.458475701910068 9.112045390932701 4.7103354578182195 0.8875664085424455 -0.8455165305602471 -0.14626465952891582
Ni 1.918227952797006 3.418794982798759 6.146319572055187 0.6911860633040613 -0.11160953134889165 -0.18373051768485776
Ni 3.943395956273794 2.8259663306401954 3.0365570311640253 -2.0090142445925268 -0.018930775466231915 -0.7998555381880225
Ni 7.625563956449206 0.7506867496961049 12.80459530356951 1.7999156804565257 0.22230657818584296 0.45824000312650115
Ni 1.2222890589361737 8.08850132287765 5.066690897531367 -0.1375535049081631 0.5556740143059592 -0.13746840139352456
Ni 4.652509024766408 2.7366102586792826 10.929888158415284 -1.617542191020195 -1.5568669846273253 0.5887869948098441
Ni 4.6326142718808185 8.485917654467254 1.866663625674291 -0.11851114356473137 0.6263834650063792 0.08559176712889131
Ni 7.701322365285632 0.04497908106114067 1.7373771919870165 -0.029651247207529575 0.6926248526331168 0.24235218398280844
Ni 6.305403024340102 6.493487152730936 9.443698562740893 0.9843226769285888 -0.6647839191614486 -1.0804888771392165
Ni 7.050319283009511 7.18319340073173 11.583364965865101 0.20801355860193854 -1.2252026472412447 2.151014215307818
Ni 2.716807568509499 4.860635206388122 1.2641435314228726 -0.11569347161027818 1.4248128122708366 0.24873520469101681
Ni 8.038649362268922 2.774042958925839 2.9467636613030357 1.9664745714581036 1.7437303915142097 1.512498228703963
Ni 3.685712414733927 6.48021170911177 12.635142827603413 0.26815063310315107 -0.312536615417694 0.18140392643421016
Ni 5.410001050414862 6.432210209090731 6.132952986347372 1.7703521078667963 0.7393461679490557 -1.3853196392722207
Ni 8.744521823165178 3.5829059799938165 12.611414583231678 -1.986515806379695 -0.8269104854232855 0.3074545729090963
Ni 3.2266785074556386 3.098002449574155 13.181956693148022 -1.9415119879754952 -0.617565095383801 -2.8145609196280557
Ni 1.7323901546718274 9.047546252239302 10.343176153094845 -0.9170219947994013 0.2406827667001855 -0.21456010147120466
Ni 2.3690682783685966 8.370737990722871 13.11620273963819 -1.3352335212491067 -0.430145301772814 0.3148413522914707
P 7.955139272761663 5.046040309749014 10.436849045799882 1.046076718207934 0.14445357446210608 0.757891792161727
P 6.698823834063741 2.028095597839406 4.701348295501277 0.6634734278801412 1.2468873313035302 -0.7811142530247773
P 0.41931436917112186 4.504822016071068 7.178613280620401 0.15415640357216678 -0.31251321837892626 -0.13056241830231063
P 4.529319904746937 3.7006081621512728 1.0293532254223836 2.9364492071951362 0.5036292298945778 2.24777125502491
P 1.2465659970941099 4.784287596170539 12.557409673512957 2.7155335958195495 0.18241745530038908 -0.655169021779504
P 4.83659763129128 5.943771470384135 10.899112513148632 -0.6223648307652895 -0.8717068158023696 0.5434579318557414
P 3.18212935927731 4.335914551382539 4.5281764858166325 0.5386653955631046 1.255703129822947 -0.8392872618210835
P 1.8302712341163385 7.105989607257156 1.5021293342889737 -0.1641438538021818 -0.3373217927821739 -1.2815231762098447
Ni 8.13189048083683 3.217278904171887 8.515304993979559 0.5498396670123692 1.224807211575039 -0.51027964533156
Ni 2.6059456461363983 8.496256297452222 3.0188782278478765 -1.1316512589456447 -0.10855737478612916 -0.5030862129069142
Ni 6.47675935726906 1.541691445152113 6.812206433595598 -0.19198710126669516 -0.12154787350852615 0.5934882569402553
Ni 8.798268036652486 3.4677999664220787 5.167492206321231 0.18899150897348094 0.18611058788126011 0.4073771548383629
Ni 4.038828167477876 4.75222215225545 6.49321556771931 -0.810579866584062 -0.32017690557177114 0.9907033836439519
Ni 0.20929445748528688 7.644768238966253 7.842869711463895 0.25350151573140856 1.1732537649777794 -0.6559858612538444
Ni 1.5302848746637996 6.712568797533516 11.365512358318528 -0.13714212840235737 -0.2940737807268161 -0.4590874387284609
Ni 3.952031439016359 0.7157747266083063 4.0820285968696535 1.1578700834328575 0.4179911829087834 0.4979298655169554
Ni 4.620241042876546 7.502061823195997 7.932662160697727 -1.4185238939383313 -0.18727555472363874 0.9325080062501425
Ni 8.597460840937316 1.0351623827897167 5.578943498935398 -0.09172256261697752 -0.7078846070056648 0.9806920221545368
Ni 3.0699509400681895 1.037583632215404 1.0296625561474904 0.8823478404559837 0.4310984097147027 0.8300073791810544
Ni 7.914723740523006 5.757316852063058 7.238991692154345 -0.9616946551164277 0.5564083213688225 -0.37313134628161543
Ni 4.594675226697331 6.545106717483136 3.6007937656748443 0.6652035231973705 -0.22486559716227075 0.1362800375123782
Ni -0.05184880091455434 7.320182721850459 2.810215320593016 -0.3388564842591455 -0.058574100889466865 1.092108720766332
Ni 6.077326852203314 2.0576937609709054 2.4188272556343637 -1.8693521779817934 -2.6725835746205844 -0.03174798183555823
Ni 0.8267397592231088 3.4843620489955054 10.749601742053185 -1.6497480863287783 -0.4907793705151031 -1.8610899379730013
Ni 5.744308390319727 4.189120551030514 3.1980598916203102 0.2605946751327641 1.4894837700866606 0.5508992186251351
Ni 8.852870433396784 7.370982928431988 0.5523873423594805 0.5053683240728716 0.7768215391866944 -2.0893411637780535
Ni 1.7878395284015387 1.1251076561317852 5.342914028780165 0.6896506004961412 0.86053023036026 0.16324808146078984
Ni 2.4106990384558875 8.518664362479305 7.039396962406336 0.7162165239101279 0.7886632690166289 0.6982851362426878
Ni 1.6454921572229242 1.4392440550036445 8.121167936326952 -0.5973269139600551 -0.09608521046104743 0.026070728945122842
Ni 4.69269440021555 3.0164717084567183 8.398604454170068 -0.1954156673322699 0.42719059001986426 -1.5618101875652135
Ni 8.829725866643258 1.5314908962408529 10.224009253128923 -0.5245816637765288 -0.8387193051327556 0.6073894404023797
Ni 3.8682819864480074 8.022943462952487 10.395038763416771 0.49258582759622266 -1.0673333135938652 0.32460228833297644
P 3.5202296830733664 7.565318115226023 5.168879591448421 -0.7278322537721852 0.28553617556945016 0.5133683115592126
P 5.826281032473031 8.60987089502791 9.201888474660226 0.6197939847143197 1.5083109300954929 1.1247324203386242
P 6.692278174969963 2.2096340671364634 11.406150682329432 0.8864592915211958 0.6044630107842041 0.558543108323638
P 2.5881959545290796 2.0559169505558574 10.242280019707701 -0.8302794018955185 -0.2934991391702687 -0.18124117560410075
P 6.4551614441410665 7.958306230185376 2.8779909713419385 -0.119164203767698 -1.8319421127644513 0.014966905722477448
P 3.5512732308430137 1.8965932145826907 6.811209394383424 -0.9304662932297654 -1.4621889389264495 0.9043755096799845
P 2.0282336919131145 1.5185100533122637 3.104844550612827 0.2903881043451128 -0.11375357427508795 -0.5725029129378398
P 4.583940714034399 8.575411820501875 13.107431004076233 0.15250781222515028 0.007212201477723062 0.024695960084783274
Ni 8.222296067757926 8.217757375868711 9.922494652594011 0.3981129559276176 0.7327057798144027 -0.7611614640519343
Ni 7.252203612499605 5.67856640496295 1.93457368798829 0.37210470478931396 0.4895820077728923 2.3128296780871396
Ni 2.076667886698439 6.270207448087622 3.4917325900229015 0.7695779702504036 -2.028076917650933 0.5503677716016973
Ni 3.9294852799155686 5.3866355331434015 8.921771090532852 0.6049720892101387 0.948075007450464 0.8392152709325676
Ni 0.3773190407292406 5.110539448442415 0.9810304265231836 -1.2388382357468084 0.8686741996236329 0.833977419572396
Ni 2.236304635905345 6.194329357720648 7.1204443742657935 -0.38875439753085306 -1.2840426001975886 -0.8518504431980749
Ni 5.445040120050472 4.536841428628255 12.556210096326009 -0.5826104336854869 0.7498624940993474 -0.6902244707217403
Ni 7.101349646380554 8.434933322454114 7.311887871156374 -0.2901927005048551 -0.01190626451928272 0.33254314044660793
Ni 2.3834576808490113 3.7703548756455936 8.521705193982363 -1.574197505485973 -0.29396065218771955 -0.10905102659309607
Ni 0.9959712846712739 1.3681071945006593 12.397186484806369 -0.044408350912046105 -0.4170902683610688 -0.17000159813453947
Ni 2.795640872053832 4.233108116642429 10.873942566647381 2.7447634392189437 2.2874148375584604 1.0757199949956633
Ni 0.13519133627904548 0.47513475564552965 3.4137701997700893 -0.027622132592642755 0.7264333165421295 1.789894548775098
Ni 0.41795368223151513 5.975836914299225 5.218276762241073 -0.054092925189661675 -2.079875647489779 0.7378400157171745
Ni 4.03362662403486 0.7946660296635968 8.884595245263393 -0.48474961938125555 -0.3024625190111436 -0.1641119721229819
Ni 4.726324910299335 2.9192718931091686 5.362061232413414 0.2226498204578746 -1.647700716881446 -1.3708193887735165
Ni 7.341716191077388 5.68578412188211 4.514594473353832 -0.48812187828759807 0.7482211018411823 -0.23933705130556845
Ni 6.816102527728492 3.4328897845885957 0.5380642250344457 0.8905959393973888 0.6670140940435481 1.2750573659798428
Ni 3.45597911371264 0.9673305737841527 12.023368589159215 -0.2915589847247624 -0.09237870814373768 -0.753594964558586
Ni 6.4247899541968 1.6485578456592505 9.28883802722998 0.1763941319244446 -1.437806139206711 0.2621612482889356
Ni 6.720476984821217 3.851913235577772 6.171179267204173 -0.02993175456242587 0.7164085853162759 -0.2895296129995595
Ni 6.426842952759265 7.695918283867843 0.5633731862365624 -0.09781761977112187 -0.15380981886602543 -1.1387734718127227
Ni 4.737354023652846 -0.1849751704780803 6.235788881156541 -0.8695015806209347 1.3358968658647188 0.24630448376233707
Ni 4.956444874727007 5.925386546037757 1.2995536138031794 -0.15622408473447288 -0.6697862574720466 -0.40773273840556873
Ni 5.358298629218438 1.6645307268515215 0.06281254973984293 -0.649256770060127 -0.7093231392244043 -0.5158368277043631
P 9.054147148962562 5.090488188939956 3.1522071353861745 -0.8643380341421243 -0.027534457974842903 1.2097991682019809
P 0.07980916833187231 8.394913659893422 11.969444694630402 0.12467202095980463 0.8142357181690945 -0.5190422220155383
P 5.932816007203269 4.848703878419715 7.846063367075192 -0.6479365085868066 0.5214459463610246 0.5839636052792718
P 8.365379940662987 7.665022036443484 5.722242798595442 -0.2435819426248515 0.020838791122222176 -0.049859860944920585
P 8.414357305471563 0.9934947976161034 8.14718670106793 0.1721754658574067 -0.4893284970011896 -0.6376073587466567
P 2.092014741423232 7.068851507701178 9.027463691413468 0.8717294415101889 1.4588081953796748 1.1716193146981502
P 7.440223296989378 5.673235973717807 13.394581979691155 -0.3485994225785222 -0.5760538635138918 -2.256295490445837
P 8.481526262923328 1.9792102957466338 1.1016381079914643 -0.18270207642034342 -0.3214984525966721 -1.9272889023975774
