# total energy = -381170.8876773361 ev
CRYSTAL
PRIMVEC
9.19696159618305 0.00000000000000 0.00000000000000
0.00000000000000 9.19696159618305 0.00000000000000
0.00000000000000 0.00000000000000 13.46068293913383
PRIMCOORD
 96 1
Ni 4.382379872352452 5.622985635844476 1.475088741587725 -1.0778311278013954 1.4081260956437747 -0.5121231262982018
Ni 2.5292380613257484 2.808338260036522 7.535384391225262 -0.8834881247080139 1.5221457790960558 1.3936970647026385
Ni 0.981600926239813 2.5152034976709343 2.197820025913287 0.679016774931379 0.4290962916830094 1.8574798520242397
Ni 5.394422742037503 9.060846731797357 8.828108417348652 -0.9245486421937497 0.3223949962690125 1.3536850430860752
Ni 0.47240010171480395 3.672972226537197 4.673845386157523 -0.1607916495004973 -2.290972730113048 -0.42981388657532427
Ni 7.877795555036544 7.0338363585856865 2.8706660699242517 -0.05005680744707509 -1.198730569092645 -0.4567328224533554
Ni 7.348142526936452 0.22153089684073857 12.901311266927198 0.34452396695756793 0.17056698371970627 -1.2780259616898637
Ni 5.346616934778184 1.7683366265830338 4.962024825523626 -0.4717485791358972 -0.33742155158483184 0.30790014508694713
Ni 2.941307933248384 2.7526414595820308 5.176198152951619 -0.6595332122854706 0.2994589562981294 -0.02212151448938771
Ni 4.830474243512248 9.06959304243676 3.3552365111439144 2.5834395713640603 2.223606227742932 1.3976082268315866
Ni 7.801635514652851 1.9199945261032718 5.6589117275907395 -0.07566525204379872 0.11810850880967401 0.013120082321725794
Ni 1.5889130994914438 1.1228386680792486 11.626274837672053 -0.47182674067200026 1.2349335013757634 0.13934633514252776
Ni 1.0256359791751009 1.5031790219094148 6.173378732422922 -0.34416144141182664 0.21387335981682523 -0.2825968904354681
Ni 1.1180378540374314 8.355927203323878 5.275187811526886 -0.100165294067692 -0.00986840815364752 -0.517087926502645
Ni 3.1759132309355733 0.2664617338520285 5.0496543969256145 0.22837592430837445 -0.39687856929988424 -2.893301468163069
Ni 8.989616262920205 4.687820169560858 2.42937101259801 -0.42847357049734597 -0.07055749850358817 0.3357958430559507
Ni 0.2933729636753255 1.560945138761241 0.27458173139517084 -0.34608128414235884 0.365560475912893 -1.6676959290564506
Ni 6.601569958625062 2.794938286743558 10.557738710643578 -1.6670675514438325 -2.351949784017053 -2.0681856127463605
Ni 3.0165390804937173 5.350203749866897 12.328450912450755 -0.054302984317938736 -0.4544573961556173 -0.22517155843846381
Ni 7.786432936853764 8.283289599296538 5.19185322126959 -0.15676633039118806 0.46664391091948015 -0.26079393562776376
Ni 6.509830265009878 4.614345642012818 1.4076373043001946 1.0444864909026785 0.5060558370581995 -0.018824588905670805
Ni 7.943047998765839 6.770922812582955 11.820431897512666 -0.002010088451493312 0.5664268819470891 -0.2610757285342407
Ni 3.903926330403311 5.8949214013395865 5.02492652582555 -0.27946811499849933 -0.6153830001308175 0.30367325148979313
Ni 1.4700147777814598 3.3913336663790257 12.882761914741488 1.3613142774965588 -1.4875901526083737 -2.759054401920319
P 1.5346970098812676 0.9629218968932026 3.7275056113282976 -0.884160211074374 0.6974996642269149 1.620178085981145
Ni 6.233102882434715 2.38841418276578 12.88311231898477 1.2668208370026635 -1.0303557079282513 0.49119974588197346
P 1.631945683594245 6.006213835669144 9.979131174759603 0.21087468219981745 -0.34494999875139304 1.0989398847555527
Ni 5.45110361740095 6.097843165743136 12.490531728740324 0.5277289511562588 -0.2463160537265629 1.0679442077049865
P 4.5905255110390515 7.984572281139028 1.7273420892075633 -1.730208445768375 -1.6684592895850363 -1.704883593850341
P 7.679766574292471 6.056162535019927 4.771354333888476 -0.4282344579033464 -0.37774133424980105 0.7457505288135028
P 6.876283206573485 1.339491496399336 3.514180243775125 1.2742017028477668 -0.5823538375899906 0.35419002929242227
Ni 9.189907696258697 8.663850680209086 0.7340472260823664 -2.650223975978462 -3.3388456209894564 1.3707116595510587
Ni 4.039149259247826 2.289445677202573 12.024845409114652 -0.023691687189985006 -1.297697986197494 -0.5647348389566468
Ni 4.750377903492736 0.42210651629779844 0.3639191785970925 0.28874208410125757 0.6332411113581611 -0.41355782972777805
Ni 4.764688376000528 2.3383919077208697 8.809761398321792 -0.4553673095643964 -1.2705628205435988 0.9351642129260669
Ni 8.601798779174334 4.677961026547779 6.457709243289982 -0.7171418639378747 0.13041895074591087 -0.9758123254647322
Ni 6.603961168684204 3.2925858878982015 7.822084039443227 0.7399992281520223 1.7781322660328474 -0.15892991370141016
Ni 4.537872904929085 3.658661754029405 3.7725983148666686 1.1722479494210842 2.023881648622663 -0.8093002285406902
Ni 8.854687636852198 9.019671933971274 3.2264588131049656 0.8730579305136255 1.6315253926731643 -0.19848196496241946
Ni 3.5960120504798687 0.8506904527673437 7.012114054590729 1.7271233790851481 0.4721506996703223 2.887733744267304
Ni 0.1577039821851624 4.5301934418545295 8.746442155955695 0.39015256342996035 1.2178166391898189 1.4765673191353086
Ni 2.0877930935227225 9.112919929316071 1.9807257434284347 0.5265737545058932 -0.8389188227380713 -0.05809176193640962
Ni 7.911244904979243 2.4553220796129436 1.6167090770366235 0.35332665285086245 0.1261151811642344 0.9481444272358186
Ni 7.047613407311054 4.487841432922408 11.830608335706673 1.6537011574392553 1.523659901747737 1.5671429126320364
Ni 1.8111392866416867 8.17900524983262 10.493840979382405 -1.8511914479123666 -2.038560847901392 0.4904289291542199
Ni 5.985391914231071 6.34333766616119 9.167128661356834 0.5210332843036382 -0.33919844097959645 1.3278462276461003
Ni 3.508024717265186 1.7592868162053554 2.951402518482672 -0.8689220539683811 -0.03189402049511926 0.04575895140266958
Ni 6.912289311887114 0.29780038106944573 1.5882260864475284 0.027702093900958742 -0.5030080513708111 1.7918917817107851
Ni 2.7050195915580293 1.8582553217685625 0.6871758301384646 0.9793229097211521 0.04039537309791108 -1.0385323302017726
Ni 3.621147346986164 7.568078670606978 13.015901731746021 0.31459401216735494 -0.20837865525084112 1.7265801049871683
Ni 2.724057302413511 0.9460270781291834 9.37278100370869 0.6656398394038406 0.8848878332690181 0.20999022271233514
Ni 4.119089250917318 6.6223642891778365 10.594647957602621 -0.8157338999811757 -0.1362018759762751 1.5039734790624033
Ni 2.65451907450129 3.5727069493649934 10.793435687692385 -0.3529006210570374 0.5474346571153024 -1.4272299063527614
Ni 3.575567204474199 9.123450450538064 11.402813498556645 2.3861806801754644 0.8209552962811152 -0.11814476136424816
Ni 1.0195108026389894 6.81582237992424 2.2797143719580393 0.38814761718478963 0.1378854343262851 -0.7162610039948181
Ni 5.959061012695205 8.000657767267645 11.54223943892819 -1.4744279041948025 1.1319909016732503 0.03294457324682068
P 6.994878028545194 7.917370081515354 8.054146377202136 1.0701221891929118 -0.43518826351336026 -0.5948357721070853
Ni 4.454392082979709 6.330866586006585 7.405367862436441 -1.216845533525801 0.9674210160772435 -1.6390291572493771
P 3.514628135813126 3.729883025944792 1.8041753471925224 2.314706583394878 -2.251412965542555 -0.09661948569796264
Ni 0.8269356202221148 5.959962314948266 4.474937175868627 -1.474254868952048 2.0822624025544005 -0.16230654348312692
P 1.7547067292459209 8.973089322626823 13.295695381373946 2.2674782465355334 0.06528905101579724 -1.6804863959528995
P 3.008914799189759 7.954167125540852 6.648096468502741 1.7788115514880591 -2.0004095336426517 -1.3779979087998266
P 5.505659994596466 0.8483020017967308 10.796504713833677 0.203249818664708 0.6898812284497087 0.5336064929829585
Ni 0.36455100987041206 4.917256774735594 11.513393168349342 0.25827682563286486 0.3506372789441574 -1.3004822338108506
Ni 0.8948634601291205 2.4643075112582604 9.616096743884393 -0.7289116028792931 -0.11489257297553761 -0.5146386936312041
Ni 1.5920124756065632 8.744112565540384 7.832758033268768 -1.7466933307972758 0.3095669912664088 0.6157753504732298
Ni 2.3013557426894566 4.471369674399622 3.404381396036355 -0.08210895078661343 0.6452368502674565 0.16836303408985198
Ni 4.026742557825583 4.492476701652438 8.619965537750582 0.07989343119253337 -0.12858061198559148 0.27206179523209917
Ni 7.724509793283736 8.987225052861062 10.544695579467133 0.20620787285176745 0.2297180401585657 -0.6492536847363335
Ni 1.8550363851504856 4.576435765613642 1.0927829970281788 -1.4713114700530079 3.3179263543382853 0.09987887317552475
Ni 5.734618357759372 2.3850480947594486 1.9060730850781786 -2.7859322001477693 0.07149209450271558 -0.5159939221075178
Ni 3.1869403880929275 7.58573683719757 3.5409673146145817 -1.1490465716039566 -1.3990680992065647 -0.5164014419585816
Ni 6.16316918516656 0.2665923307091047 6.696474326783902 0.3531122228472112 0.6268979427489526 -0.04681233236784841
Ni 4.792251670413029 4.098782359338137 13.210287795934608 -0.6117973396620883 -1.0200306718531593 1.185913362723319
Ni 5.530602154905676 7.712921621458659 5.265603657670608 -1.0170651614669324 -0.21656196239258188 0.6438574534214266
Ni 3.392823574185107 7.752266223893322 8.944826139423933 0.3173443212189825 0.5494038650265313 -1.808965192253304
Ni 8.619300597414904 3.8390417651446525 13.449833701482454 -1.081569511797905 -0.09264096066618885 0.8900752910072283
Ni 5.914979974951087 4.317945958220324 5.77142919722752 -0.2996561599106001 -0.26290532554381174 -1.7836557669542377
Ni 5.014247933519124 4.517703967776393 10.819616678751467 -0.9556358505168574 -0.7342276157755678 -0.7656004736598944
Ni 8.56164484410427 2.4310329035891143 11.536869332953064 1.0267042272185931 -0.6713291764791341 0.5023447067551994
Ni 6.625665998451807 6.005965517701464 6.943464253185097 1.8081069580180666 1.6103793547231684 -0.09171459219717752
Ni 1.389173483858907 6.891476587410807 12.751278470551002 -1.6991531191244673 0.08545369888913025 0.1315047276109219
Ni 8.62116758065339 0.08930157905103447 7.45525310275104 0.3016423371026934 -1.4199698823562383 -1.7210226655040488
Ni 7.521569634956654 1.4022239726047663 8.685667712910233 -0.453169016361497 0.9745473427093797 1.633312052259942
Ni 5.536874482830043 6.597495704562753 3.216376183920973 0.5874122259495045 -0.653865472476732 0.5593820592851657
Ni 8.423258160412274 5.99360480108805 0.4498951362735655 0.5015129548825233 1.2014507962372856 0.6909402658418422
Ni 9.01909252538002 6.961759769226068 6.607957248571502 0.26253585801953494 -0.396072271348505 0.6427788756452673
Ni 6.398997678768618 7.314012601823074 0.9601756841098951 0.8053952370593291 -0.7938185879653232 -1.4821694958134344
P 0.384399892753649 0.32730607380691257 9.732948741601456 0.038594572443746436 0.8823051601435062 -0.6150341014318311
Ni 8.958263820260138 6.8499798959229174 8.978760169251697 -0.4384761902360126 1.0633308773026913 0.8644079681481114
P 7.3584799119613615 4.642672284251892 9.66186266502403 -0.2942010503332998 0.5279122708116585 -0.031414509755539444
Ni 2.078467374292066 5.749719768979033 7.895000311412075 -0.1051573479656447 0.4013430328291411 -1.17850164364028
P 8.910595967427307 2.9243211448667057 7.554350365778969 0.18872668534786852 -3.3564093409048326 -0.8294615339799134
P 2.068313928502476 4.8585433708218755 5.712592554026139 0.7570497558764059 -1.1225739792347247 1.3077720826040444
P 4.572747783945503 2.9847359867071206 6.6613290570915655 -0.4542092847005532 -0.40483227692932217 1.1657065487581408
Ni 7.000819265845987 3.530134213350489 3.6454356033138167 0.8161735586217556 0.6445989595731414 0.5358942605758705
