# total energy = -340866.866037254 ev
CRYSTAL
PRIMVEC
9.29367247337870 0.00000000000000 0.00000000000000
0.00000000000000 9.29367247337870 0.00000000000000
0.00000000000000 0.00000000000000 13.60222908360212
PRIMCOORD
 96 1
Ni 7.065180025737648 3.5056662433321386 9.866376591938165 -0.6073932970571216 1.3669395941031361 1.4005806791963493
Ni 1.221012000517536 5.571212860811256 11.057633040876272 -0.14627777215503843 0.6926500494440974 0.2671103647640948
Ni 0.27447560924703496 8.757213941221808 12.051942626805516 1.906346238707639 2.281441136473529 0.44207702021339346
Ni 0.10586515401081818 7.774036316338832 9.941597719268515 -0.26627064247161886 -0.7265040218790649 -0.2854700982182051
Ni 6.586267782729381 6.329576545379275 8.69504856516696 1.8762211371874848 0.9236523556317254 -0.5702524263407662
Ni 7.91084847075704 1.5698964701092446 3.0431043585378488 0.0449343986188452 0.3534508371335526 0.8719143038274856
Ni 0.14074151919560257 3.502822379515009 10.66174024588121 -0.23529142048128512 -0.7133399736932812 0.38593081203912893
Ni 7.801173840345433 3.6490025559190578 5.823780495626524 1.8521059893068361 -0.18037599939032806 -0.36062112962974674
Ni 5.563229596043561 0.18269966290539713 4.625287993198164 0.48578988772031173 1.3406865739438782 -1.11102381250328
Ni 3.4998298169361983 4.6650704881511285 11.10401683148057 0.1528446267392787 0.8444929743917392 -0.8799446303311297
Ni 5.966695804844436 2.6984178408618185 7.300398232533903 -1.9666519775762326 0.16890682240846394 0.004920320119752817
Ni 2.601968106567126 5.586333666139592 0.21252398766210337 -0.3605411683214307 1.1954020189400445 -0.05602973720105835
Ni 3.4424506822729275 5.778024957290327 6.666139463831274 1.021805247255079 2.4581188610766636 1.0382610788182571
Ni 7.139362120470761 6.764613360019337 5.110711383233494 -0.9035195894375923 0.8078660671973249 -0.5443120523259206
Ni 2.7373397417315597 8.418310876007869 13.535673740724762 -0.9945294422582613 -1.0471303562834289 -0.7327690289521703
Ni 0.4892059147855654 8.877251016587989 4.524564098872432 0.22668465264888057 -0.39960830952622145 -0.19192848011461786
Ni 4.226464903230747 7.1078379829946 10.89689525570375 0.34265606051089376 -0.030747822705818013 -0.1079199983124464
Ni 9.215494231046973 1.77681079698697 5.443789174458619 -1.8678431975364347 -1.5759183448318215 1.5734012348369224
Ni 5.808015638786663 5.32411269358951 1.876495658715463 -0.3004030653789536 0.805779102761309 2.296676465366045
Ni 7.597976982509707 1.970360822658705 11.759235620009251 0.34975667611141703 -0.29429695248121573 0.21596186691473776
Ni 7.421545901776383 8.746145177149252 10.958635910920549 0.2461525315655051 -0.17126915199305343 -0.9219037483717348
Ni 2.7196724701094537 0.23342731608526993 2.7954075375348615 0.3818795247878907 1.2345871737799383 1.084452489772655
Ni 1.4783445012773875 1.217517579618056 13.699621560415048 1.058909351196228 1.3874395138287008 -1.8146046499272686
Ni 4.5606096080709255 4.256632164506578 13.602773127565602 0.014711080957929503 -0.11700267734000494 -0.36805881685471453
P 0.9772482617609848 1.734803396812369 2.9157327167517995 0.36457728606401724 0.9069011043153155 -0.06681294385949138
P 7.378097982348008 4.581018513111506 3.336763037408865 0.11434801332597724 0.35091650074747305 1.334314351868947
P 7.712354211259445 0.32295605239101866 4.9559996153780554 -0.13890641939163173 -0.9031346952943479 0.07127869294032886
P 2.6699606153453077 4.4352193772842625 5.398534565075831 1.417771589153339 -1.3455241045418376 -3.4986749065766842
P 4.121901792751889 1.6337532945782014 6.15507668981327 0.1917330762743601 -0.576444156973775 -0.44511297882623985
P 2.1866617588674804 7.599296684019618 11.250349424115338 -0.9563830130955271 0.4345452306127226 0.5934489190618876
P 3.922859206570599 0.787716820123652 13.205642415379556 1.091582930169849 0.3212786232763822 -0.20903685766013033
P 6.278507814414799 8.647028158816925 8.808898842679994 0.2589219154160315 -0.7006402667384256 5.869802806184085
Ni 4.711232159980164 9.094955297360121 1.6001250696242686 0.4751702032229365 -0.46541800893217916 -0.9665926066386773
Ni 6.391918501213617 0.09528430775002542 13.27334124410342 1.0404100068404598 0.8706588341538296 1.810186980475547
Ni 3.1344304911254044 7.311973501763431 2.0161907103757426 -0.17169621222814302 -1.2066907044799864 1.0212861415268155
Ni 4.424615296841957 7.276322973650649 8.361834156954542 -0.2052401096218594 0.684035568302209 0.5531139668882669
Ni 6.762615220409262 5.328397076660415 13.451707267473106 -0.04044216717544648 -0.9800083658239508 -1.6496598974903462
Ni 0.9709378580621896 4.228100589609228 6.371896212953405 -1.389569158577194 -0.6575244093855579 1.8863443416644154
Ni 0.9513096215204291 1.9958998349772457 7.470399021191827 -0.7107974097770855 0.05105516680460239 -0.1763313970073092
Ni 1.5322292150411787 5.070311788419558 2.7650200162182923 0.8468293358343997 1.8248188714561087 1.3213624196939695
Ni 8.864955487731574 8.754713943291062 7.398320084569227 -0.6193237299461205 1.4665994092893193 0.04833982475596836
Ni 8.393180785283947 1.8095431119017809 0.6990115032107062 0.25875402237959955 -0.9480683225822446 -0.20390904951526173
Ni 4.694020278315704 2.609207877526421 9.663703897237362 -0.558818730582528 -0.9984202926722352 0.16710936418840897
Ni 3.558091850496945 3.6445230057234475 7.549727022446328 1.2604110768215777 -1.189519334907022 -1.1670507214908612
Ni 7.088367738887125 1.3785304574996848 9.452583254138615 0.07182556658273435 -1.970558768829806 -1.3836304244952558
Ni 4.7045500093771695 6.919315834202171 0.20511321312687622 0.05263562391784483 -0.2592242771477987 -0.09499197739686867
Ni 5.987457869444007 3.1706014649040655 4.024641650206041 -0.3954973726816414 -0.9054409748300213 0.31962514683335924
Ni 0.5247709411103803 0.8774751101427443 9.44560556474678 -0.4979450350256069 -0.026263304571903155 1.673323302545557
Ni 2.370620714410855 8.328645522714826 9.197664320154281 -0.004787651196630465 0.0014254195926169 -1.1103393848417458
Ni 6.304344224256699 3.1450717462581297 1.5383714032658236 1.403833638916008 -0.7889422337096283 -0.8152173653560734
Ni 5.33790450373533 0.38881101647005034 11.229456318732037 -1.6625133564142462 0.834887332981175 -0.7652086375381144
Ni 2.3236969614282086 6.806685815902173 4.69018477963162 -0.863747451745977 0.21534763036950652 0.17461132899240897
Ni 6.551435097805841 5.959604732646821 11.044316137400568 -1.3661507796532535 -0.6912847936654546 0.6858602802157737
Ni 8.311303529633896 6.979501657992151 12.470088191485988 -1.147503652596869 -1.1616344355712962 -0.4072658260714792
Ni 5.979474604676311 4.7041689688003645 5.950648420357382 -1.7621412899212299 1.4354211839143018 1.432344087650875
Ni 3.8164745362611616 2.442479390992717 11.845610083832865 0.31728415740500837 -1.3547708199510862 0.7438029181688287
P 7.91122021766124 2.2161319946979363 7.487687110971649 2.6883758044578348 -0.3257412870334261 0.5318509437444324
P 8.618245654759239 8.493840553268706 0.45480724437267805 -1.051903609302356 1.2013204413070082 -0.7305856481476063
P 5.196250345889917 1.6065785958811807 2.492921728423616 0.1821467181375057 1.1226104888996151 1.2955192333786203
P 8.297548894178496 5.598099455657522 9.995176671203604 1.9616876915924215 -0.034824820988669056 -0.23350373245324305
P 7.961666272561182 3.56282232985289 13.23875019466761 -0.04551906747772161 0.28004275655504673 0.3642906080615339
P 3.974829423777761 8.08996542287321 3.9425515694533346 -2.408439234463349 0.5395190018126516 0.6958317896061886
P 5.449856083935162 3.698983927188749 11.56948484769844 1.7676313665015237 1.1325246626895336 -0.7327777707029186
P 2.6929066930070533 1.3146085773224934 8.933563237636207 -0.23476023056816342 0.47807709245708635 -0.20050465181940305
Ni 0.35968464652597965 3.392125445116851 4.10985905179033 0.3903816487216309 1.8170698236383094 -1.6961991787024662
Ni 8.598403663747563 6.289892563355925 7.034474660817989 -1.4268825503156717 -0.09494364065743649 0.4331609486706862
Ni 6.418554166899547 8.832409046268864 6.9298595057725425 0.6302532323744306 0.32301720323404376 -4.983464613621785
Ni 0.7101332412171101 0.02642562868505767 1.7456556183132277 -1.2647593264879446 -0.9530110112995006 1.5855458406192564
Ni 8.608496592196593 4.771975604126445 1.6323899128070478 -0.07972656659736592 0.1688703127435737 -1.0949446475532303
Ni 0.9128858615023161 5.931714421159215 8.6652725675078 1.8839724989981297 -0.0453912836506057 -0.317301383796189
Ni 9.123375348186212 5.70680754411821 4.933800748993753 1.1315499574810899 -0.7298886220805818 -2.0935814271116464
Ni 1.302387397846918 3.3960845496465812 1.3383492639919665 -0.6140735372907747 -1.4297791551371763 -0.0017151829188938204
Ni 8.68270656794752 4.14578653134674 8.388888967274958 0.09649170187084673 -0.5964041450354697 -1.5206319135546909
Ni 5.134168612888515 4.73388084011855 9.27522373551205 -0.49398733592943955 1.0087972650311854 -0.18922522225084187
Ni 0.846349671221338 7.027447714961348 1.3111736359276853 -0.22685948766384803 -0.9442255517973867 -1.4789988113949368
Ni 5.652244392254254 7.336508797440631 3.2524694268815124 0.9670368932649474 -1.6023577699702727 -1.3695515778046865
Ni 4.7350890175572 0.8126917065150692 8.22509077571361 -1.0511243079341703 -0.9770744800066075 -0.43342860050977616
Ni 3.4744766780697582 3.093817141841553 3.7196660662039163 -0.01044793480620136 0.8670346071376809 -0.8132934088604832
Ni 2.243929369459492 3.631437514695607 12.764876051578513 -2.653671311097114 -0.5515895598239403 -0.20704785225455954
Ni 2.088213884962713 0.06778711861361121 6.719787188943639 -1.6342726164009982 -0.0138387056553052 0.9293689464005284
Ni 7.030793437099148 7.243534896700209 1.0714479979180067 -0.47704967963383643 0.41406510838149974 0.05066538756535146
Ni 3.9639465331573054 8.528347959651072 6.057194800570147 1.453779888927148 -1.0425676766134109 0.3828197772139729
Ni 2.125462924763554 1.6354540366649164 4.908201327803279 0.8047740585355623 -0.0036769346309549577 0.5130335539276132
Ni 2.640787777038212 0.5958647484368506 11.057714825195196 -0.5922207030817414 -0.6505582624803699 0.6719889215503201
Ni 3.4986402268427588 2.3889664241331254 1.1699153885352447 0.41473925163038894 -0.6320458054984793 -0.15307859712695573
Ni 1.7974055754796505 3.523407864335084 8.890063273641243 -0.313806226158737 0.8651350761221229 1.9807138549859373
Ni 7.633906320800638 8.361730997188628 2.99206908479475 1.948333638883019 0.8729530295046449 0.9895985806155472
Ni 4.522784360568575 5.3023376186759945 4.334078197058566 -1.0290966387101697 0.41857610887797586 -1.6546198125987825
P 1.1097760331082882 7.401490156294793 6.985071355984329 1.5581350527064712 -0.19553650918085033 -0.45235886175537576
P 0.23777210802810753 7.048061080799239 3.275185950829915 -0.04825626390322657 0.08963611240159401 1.4227376749093625
P 3.680693979502108 5.137198350157745 2.0275485076663133 -0.2069779182485726 -0.8938005623776154 0.6300323746128762
P 5.928368699021416 7.67204755317156 12.243843025589863 -0.10049002439696242 -0.9477222520967357 -0.9164692076197248
P 3.150155385173065 5.473313313590184 8.901652483379678 -0.6443176808872968 -0.11219574286966483 0.5734089696918769
P 0.5284977038249854 5.631723963142413 13.110862754051983 0.3956567810776412 -1.319002404102225 0.8649900659038264
P 5.742207143070655 6.7122992769257905 6.726166365819711 -0.6803213526754155 -0.49636766323615805 -0.6786902448298957
P 0.6416044875296198 1.6774242621490976 11.733514451707654 0.027317713978346498 0.11969642212208417 -0.346353563967139
