# total energy = -340870.1423957646 ev
CRYSTAL
PRIMVEC
9.29651287838021 0.00000000000000 0.00000000000000
0.00000000000000 9.29651287838021 0.00000000000000
0.00000000000000 0.00000000000000 13.60638630343052
PRIMCOORD
 96 1
Ni 7.178451024795853 7.143207945153651 12.086634150795716 -1.7311664388062702 -1.7677540081223166 1.9802749676763056
Ni 0.42946541925166243 3.7020293974885328 8.730592136777478 -1.202473066854213 -0.8518440154401716 1.4986145287433352
Ni 2.8252938778639347 7.238831874776362 6.911241360286269 0.6064437886596588 1.3319715626683835 0.10614876534463655
Ni 2.9316645761667792 5.985197137305765 12.506309412523978 1.6884503879949824 -0.33507464861921005 -1.4124036399732063
Ni 0.9504940513790786 0.6758852924122992 1.1104005773621004 -0.6576948735251512 0.14900622682979497 0.07584188683097906
Ni 2.2756654540690766 7.9122991442356305 13.743401935297836 -0.9083321803348872 -0.480565663206895 1.0146866339324268
Ni 4.156182635863865 7.389909502649069 4.709700720572017 -0.5776384343921923 -0.5469674876708968 0.37180054328533385
Ni 2.0674514591478386 9.229131575034556 4.082650939019242 1.4319087998856694 -1.4628057465748419 -0.7217449099275248
Ni 0.8767782835830137 3.7314249706430154 11.386463578259615 2.2728078862785632 -0.4181696174681766 -1.263526739632424
Ni 8.138288071437504 5.454338372650344 8.194949386687112 0.12255728860964701 -0.6395261730359244 1.8582936061747868
Ni 4.354040315638331 9.011109759215792 8.86832926892701 0.4407320761497248 -0.9745373154070508 -1.8205675523789226
Ni 3.6840871279793133 1.3561566795160231 10.289951990869936 -0.6886494129251366 -0.2969798986300176 0.8111470519414418
Ni 0.12588965636582747 5.031421416943912 0.6369765978128503 -0.14001430774382986 -0.2340889155327517 2.662923168712685
Ni 8.376799401245037 1.1395014510640227 11.982817204531306 -0.5837784858516591 1.5579154804964974 -0.2935888706705976
Ni 2.1745100993904147 5.290970754989456 8.170104456498828 1.1147133455397253 0.7623757960750096 0.9126997132749637
Ni 4.620283142827211 4.350572716401575 7.610364215841183 0.27305501238330393 0.6974310157725085 0.513392994149561
Ni 7.784890437694774 2.921615045939076 4.620715430667718 1.0281052213311777 0.7679430057501418 -2.613424033541293
Ni 6.258496017633243 3.091350774798833 11.166094392984334 0.8229306748399311 -0.696432399304665 -0.04851208866777452
Ni 2.437712966926696 4.055733816150333 2.438305154785627 -0.5032574483774559 0.7490973337985486 1.906958675480658
Ni 5.458261501009355 5.262951065714436 12.403635937321557 -0.3967785533869102 0.23051225392508687 1.6436412021000917
Ni 5.0538353090613874 1.2465136087431035 12.283341851949304 0.04881727861301915 -0.014685112816000516 0.387076752718114
Ni 8.348398554949355 1.3634079594213036 9.374609913308609 1.0949991549402496 0.8184093899308099 1.2562518032375656
Ni 7.38285344951047 7.274893047536083 2.473110368679703 -0.49643091237392567 -0.6047172928868554 0.006127453053976544
Ni 2.829077558532459 1.8867458453031705 1.5937430063099964 -0.2892390783423341 0.806366599833663 0.9468426777052598
P 8.177788953895886 8.525422749765188 11.074550702785249 1.091073080412966 1.322695022462464 -1.3490855966408508
P 3.291104943163911 0.4365688846050275 6.927269477830749 0.585203905444276 -0.25801534444136204 -0.18966590933268626
P 1.0217332281921092 1.8082739816102575 10.268113552888533 0.37201960127467537 1.0230267783670057 1.6893626153966066
P 8.375572261568758 4.613580357171176 2.8670287123239033 -0.19554473671096645 0.41146109509974943 -0.44263983469539897
P 2.083831914523613 5.536222056503819 10.505585532576308 -0.40910570749369546 -0.7450545311877427 0.2315170410405174
P 1.9552146613318762 7.00042280660852 4.739267349560163 0.16841214216023254 -1.039184619073791 0.5622457539862059
P 7.9658377608696185 4.086412308057289 10.283475110472489 1.082059049839814 0.667891868662811 -0.742509910389018
P 7.205643324440655 0.8515205882308902 7.742917612509709 -1.8194833181758086 -0.09825933529423078 -1.4552870696002937
Ni 3.9237605218742293 7.051237545021677 1.7285684706821771 -0.5474220587098121 -1.560071864717868 -0.1898759684609633
Ni 2.6214864299620593 3.4552720609169194 9.424653970819012 -0.468630859442522 -0.019208197497334663 1.2578605424855822
Ni 0.0058809739334364074 7.77565900058459 4.96815399977034 -0.011371475061735253 0.8731983127462317 -0.8553093482809528
Ni 6.268480472272053 2.571062145082263 6.2458341673371 -0.5120709329040277 -0.6894472262360836 0.1337672983928535
Ni -0.060196779029066436 9.217092591089251 7.585914387442609 -0.17022888365399716 0.33120668102337153 -1.5031111310621081
Ni 6.0452247198037075 8.718102271966268 6.400307811298782 -2.1184054281338613 0.36123793727813913 0.8995896582555669
Ni 3.103612875048916 5.00614419891512 5.723281836778305 -1.6078599307354247 0.7295307245205307 -0.25888412019956064
Ni 1.283885589793395 1.5479716260360885 6.055930583827966 0.21081169017236598 0.20590216868589054 0.2094934855815747
Ni 6.795983195843108 7.345304834718895 8.984174043321485 -1.2747246652307724 0.7796566946426444 0.09783767437577988
Ni 6.38662985216463 0.26927906823639836 10.107123053524798 -0.14405582480305515 -0.09950452055524153 0.4370739105718472
Ni 7.183024909043799 0.5605276552832565 2.124202020919357 1.238571612348983 -0.8276036548355683 -0.01906961503694135
Ni 4.923033375385368 0.9809866130320528 1.5365824683284488 1.4183104923759444 0.5024701765894702 -1.4303445407223432
Ni 6.137650649057936 5.137392365200696 3.2394358552337077 1.121664837156894 -0.048996741613676904 -1.1148948654229123
Ni 0.946459364867679 9.252140443964773 12.373756015855454 -0.15485780051456555 -0.7228366003298068 -1.4438461747532036
Ni 2.860853038937906 7.391685136574593 9.50229193732282 -1.4213222826190748 -0.7532357814469544 0.17040320444833232
Ni 8.678619982533286 6.418117140676404 10.420641436742297 0.9654497512834858 -0.0762298662980171 -0.8908013705399755
Ni 6.537912003316717 2.781014587878229 2.0654768798505545 0.12212457194760255 0.11564899152558793 2.4528038766216533
Ni 0.9330630900683083 4.512657415309991 4.523933155562702 -0.007264651982213295 -0.6924523316109945 -0.19109749957289024
Ni 4.408945519639083 4.706954530720711 1.341453315031162 0.10130377854750941 -0.3092600015489513 -0.39170165308463506
Ni 0.26872964433588287 2.960028236411665 2.2708377750244457 -0.05305471373313443 -0.41785979953724167 -0.6255594264431872
Ni 8.122521185899869 5.624529630632355 4.774208292539646 -1.2778418707035153 0.3607607405314045 0.37392633137908504
Ni 5.22935346881997 8.406380904653501 2.8601846196748424 1.2874955917431956 0.9365893754083676 1.1782566175090097
Ni 8.63736205917478 3.5029166884996914 6.626418522817014 0.0540967818444036 0.18583188029857672 0.032720887271788804
Ni 4.795922157250882 7.433519443720441 10.816274057328208 0.47052267714859614 0.03386759928172231 -0.39021889789152153
P 2.97015213874096 8.738173442883577 11.85108097132903 1.234240331963481 0.25589238456108837 -1.5733930073068065
P 4.655721449236094 3.2314771107120275 9.56669074009187 2.0297391358447046 1.0792336645758767 1.1347466100415167
P 6.342564381971002 7.289869729494297 4.697088141793179 0.7438723379541834 -0.14784563086279054 -0.577627892869231
P 3.1653231263453923 9.06191520111625 1.7106764023415326 -0.23616071046011583 0.25649222292861634 1.0968035551388402
P 6.413506070377662 1.4351398514073854 3.9428992525678206 -0.3530906255806564 0.207814555217255 0.22275446435653895
P 4.541309267448548 2.8376768327791058 0.18711091109433223 0.14493257098105364 -0.5383087835546342 -0.3488439344891605
P 9.632023842387175 2.6521277358182185 13.497603069185498 -0.12306225327052354 -0.17709347198431435 0.3346290764413592
P 1.5318607695285873 3.663625503528644 6.8190311101266605 0.5607632559034085 0.07515951605197378 -0.6379506010186884
Ni 8.384292390480493 4.246479663710005 12.473858075645309 -3.445434816305621 0.0873372890650883 -0.18852485374970757
Ni 0.9336394738556513 8.983387558347143 9.6594996856693 -0.6709699933675025 -1.2139854383691866 2.102629653356843
Ni 9.480304755138231 1.1729410072426043 3.9617302686910714 -1.3061170634991248 -0.022936297081199205 -1.255770492725773
Ni 2.6534013580579923 1.6001715448414084 12.69202305775964 -0.20018069282108106 -0.44916195208463294 -0.7046254766384188
Ni 6.7020512315316285 4.6100848683963225 0.8598037810457683 2.144197449496301 0.3838734152894679 -0.5077165125900739
Ni 7.7138650806738225 7.177902530546608 6.778034418774998 0.47770891048439024 0.5233015115125246 -1.0647082172661921
Ni 7.014181645403155 2.302829864175781 -0.0481094532177259 -0.16539212438698614 0.4893989452278088 -1.0145467659204528
Ni 5.338382969754751 4.809002350618483 5.354561690804955 -0.6655092273632475 -0.2802610432134399 -1.1164287855689354
Ni 0.6854560522359994 6.588577997526689 2.7675392927209157 0.06357849608259374 -0.3868024160108048 -0.08379636579136536
Ni 2.3538212363302207 3.695670582802364 13.645708601948312 -0.33555518780005433 0.41853394278613076 -0.5897791835197842
Ni 3.9690345387187365 3.5908431056075663 11.535426249493284 -1.243144062211014 0.30617236376256307 1.4789026521367048
Ni 0.6251560819159732 6.489774660560894 12.530120570500126 -0.4655702182393272 -0.12425113137230216 -1.0095248872258291
Ni 4.689068040287685 8.051207636985247 13.03425093149443 0.7148587243306528 -0.28674922204094483 0.9597205621091923
Ni 0.6348597818712703 5.978875508670392 6.637861600298309 -0.38470722404467295 -0.3101555167800271 -2.1635676264927968
Ni 4.521526288424911 2.823369499735226 3.43602084241967 -0.36458319960128827 0.47696071946445595 -0.053249346242443776
Ni 6.749296109068339 9.312688631173865 13.404113618878498 0.4781318569544218 -1.1315584421215223 0.035857118907925346
Ni 6.815877733019133 3.09359123435931 8.605590297374413 0.5507395531188193 0.9564375204825464 0.24240617714919543
Ni 4.846458000283066 1.9567113998764276 8.027482006925931 -0.9322681223251944 -2.706707769997803 -1.451354567315107
Ni 3.6840313489031185 2.645192537344707 5.745242059076067 -1.389806985619613 1.2898445515913461 1.3316154648805454
Ni 7.955165364291077 0.33690190160948785 5.57792435316934 -0.19063650077607167 1.5562308937052232 0.014573526938800707
Ni 9.001608723237334 8.076289628247357 0.446671404955115 -1.1047091831391618 -0.7401177560077575 0.2391755860270397
Ni 1.8255840882559398 1.425861931733706 8.425496394065345 1.1681760933445557 -0.08229869819991632 -2.307410306843781
Ni 4.578839289214724 0.856611358584905 4.8924078736007965 0.06409914447275412 -2.2921178994610845 0.04008941182171805
Ni 6.23414845087436 5.474669845923226 10.346296295036504 0.22565621138436623 -0.3277197509160356 -1.7433514109082364
P 2.1999546546477897 2.1213061572135943 4.053287903659206 0.7646404237394703 1.0701494428864216 -0.9608333355573969
P 9.021466074362564 8.687767751029178 2.5720829021766223 0.926230914992179 0.17124961160902769 0.6635968408318829
P 2.180543536132116 5.6574113960489925 0.8756998881099208 0.009824185179273403 1.644635190582245 1.0481773094907045
P 6.854514039796499 4.878661120272671 6.6458491640093555 1.2543003359381493 -0.7648723372446181 0.9630992487734382
P 4.646536494689405 6.393425602947654 8.576825957432197 0.22779176967013026 1.0515086878567825 0.5060162420695157
P 3.98744163386291 5.3383457837039545 3.5348306869443546 -0.5358695779855223 -0.25006369369445325 0.02429435377099042
P 6.15262733101615 6.558773377813447 0.4908186844604941 -0.7714448482558134 2.048625945446878 0.06636531479911152
P 0.5509150611524105 7.327474123362065 8.25533488492397 0.23478902692356984 -1.1464808677593095 0.8256403604616104
