# total energy = -340872.8384350509 ev
CRYSTAL
PRIMVEC
9.28555312401794 0.00000000000000 0.00000000000000
0.00000000000000 9.28555312401794 0.00000000000000
0.00000000000000 0.00000000000000 13.59034559509315
PRIMCOORD
 96 1
Ni 7.645408557225287 2.5819779843426764 9.189233869580708 0.8120083715004726 0.5513224222054828 -0.44324172994545596
Ni 6.789716999917866 0.872871687301346 4.082172340684988 0.867342625296403 0.07532252399239932 0.07874646207228374
Ni 3.4062193739442144 4.444446330354749 5.4185519011458645 0.9065012977737356 0.07113651093550974 0.007590667863064346
Ni 0.9301338349862114 2.812231839849845 8.533282912363182 -0.7176599412248736 1.6452885078955277 -0.3880954237906155
Ni 2.005345148636939 0.9359373055549085 8.093961118868108 0.2436706456839158 -3.449201739547221 -0.26106827233507296
Ni 3.505723358926866 2.281794629870936 9.295103101083107 -0.62077820300446 0.8979945458543052 0.4550356372565905
Ni 1.8253447054782317 1.1941778175325617 2.9400948319746694 -0.6253339406959424 0.13995980035681058 0.0809666096520541
Ni 4.586097439995506 0.5151661896632626 5.090304820114487 -1.566248168731909 0.6335833251889282 -0.17253284919682543
Ni 2.123819518214548 5.1370557219053286 13.225893072677747 0.15127753936247496 -0.21217746017164105 -0.03497883006803008
Ni 3.5352142749687574 8.970744809610402 0.718155804716338 -0.12915422510087432 0.40584554868518496 0.8972245004575
Ni 6.650480134033687 4.396950727220533 12.249290616709155 -0.6498018439303196 -0.15547897903833222 1.1081171803794465
Ni 1.2236687335744527 7.918543096070445 4.630026462257025 -1.6434180303456922 0.5641285728312155 0.6372260641478381
Ni 1.0405483446380137 3.6562421715965927 10.843165411231322 1.854661151628522 -0.8451149242464542 0.5141162454688307
Ni 8.96659416745967 2.0607427572974935 1.1433691291200874 2.645730201873166 0.9000691689951467 1.5810734066701997
Ni 2.6687236196271047 1.2824741401529458 12.805760802826303 0.10400369397717574 -0.6044342144287977 -0.6045252314807072
Ni 6.413782104807037 1.4698751689808556 10.882686581526503 -1.1696971579747726 -0.43702171717767313 1.7975134987729366
Ni 2.9500201594800775 4.041899040604103 2.871558165946585 -1.9309637801460036 1.082921140729793 -0.6913611554293448
Ni 5.154549703587609 5.399623301539003 7.892647546115272 -0.6559136132550123 0.011072198653761576 -0.12617045988220207
Ni 5.14235777261689 4.24387838750058 3.170409972131043 1.4416545664185236 -0.25460503320823247 0.40592833820697827
Ni 5.374357312071123 6.024680295669948 11.176631901553362 -1.08207524778973 0.5644358196589893 0.9865680213193395
Ni 5.987408086289547 7.946873317998596 1.6707151785352858 -0.1186713232916795 -0.49017696104441394 -1.6201564887145903
Ni 7.390473702083564 2.033814653858739 13.250695713055421 -1.6006276746530432 0.8707423950065714 -0.7191817771860388
Ni 0.48321553065553513 8.160756743725583 7.71935684348927 0.10735795516138931 0.3938976322946893 0.266418995124025
Ni 0.5704635143523898 6.170574902990536 11.604714461806276 0.529572689233217 0.7249893850067514 0.05742404644542369
P 1.8626354859644514 1.617004754838463 10.615527295978877 0.9784407642265149 0.160415239997685 0.1848633457377203
P 4.373866842686484 0.2738588119721307 11.81885695445945 0.6206427058678602 0.3923899374009113 0.4677317446670202
P 5.5293239045846985 1.9335121113258344 8.950220952013616 0.9614100339964733 -0.5216500919520307 -1.1050848213110258
P 1.0911267513383223 7.6699317024603735 9.747199029716352 0.12129924783282982 0.25800377447713635 1.7270770992282447
P 8.166198077730794 8.661526612157314 0.48596498287216106 -1.4767928048825534 0.834011615244441 -0.05207538053900063
P 4.023931495723417 6.047318473664321 3.914971103657307 -0.18054183554423098 0.4469862845895528 -0.09354727453054211
P 2.9821388869954744 4.677207285147595 7.775553009700077 -0.5475611553908377 -0.05928321114134951 -0.6925238082788783
P 7.9976652924158325 2.8824491909546244 11.46448868453719 0.6007367109725524 -0.46691901895773785 -1.3841235620815904
Ni 7.493979760370389 4.656147651147907 0.9866104248948981 -0.7641346877476454 -0.2119288344959447 0.45833513394346864
Ni -0.019094811003949736 6.816886527732278 0.2972630480815721 1.5908124883348345 -1.1171651495143278 0.9005515079482039
Ni 3.9917570548905608 4.151589277128932 0.9197479440564712 1.0405228782692404 1.4305407158935493 -2.207571285767256
Ni 7.943994796596522 7.064132945064592 4.960761142912968 0.44905730818596856 0.37112382893328344 -0.06142571140564904
Ni 1.1152506177982822 5.551664944885955 9.34474830971597 1.2818923866238054 -0.33124576179142307 -0.9558603078228377
Ni 8.610966776562826 2.6097789297549627 5.840423355057335 0.08937540254103962 -0.025433095361123943 1.0883682798872933
Ni 7.0897424999901375 6.877446903810745 13.029091350083837 0.05663446066459278 0.18532742985833245 -0.7958222486589133
Ni 3.0941505117477823 6.838967572552057 10.916050501687119 -1.2830308711036225 1.112335075115536 0.8805976905340962
Ni 0.10235650683657789 0.8208976619986773 9.82132095581975 0.07409893599794336 -1.4587338904983136 1.3420446306336693
Ni 0.9400229488352713 3.272479555382705 4.203616230083187 0.1952914830495798 -0.7328171085812863 -0.8581750998645221
Ni 6.0357672458443865 8.225607045248433 11.110840973520741 -0.52501592310047 1.0604640972778576 0.7166898640021205
Ni 2.8477305086244513 7.307108008058345 8.39728391877869 0.45349528935266414 -0.21490000130912665 0.08086633662876395
Ni 4.7342670077790245 7.6742401990105735 6.511297124356385 -0.29481322999600196 -0.7242936444913075 0.08730129362083029
Ni 2.2280312785225265 6.459857018346036 6.267744499971636 0.5248855681701928 0.7929467268833311 0.39940982036217015
Ni 1.6789486783005076 5.639636273154492 3.9974509559349207 0.9631118471789285 0.963802959708682 0.8022487210105473
Ni 4.6852485739675815 2.451423110429268 12.983699853239008 1.5722059289772408 -0.23508110424269194 -0.6658316436996726
Ni 3.795534750798231 8.929498383584558 9.798571351190457 -0.30521797026909375 0.9700219440352005 1.6227443040464247
Ni 4.632200210193236 7.350062975819612 13.027324309365081 -0.5245510676489095 -0.31313516823364135 -0.675025908604431
Ni 8.615758121864342 4.567879185186253 8.10113699415689 -1.006413595290357 0.7348230832677215 -1.578844517339681
Ni 5.603617613416931 7.773521330723388 8.905767296012687 -0.6630574233886452 -0.8141040776872367 -1.255239045702335
Ni 6.979337275891246 0.9486770841473122 1.6645727852853769 -0.7731008958019976 0.10458116374720053 1.5027020685491475
Ni 2.4881381866350725 2.365262464978164 6.392830183221105 0.08865652209714409 0.05453875447782865 -0.7747350889713109
Ni 2.88621912543605 8.273566926028144 3.1891649318984903 1.7806257218786623 -0.18431081566836 -0.816703977203929
Ni 1.171678922831837 4.389494428233871 6.298486179990492 -1.2084328839820735 0.1121962570902971 1.280240709952995
P 6.742360680077298 4.27562569289958 6.871985141589133 0.3503626851265321 -0.3646515909453784 0.12173582114961615
P 6.440478069423044 8.682567675051182 5.679677434412628 0.942470516779493 -0.11396671872715856 1.0181398825883496
P 1.0879232355844015 7.111628548198809 2.409540624029095 -0.381202296215208 0.43811675001406486 0.22812704152236196
P 4.766970725127746 0.26216365808209247 2.5734269186679355 0.5080319869479637 -1.0032154000680336 1.3602542116631606
P 5.9478980586578585 3.015176884248953 1.5185444660028855 1.137724461722918 -0.366688161759433 -0.7171194953403714
P 1.5705212769714272 2.8989960462400934 0.14655573868777452 -0.5070295138253784 1.447423607691817 1.184238031903425
P 8.806260525364163 4.903310498504032 4.278091007197163 -1.018378223851401 0.5311773147161756 -0.4753476093410652
P 9.310066769597436 6.455975657229692 6.495043692542869 0.30581549464377655 -1.131400319277103 0.3033222959082776
Ni 7.627208873521853 3.190088844413027 3.098041158417037 0.6896575424746767 -0.1631670917112093 -0.19195470536686296
Ni 3.98526645340653 2.049182243924649 1.8234569525716458 -0.8751544080313379 -0.538510358042479 0.052011874290916874
Ni 6.591962579595401 1.3962685910639574 6.865054404897173 0.7933491045280724 -0.9355128545147372 -0.04323078566417716
Ni 5.800081341884918 5.448493166503886 5.2802027341198725 -0.3083686000829335 0.869798028815431 0.5715706309315576
Ni 6.359628760236411 3.0729701655602657 5.118314690467247 -0.8188120246858673 0.1507841446658242 -0.3456709360778176
Ni 0.4306815865123985 1.5698527171619132 12.40674852306846 -1.3897216249946582 1.175140954698163 -0.6936157557914764
Ni 0.40518067255589824 4.888945748152392 2.265293273794726 -0.517557924160528 -0.027071916516127573 -1.695755663407144
Ni 4.388305877461401 0.4738296937741928 7.7063236414249126 0.07433727726099455 0.2955897031507103 -0.8852292757688367
Ni 0.9445171564436703 9.07382373246337 0.9921102578834408 0.4753010723738459 -0.3912545382448875 0.061457078864216745
Ni 6.971212417095069 5.853148276765083 3.243512344524933 0.9873684057334481 -1.1636802623567315 -1.9415739515616819
Ni 7.203936229676276 0.14762450582770575 9.085974807001286 -0.4473521525694038 -0.2204409857320139 -1.063340133274072
Ni 7.220102377292438 6.747978439587797 7.21043890237909 -0.42104822456755225 -0.13631860405979748 0.9714638186880494
Ni 8.436073387504571 4.724415036141605 10.44960282247631 -2.827801072467414 1.379329740237373 -0.910109326839968
Ni 5.985550975707565 0.15092087711072566 13.331204242450259 -0.03678734403167858 -0.3823130127808835 -1.2475069671654
Ni 3.5027055542311434 4.754927363003586 9.994177094569569 -1.4322247884641914 -0.236836910591534 -1.4547221982357592
Ni 5.752901447549639 7.686664268804041 3.8728546213238046 -1.7912659752013278 0.5153184933070479 1.3773651603118344
Ni 3.603583801044463 6.549750456066927 1.56033502542925 0.07826258045732973 -0.562871817605979 0.2379154883676935
Ni 8.046897293944204 8.367044587172261 2.8084312630438166 1.5824363484559973 -0.2649287837317438 -0.0847805840815056
Ni 4.752800971387216 2.8994231816739493 6.876144140737485 0.09523803196940372 0.8348359109179493 1.150637056019528
Ni 0.6434136036785572 8.601198374901594 12.006798402466718 0.7289779373408541 -0.8542325702770063 -0.14735249327645591
Ni 8.191584779386503 7.717158024560202 10.50511928621411 0.49349651233595004 -0.8328088531855915 -0.6513545331294202
Ni 8.956491485893682 0.1130163215771606 5.7653645166653265 -1.3212840010475504 0.43512989947159897 -0.6009184879660554
Ni 5.654010309059041 3.9174633460583284 10.119439203324324 0.7429644814279334 -0.9948852829357834 -0.7742067272716666
Ni 9.03453655810152 4.229885059265337 12.84994332068226 1.0332212024015044 -0.1585866714293785 1.1339338843322342
P 9.092886972587428 1.4490662449097356 3.8679342068368405 -1.0019234207294874 -0.7293916278395051 -0.20457933610940895
P 8.865539495141062 1.0440025703205023 7.792133292976022 -0.23731153623510742 0.6858898479021284 -1.4391569968076503
P 6.602780248735452 5.981548902403392 9.543670852594502 2.0447407514598592 -0.1662264473628234 -1.1565590779309178
P 2.6155174014532903 8.73428820475941 6.226620643244203 0.744519227509563 0.2101326618274704 0.7006037570735353
P 2.271812660492777 7.391866535020051 13.194064054413138 -0.16351881862367323 -0.03716503908607147 -0.41219951592767073
P 5.71211001361638 5.928732677451793 0.807029688727719 -0.37611536861060385 -0.5167986773970003 0.7970759185603563
P 4.091001044391735 4.420034611754582 11.992215441621696 0.1693793911695083 -0.6015592068738479 1.2329326688956508
P 3.0449556524310513 2.539515150885634 4.222969179458032 0.8512336355496823 -1.7321892236438297 1.2516788391549023
