# total energy = -381170.081977376 ev
CRYSTAL
PRIMVEC
9.24235102494207 0.00000000000000 0.00000000000000
0.00000000000000 9.24235102494207 0.00000000000000
0.00000000000000 0.00000000000000 13.52711495615981
PRIMCOORD
 96 1
Ni 4.024202755452989 8.994877695392102 0.37442889166217996 0.8543734667302446 0.1225071520980019 0.009670947430860765
Ni 0.6582531691518079 1.1964592911593726 3.6050297946978436 -0.5636122953164294 -1.3875228175711265 1.6809083139816665
Ni 5.010167505260571 4.015136009237133 9.904539444782905 -0.8956563846394315 1.3219360328092524 -0.8922748697617084
Ni 1.0518904386533479 2.8753138442864885 7.660201819488333 1.2648724550270407 1.7259234452397763 -1.983097524726765
Ni -0.1381158431197756 3.312523252789077 5.4603143565286585 0.7035612970399625 -1.0437277583597833 -2.564516509207312
Ni 4.176636848560127 1.0782403810197125 6.017753810722966 1.5912171799724208 -1.0289883952670793 -1.6089904447954422
Ni 1.0184054014055965 1.0064365570125968 12.994227769321713 0.5927963730795534 -0.1486293031063505 -2.0289158686124606
Ni 2.7347007179582277 1.505246234147883 10.988887171265857 -0.5287571353104571 0.40825210124414857 0.29942038975071017
Ni 8.469727318241333 4.499841858925533 10.690830597652075 1.1839552105556836 0.8923466035399085 -1.5330665397736178
Ni 0.6559943385960942 9.385422474288315 10.452009175080125 1.2033755240638244 -1.8556142595704108 0.25751166533206615
Ni 1.346795370616155 7.80831696202802 8.041788911909107 1.1874609097160969 -0.30961172846141516 0.5876436252340201
Ni 0.7980649836585452 1.2678194823241222 6.0477156638142615 -1.0425573922007658 -0.3404639379555814 -0.621388068674317
Ni 6.081485365469197 1.4819555099236672 7.565579555387104 0.3705833830487811 1.1115223494062534 -1.088041492675494
Ni 0.4898778692423171 5.388244352816123 8.429327154063202 -0.24476979228536558 0.017854768793233767 0.05760839454208788
Ni 5.874844884435461 8.396176689917402 5.804322974495765 -1.0569694538610377 0.8103332977908948 -0.00206331028693193
Ni 2.5012019652595825 0.6201774562206565 7.463261185705912 -0.1370631955353059 -0.7798757526319858 1.175688599671517
Ni 3.161457027612567 6.191912973814804 2.345709578245383 -0.29285842026247627 0.6417360362030495 -0.3144811407385745
Ni 8.120967207685469 0.06953205416016647 6.407185810572912 -1.7709264923130272 -0.6891456358352648 -0.7545305889989778
Ni 4.706251281187204 7.896525958851796 11.33231352112736 1.134045470209434 -3.0399420229741647 -1.3847640238790666
Ni 0.6591413590716282 2.427207704093285 9.674037986475495 0.48886801242500316 0.2536853496074405 2.1897178025256028
Ni 0.8308808747023945 5.39816139531318 1.5818200354455216 2.2869607807401775 -0.1789366958406402 2.1530443583639696
Ni 4.420061886106712 4.829544241961425 3.7574130548751277 -0.013666441743499045 -0.4353736400512889 -1.1584226135022178
Ni 5.558007853828184 6.221775009516566 6.62448549487958 -0.23628052386743176 0.3609263195749913 1.393152247942762
Ni 3.0229696419873098 4.305687793934224 0.9818158584963713 1.3691201466942227 0.27692735085451664 0.5520559579373977
P 5.66508973115428 4.190565071340244 7.696617606200965 0.289232907694747 0.4210891051078167 -0.2794740285357703
Ni 3.543877780082953 2.698655549515989 7.307441619470468 0.5857145265321074 1.8149813165403965 2.3373019521968907
P 3.8775821010510216 5.8188639651394 11.132409789651968 0.19343926033218942 -0.038960954644229676 0.0809637814385767
Ni 1.7926278924922332 6.779504673528589 10.355398881304044 0.06121642360832037 1.3325297491646986 -0.0024505184230215857
P 6.778820739563274 5.950983371006528 13.757346500057963 -1.262139115256278 0.15242785091683425 -1.0227110468988
P 9.745504464675397 3.080022673985756 11.848399924767536 0.5496946567940727 0.644443922052516 0.47075073399900214
P 2.017947164659755 4.756224672409558 6.678728852209708 -0.30487215689390074 -0.8403743242376752 -1.5036991423550943
Ni 8.14948910250925 1.8030809913404826 0.16221712151639756 -0.786822102042832 0.28677801839635125 -0.43173887151217905
Ni 2.125574340687926 5.428984635506735 12.548549594705374 0.03375472785294187 0.6211504987422142 0.6306047021765785
Ni 7.616870905845321 6.673467181852228 5.848718606960456 0.25697533321262195 0.12186566185926108 -2.2846293043935235
Ni 2.6938587694079064 8.335870350408271 11.955750754504319 -1.2373685931798175 1.1127001717644385 0.4975488280284528
Ni 3.581568086982299 8.52290780521996 2.6856053500697223 -0.9755654995612487 -0.1748167601349957 -0.458033800652966
Ni 3.025058413286783 8.85362684685294 9.593185900954289 0.4252753752750224 -0.7779240282222538 -0.38758531692341636
Ni 8.921169947103165 5.6143492248086675 13.341509103736357 0.6814523809560651 0.7332356841759436 -2.800694703168925
Ni 1.982964866569018 2.994225930742345 2.952549397907323 2.4285324056687982 0.923325568419926 -0.26310972824513396
Ni 1.9333519270310857 1.0334427062916278 1.6251611156745047 1.31354163809797 -0.6491549543749402 -0.06615422722956994
Ni 5.669646210139415 7.3253486743055545 1.7332698181836608 0.14276230280261218 0.8302238660672346 -0.26539852427931065
Ni 5.278084772646112 0.555070639663091 11.886722408467255 0.7009362007122896 2.6296536080262776 1.2120272862015513
Ni 8.342321511324343 1.6179751878632633 11.17485805878569 -1.3134519065976413 -0.9494513189727004 0.7150507857368008
Ni 8.341748485569621 7.50132303511074 7.723374212006165 0.8610179686299559 0.9799559153194606 1.002574424049925
Ni 6.162975173201304 8.493507887062329 8.3464195697057 -0.5647662064152145 -0.8138713928511402 -0.24018397268689604
Ni 4.189187961058733 4.630741274476155 5.93705052705097 -1.317412691017602 -1.6438360917197172 1.1788795958049891
Ni 9.745042347131264 7.694691500277026 12.45672776292158 -1.2792894017833194 0.15644828493013702 -0.7690046142454369
Ni 2.0249805936814327 7.755422987926757 0.6172208281733047 -0.19629138506900387 -0.38075852380957004 1.205530365623298
Ni 1.2594551547753463 3.276247025574773 0.3688834811326048 -0.6457451573624428 -0.24347395629207744 -2.589974287158785
Ni 0.8908073535902485 6.554305551922541 5.995325397836099 -0.7179980412905829 -0.25196142493779833 -0.14022230998957785
Ni 1.2426987726251466 8.178306752561276 2.9648463457566563 -0.1648208252645484 -0.6132764953107761 0.2916307185029623
Ni 6.9216889995068955 8.095846497986493 12.88578079677025 -0.04185935923794726 -0.6352465718239639 0.5601173947892935
Ni 1.896650551676181 5.004280127748339 4.145248900727644 -0.3839423208541904 0.37424129151634256 0.6132888366059502
Ni 5.86392966804308 2.4020777520434264 0.07809786495818358 -0.7145861873955563 0.8514776332396884 0.6554523573478777
Ni 7.143819660619911 5.873135049522175 8.535257434469324 -1.2214701767820062 -1.5593483562882824 1.1011111813752585
Ni 4.1946964021847775 1.6443343725805106 2.1287481639810197 -0.14175545880465262 1.527370260719789 -0.9649033918617126
P 8.661145647371386 4.159584711181684 3.4839623920161586 0.01998492776235913 -0.07318722281695138 0.5221604559295459
Ni 7.204301604795811 8.028950362298051 3.7694114747909517 0.045362487295199296 0.3334139730873355 -0.263371723657269
P 8.188750609058642 2.275781027232352 7.358872529427013 0.3109592436282451 -0.06411174287824443 -1.8994862783630126
Ni 6.488647891252371 3.5570758571433423 5.600996800488539 -0.9616704867467114 -0.2112906866913135 -0.27641647265636915
P 3.037258316451849 3.0696250292428022 9.394392175819902 -0.5314292828259816 -0.9745262596634571 0.2761992144392405
P 3.9943314774003436 8.136272540747097 7.263086653349661 0.17866467312617618 0.02175281829605931 0.3797969312272491
P 4.857483868679601 7.095389741994955 3.7462806432370055 0.38642497806672804 -0.2506259939558264 1.247656862479703
Ni 8.177761453859201 4.694615161425978 6.741684049481797 -0.4635537020299306 0.823570365306459 2.0514202203625636
Ni -0.03524940203124454 9.191342348104067 1.2014538575763434 -1.0193526719495285 -1.0048027991598116 0.2961671729207351
Ni 8.121725080457843 7.022042445390441 1.5264805353007145 0.4679310051620199 0.846198130008304 0.346783452415706
Ni 7.490592665736012 8.192974363412002 10.52767999869653 -0.998967680535273 1.5455685288953704 0.5036991639005648
Ni 4.708571111258743 4.241111488317322 12.476396409834894 -0.23941084196629736 0.16253948542953942 -0.3236934033654619
Ni 6.157217188601429 3.183684881485281 2.6956296038370176 0.07460338643818765 -1.6179365982451364 1.7766207144843271
Ni 5.031009006500891 0.5059179691991132 3.815308989274069 2.273172982927466 -0.1946109120427874 1.6316372356606803
Ni 4.618005314959897 6.670204631990662 9.113298088781002 2.1550588176908367 0.7525606097568006 1.0690731791031072
Ni 0.10556890448661069 0.557591028748783 8.193157361959479 0.24403908476692807 0.31279861082982907 1.361844696078732
Ni 7.470860246601607 0.9960204275678781 2.5982069074183527 -0.5089537274312848 -0.40087972003947736 -1.7251852815221709
Ni 7.275837400627331 1.3667680908735085 4.7951053941025865 -0.7524431103423299 0.6482308998987739 0.15568441018091897
Ni 4.652599434313563 1.3617679790460082 9.614829638251223 0.2621496783247098 0.3384952442649848 -0.3571118309249075
Ni 4.202866640365018 6.500311738066244 13.521027906105028 -0.2217134246865343 0.05929349555399466 -0.8502003091891616
Ni 2.338906283760683 2.8449712063388297 5.259477147614123 0.7357024005488814 0.27357926031789015 -0.02294555305257984
Ni 1.7401775512333348 4.540277144037019 10.424657361878085 0.46793049094138767 -1.8817834617666107 -0.1978538444601173
Ni 3.2246192535444282 6.861096147120404 5.547563997330817 1.0591158107800793 0.3480553771495941 -0.2942589001544287
Ni 7.415452353060268 4.09859443770724 12.545966357633679 -1.673133555132254 -0.7358458681052811 1.6937273201232055
Ni 3.355685031410937 1.99895413359596 13.309030558499721 0.1518382969619514 0.5099392312730057 -0.1150596946810212
Ni 9.320263900565806 2.615548330379423 2.0346675016415126 -2.8429500122937106 -0.0016979565277132048 0.6990122442166994
Ni 7.336254648347053 3.1354398098779774 9.102544613529068 -0.24348012693966453 0.4765231177064051 -0.27970208538617636
Ni 6.243180294160727 2.6352437801102973 11.206511262088506 -0.5512514597582313 -0.4261750042711564 0.28604756798822994
Ni 2.293045738681096 9.206721619972756 5.1257754512758895 0.40152943780833433 -1.4763053237231736 -1.2722489499967704
Ni 7.850609959666914 4.426928952812503 1.5044042559824757 -0.7146383807897305 -0.5423580139233434 -0.5057406198106258
Ni 6.685084816911688 5.565752943867824 3.3329460755344145 -0.02256991488071597 0.3818856954354778 0.6376934907025599
Ni 6.510496808738897 6.020069943854152 10.860934217176615 -0.45816724090703675 -0.14751113034150723 1.1694565027188764
P 6.205240443787549 0.4248228098496943 0.7181981327414272 0.12033354148545082 -0.45805462658857243 0.41206093346727735
Ni 5.273408143099504 4.695807424689837 1.3386528594885623 0.3704573989938781 0.8513611622664822 -0.7620353820164554
P 6.887695632960599 0.947507327784978 9.554931810651105 -0.6390116952933511 0.09255431448965351 1.2596885968332563
Ni 2.863640755121733 5.8269602645125795 8.27384585787006 -1.1020154383570828 -0.6459973825825649 -0.7690490943301271
P 4.652109589716785 2.610067616306026 4.45497948774127 0.06074848283296635 0.28561150889207587 -0.5294083957412108
P -0.03218279000838947 8.251589352709612 4.868827930152936 0.552630599493945 0.13562774864035995 -0.6554294745297422
P -0.28724025037584616 7.015082955175824 9.764885674476261 0.9071512726529086 -1.0599200518489293 -0.1490728184016723
Ni 9.038741892681042 6.285159051869609 3.582520973358298 -0.0025371645995569203 0.32049880768756417 0.9671060559399859
