# total energy = -381165.07942364074 ev
CRYSTAL
PRIMVEC
9.28160230258520 0.00000000000000 0.00000000000000
0.00000000000000 9.28160230258520 0.00000000000000
0.00000000000000 0.00000000000000 13.58456316858053
PRIMCOORD
 96 1
Ni 3.5768695540290216 7.580637113797979 9.561508274749672 -1.8919490894457027 0.7358522958631843 0.43104107411420606
Ni 1.319815969956989 3.4847218086494918 2.073370679049783 -0.15061676585002448 -0.8913045354286391 -0.004104766196992931
Ni 8.935472568375936 6.295469364379043 10.707284924238131 -1.290971723217254 -0.33572230950553794 -1.1386737130100648
Ni 8.03741259661051 6.956941299306817 4.346312509550168 -0.2445635898118304 0.2963764607180638 0.6857720913773416
Ni 5.546620427537198 4.997446596089171 3.0889255232955612 -0.019453737849237464 1.793309487993918 1.1640219619668661
Ni 2.215574104408342 5.712352714150502 2.319795357764271 1.3198213004590946 0.804533403279666 -0.31594461265797846
Ni 7.051762146083336 5.288007148980607 12.227900001599963 0.6221072062285287 1.1452534231101117 0.8141336453735915
Ni 7.202736685400764 2.6957020980362323 12.844190953957384 -1.4058712381713272 1.0275493488277077 1.3477851326618724
Ni 5.167188534797958 2.2422030207554284 3.285806866465443 1.5802899915369557 0.3400538470013563 0.8619949878312444
Ni 9.1442343621991 6.495859153132472 13.004719046288423 -1.2900049884286107 1.974269384912174 0.4571912501470127
Ni 4.6561342430632395 0.6115443410573507 5.115918821267797 0.7237778811971535 -0.21080114864940472 0.02324405812960513
Ni 2.397344999403579 4.344188878995893 4.970238507772737 0.7702662545666799 -0.8595655524541455 0.1730612108964697
Ni 7.816148484795177 1.9459528457933182 5.988835861178004 2.827465800615182 1.1166033634735866 -2.5342543678886615
Ni 1.8256725645308962 6.55593896335021 4.980711867551773 -2.009379855462062 0.67882677040776 1.234033101048681
Ni 3.3429731817925035 0.037216439831617674 0.3037153675093257 -0.18774992325689602 -1.2347481248378347 0.3743593051514456
Ni 1.4573693126770364 9.106699563416385 7.924690323916032 0.9159904682110935 -0.4230845382712907 0.47663804601771453
Ni 1.8545569101816912 1.9352975666136545 11.308374468720592 0.6041403373374628 -0.15954312180537686 -0.6185773386983991
Ni 1.9677924554707993 6.651613717517432 11.271043865183477 -0.8246160329621539 0.6399421775274204 0.7707251964809695
Ni 7.540122920749869 8.464932469689328 9.347931185771097 0.015222987597341527 -1.2119398686940674 -0.44936146968994867
Ni 8.462203678679902 1.0299886636293103 10.188313425935247 -2.3502397433044813 1.247267083240452 1.1296779372693575
Ni 3.304983584508215 4.6377195445506505 11.747468499584288 0.17818567660722862 -0.8578804514422387 1.6453111336033468
Ni 0.9599961023977395 7.8888048658216645 3.2938215298553724 -0.012713076691294232 0.9297358428216439 0.4911899756899605
Ni 6.23163050532179 1.3085388234384425 7.182932531057865 -0.9640695831065074 -2.676355897178823 0.7713417470190458
Ni 8.661897347277867 4.68893542478879 1.116131212467688 -0.12941493496142875 0.5057174798821742 -0.7482056752222147
P 3.0501757628015036 7.5215968430124045 12.904981734893902 -0.19534341933343777 -1.9360800183266464 0.5072120621498297
Ni 2.8104134180549276 3.394838774175744 8.803856666501908 1.7605202093780388 0.7522078544030723 0.44400483336372565
P 3.0047144758485493 3.7088910619136337 0.18061347921674883 0.3199478202801006 -0.00252276642185372 2.008246256078251
Ni 0.3468655355461341 5.522859526230631 3.3083166078125856 -1.3456202638000696 -0.2230902504294029 0.47954133570743873
P 9.193798117268267 4.71390293436483 8.798055665206359 -1.6821745822885998 -0.06865873881897853 -0.5248835112876638
P 6.352922481210156 2.015258568471496 9.513935423325135 1.3984988569666559 -0.19734219493102143 0.5389610724266525
P 2.1505843266940525 5.237691584143536 7.08079035656626 -0.9931526165153929 -0.6446308412523415 -1.6914758050848677
Ni 8.102476627141382 8.82176366138111 12.058826338240424 0.9655993894874725 0.28192557540005636 -2.6306990185716566
Ni 5.493047020372548 7.972088681221597 4.036829554512756 0.21958532259993796 -0.0054993325516744 -0.982293819424018
Ni 8.595784495712758 0.5374817973168232 7.695790238075344 -0.5004821996251639 -0.2305446498249191 -0.0262897869344644
Ni 8.20600361666226 7.367939920695915 7.326181992970038 -1.4458770891403034 0.5457580407438278 1.1775382512857462
Ni 5.635231882526961 8.478827027992427 10.662781498619097 -1.7014133759135535 2.4386121585023033 -0.6738054059337686
Ni 0.5882911433841702 8.467865455944358 10.144679686430443 0.6080080478229851 -0.0012361863999462582 -0.3367317246066588
Ni 5.604983141371453 6.762733057533924 8.911350612748734 1.1016367148614254 1.6110591543990125 -1.5039300274189775
Ni 4.433180879670644 5.562334179846579 0.9052086616819571 -0.40471272063232233 -0.19098179993063236 -0.18066627693723722
Ni 5.98195540956138 3.637181404298581 1.2737950023990394 0.13255090948724915 0.8195054512084661 -0.8022155537797668
Ni 7.0879975205758505 5.140615308063309 7.860599005282396 0.5728009037942329 -0.35381002024518426 -0.4876145996338763
Ni 6.198374525094669 1.4199737379254123 0.912381483763877 -0.6231004233797333 -1.7658495920107524 0.3927774026473171
Ni 7.130832114142181 9.068004564374558 5.355754490670748 0.9573096386748546 -0.14431164956760306 0.4155141821232005
Ni 4.416965920849327 1.689168042845084 10.472720276652366 0.12127430813216533 0.6922934374356271 -2.264894802079074
Ni 3.62837316393142 3.8738901019631804 2.553191451649061 -0.47188484760344535 0.007618692887522362 -0.2717602048312804
Ni 7.1199540765127685 4.175820617393891 5.347264609254688 -0.6363914840616847 -0.8673071440727773 0.2443674146406243
Ni 3.8493866724907835 6.4008433927124235 4.311319013415004 0.8825321885526478 -1.529307844062134 -0.22185226425724372
Ni 3.714311517524194 9.182335338708263 11.688035617031032 -1.5947815002849115 -0.6349290405835453 -0.9849117166628394
Ni 1.3477257473901323 2.9197878168817186 7.175691953280814 -1.7041729409365618 1.0438159471982151 -1.6536703042013199
Ni 3.753322091036499 1.7347685538291318 1.4647556116066325 -0.6356471496964924 2.845479720694099 0.8654466938252707
Ni 1.3836269842080233 7.79064264229891 0.9305929151910703 0.3795655319427334 -1.3204165108409325 0.08016056881099097
Ni 1.2375809755912928 6.542341416313445 8.574344923084618 -0.5707314228597139 -0.024754838347176723 0.42974369545902114
Ni 2.5944491010232094 1.7042228014072915 3.7671219769984536 -0.12244544562213105 0.29752831493431986 0.805908686360638
Ni 1.4991829300153503 0.6640856340714968 1.8644408882290988 0.4369564111573765 -0.34053490040283285 -0.17730353111259142
Ni 7.62937480628266 4.093010163699677 3.0692689464256206 -0.22687671405502863 0.0985087323008755 0.6299272164935796
Ni 0.004350286891557774 1.0582511419412228 3.4470013778253166 0.9794355240396164 -0.6671789017561864 2.382847244926858
P 7.403627680666129 1.9818076746008444 3.839038614339732 -0.6846081529762273 0.9811802746448651 0.5480522360946433
Ni 8.050592471553996 2.844551150478972 8.126529898913244 -0.13617770760655903 0.90189130980555 0.6771678946480982
P 2.8334132279915183 1.1885648350444256 8.87403393161473 1.1522121138161316 -0.0358216376842996 0.5194607976101957
Ni 5.334702889009254 7.818162592444993 1.5720602131711714 1.2696284816547876 -1.1537216084821227 -0.1957475967503919
P 1.185817480830854 1.2731202299283415 5.772529053029798 -0.6882277520066857 0.3800224169744939 -1.0328751319159954
P 6.914598630650349 6.063382904546736 1.0061080296560032 -1.1316209199283414 -0.38771027253705487 -0.5630371395392496
P 3.265527494096412 5.595998550564907 9.973935334697783 0.7717024727925743 -1.3984389502629981 -2.2704468422455544
Ni 4.157600832524833 5.410357227505281 7.659112131163953 0.8681260404296468 -0.5996427065774254 0.4780727215817121
Ni 1.2669479645498778 4.314023672259041 10.358052580163413 0.03487675727252703 0.19554242271812128 0.07258687022879111
Ni 3.369527845323007 7.770445876188329 2.4845354411159843 -2.0908676277249083 0.5585757613337864 0.6182685492087288
Ni 3.3797840156135366 1.7636900258882189 6.719753670975257 0.39642476959191725 0.22464988160703891 0.4595852043004859
Ni 4.011276375845916 2.222999386066644 12.663895833691734 -0.43358235247882104 -0.41710903741414623 0.8612586238858523
Ni 7.810087598641588 3.637302065125528 10.64282605416241 -0.770876377346853 -0.7343232608131676 -1.9633244558648961
Ni 6.777017443124084 8.21612984452377 0.0225914194453843 -0.04588673522978549 -0.8499668530221169 0.29605198749910944
Ni 0.85046391633571 1.9286519395294741 9.246726453088852 0.9681800057304552 0.9311666617308995 -1.103411033153029
Ni 5.452421448099562 3.765945069855613 11.789647812044276 -0.07073567595266528 -0.48446165582719153 -0.5052307700537427
Ni 5.158389576032869 6.816928332037457 12.552856315453068 -0.5430789512497679 0.10868233039976767 -0.30138368412466804
Ni 8.778242229261389 5.619796578279766 6.110118555464297 1.4388811174384444 -1.218562773327224 -0.2799136871763502
Ni 1.6432890837988494 1.9045012109358463 13.529586218228 -0.8609804305238011 0.5542964172321421 0.7062141612817773
Ni 5.279421667063195 3.059373830455726 8.00122641460898 -1.3563659323523478 1.7905517227431227 -0.5438618521623795
Ni 0.37028858653724817 8.343250666513901 5.943627033801431 -0.5950008369300397 0.40384394487412384 -1.4829860781774589
Ni 8.705288836968569 9.255455799838394 0.6282809259151638 0.8815304867610108 1.1898168115427832 0.7584623199532163
Ni 2.5781413261811634 8.95841668870009 5.695531666713826 0.5576128831998848 0.6252305823488586 -2.083378261326399
Ni 1.249387173427993 8.891087947263436 12.397991856706897 -0.017337977057815302 0.37220446359197185 0.022436217516329102
Ni 3.0309350017044285 7.391654413992117 7.113013294482671 0.4567680465666649 -0.8271794228139561 0.5049512911401111
Ni 1.580248442519864 5.217485536430882 13.538646918171542 1.1118967020265365 0.533455826337707 0.6148219854210251
Ni 5.469146895034888 4.657554328180389 9.61822350421599 -0.4456277136791293 -0.6410575220787863 1.7175048821587775
Ni 0.16756354670228282 3.562232467560093 4.544933224948506 -0.010091579908047137 -1.268109988127732 0.4568210112917875
Ni 8.310681524840174 2.3107940600739942 1.812682962429904 0.1982438808096844 -0.35260622974507017 -1.659097902974794
Ni 8.22316529889501 7.386243239983629 2.148928488884251 0.2679387742026611 -0.6213664714077621 -1.6769963805217698
Ni 4.657563609782462 9.127536760069994 8.331331233131912 0.22670162192974505 0.7171331221871262 -1.0320528931250161
Ni 6.001168325852237 6.200769178429471 5.430184585853362 -0.026839488790347327 -1.534482703394854 0.7752883903716197
P 4.671736616147747 0.25528396789304986 2.621318410863983 0.15306677005241381 0.04029561429525318 1.0235052606653212
Ni 9.211925086116597 4.1640144195571915 12.309270878812674 0.7816909514638537 -0.3391745297201965 1.084180467058191
P 6.71265881435075 6.8753467354841495 10.700940949221318 2.3397002772257385 -3.09108332173467 1.0867713677138189
Ni 7.103924749732908 0.07349265337325285 2.774443497381697 -0.47525684939947177 0.28316536134442843 -0.019311812954734484
P 4.940448277759629 4.173518780079818 6.084892089190423 0.48654887737352337 -0.28542793212636003 -0.8295864895935519
P 5.572840953393078 7.96894221811889 6.374705473114992 -1.0255228053159822 2.1559157663744934 1.4672532408232344
P 8.897928487991146 1.9607105930891935 12.222017322206172 3.1284360513515157 -1.9261553030137666 -0.9575708627560411
Ni 5.785668088924163 0.7380962008404162 12.260774507981887 1.1514513243907072 0.5591102936810178 0.7218991761172019
