# total energy = -381162.7783831699 ev
CRYSTAL
PRIMVEC
9.28772688521143 0.00000000000000 0.00000000000000
0.00000000000000 9.28772688521143 0.00000000000000
0.00000000000000 0.00000000000000 13.59352711433674
PRIMCOORD
 96 1
Ni 7.1494598742899 6.827686580347159 13.012145141837044 0.7064571305305188 0.8147296270863774 0.1435043231749593
Ni 8.216053128816974 4.947943559389694 4.66463259954641 -2.237580687645153 -1.9208187212922019 0.1462903705605287
Ni 1.09240384722059 4.1708580360067735 11.625742018806381 0.6220277591408448 -1.2753332453490487 0.03241518310591191
Ni 7.9258116672579995 6.832934145972145 10.592660740010416 0.24716708887294853 2.2073473426819086 -0.9816063064386901
Ni 2.7674082192626623 0.794132217096371 9.906268939762768 -0.357078663694127 -0.799842682672216 0.014404862571420353
Ni 0.421641433581307 8.479434484557434 0.035443822899243436 -0.7319444761683459 0.4144340616851443 0.3549616173511242
Ni 5.060473656933647 3.954853374519508 11.590629767752825 0.297976458215332 1.4357759961505596 -0.0402516484311952
Ni 4.109893397489234 0.4034254150675273 3.450785223400806 -0.19049406166093644 0.8614936227147937 1.1831689672089625
Ni 0.32429676930611956 8.508040683008687 10.9745711360155 0.5726281256617944 0.2327429430278185 0.541761517989925
Ni 2.3543830098057796 5.412274171523433 6.508635519120672 -2.078627891125607 -0.8525654669872285 -0.1393414500465213
Ni 7.270153883664584 8.611283053782753 1.7905529807862388 0.9878818550347567 0.05728263577155296 0.0018733057633129031
Ni 3.464925787407959 6.977748381768227 5.763967877255366 1.0891681500807693 2.5068242967021668 -1.516571884552704
Ni 5.5428781853615865 6.455713123213179 11.475220474910207 -1.0953786497668554 0.8101224673316694 -1.3679698351398635
Ni 4.544438269871946 0.5213024569129043 11.510903921160113 -1.4064795611792873 0.47327452886212035 1.1057885322462697
Ni 5.926052640980052 4.15963846206875 4.546015325877472 -0.888788968095637 -0.9676367316324754 1.1529073401109435
Ni 4.530488104263575 6.140840610260463 8.21439155449784 -1.110265594181017 -0.08983254468311626 1.8734389464566574
Ni 2.276644736741824 7.133930795130649 8.465246553143755 1.4662502534800168 -2.937452708758986 1.3986094144025913
Ni 0.9732794636700168 1.3919330355494512 12.074980074939056 -0.7403100745242218 -0.806352972986908 0.04038380313368529
Ni 8.625223931664353 6.535829054330225 3.3042193223359244 -0.1159374693002842 1.8047454977450015 -1.1828673768081435
Ni 7.302317281468703 0.5640631509614649 5.618680896166698 -1.1733401540439987 -1.1455416437744916 2.350139470281191
Ni 7.6849344734809755 1.1896370587745386 13.5388539845027 -0.6756139198974171 -0.4175818632855067 -0.9910350559517577
Ni 6.279311328672711 6.162889673612176 3.733570497908915 -0.13677446065029347 1.5914087271579367 -0.057939295518945375
Ni 4.365668105005157 7.460152910196166 0.3320120839338648 -0.42367023557143163 -1.7636243022246592 -1.0913037083665333
Ni 2.517661246420396 1.3635776057209856 5.72143380373999 1.3844490637418092 0.24825749372364986 0.2050457342228662
P 0.5796563154354285 0.6577233740270382 6.216578306978185 -1.7651523088334118 -0.017933444549969115 -0.3469631725266799
Ni 8.815826660435977 0.6762886110673656 4.025791174042552 1.8662930794404957 0.4815771351905448 -0.08824488848102222
P 3.4227873710529813 7.060817809998097 3.4634945487127196 -0.010421195333323988 0.17659236397817973 0.2818841806391597
Ni 8.152376474082628 2.2126244361169918 9.83059439958708 0.33548114002900936 0.3874559904344037 0.29441316634410586
P 3.8937587078271902 2.5812171607067342 4.4521656331857935 0.7469566333064619 -0.7587078603051192 -0.3988891719720098
P 7.7746910649851655 2.6947781959221446 11.954120744027868 1.000079425542213 -2.3705028644288917 -0.6170123082041244
P 4.815862796995128 5.342681234836669 13.208843405687745 2.1771312241098437 -0.05676430137423772 1.5340569287113452
Ni 6.845611893013042 8.871813077404859 11.685784386055673 0.7554034785222346 0.09097719981052073 -0.8996341383402571
Ni 5.1963252363967865 8.58687490783149 5.298634190630479 0.49140260592139895 -0.9110017567472504 -1.4619166591016692
Ni 2.8670933906838614 6.025914279209879 13.000998940940502 -2.967610206178973 1.4237036383670578 -1.1945964923196135
Ni 2.9812767035928545 5.6447924112075585 10.427459015181757 0.5506549638248129 0.7053669827901335 0.9452727621149785
Ni 2.178464177057347 8.645703369191954 4.440855968298102 0.2611981130447179 -0.4538341607493217 -0.6420877631155135
Ni 0.31523937816012554 2.817571231546823 0.3207906524504871 1.0125058242310239 2.209596029506769 -1.335681921640435
Ni 6.599970095403066 1.6916386906869405 3.8537239615855907 -1.553364113680389 0.1685851774029871 -1.6032730826956902
Ni 5.029684842691472 3.4592138354444786 2.6236184197293 -0.5731027513053679 0.1400392474444943 -0.47834037342080205
Ni 4.026350295194099 2.9580480989413664 9.801259114584393 1.4832321327499938 0.06413976790270244 -1.2311035861067121
Ni 6.067792639215301 1.987359911040148 10.713697466502909 0.25919573790270845 -0.35332819551275924 -0.344062196829801
Ni 6.2312752058188545 2.119403522527634 8.13296605390624 0.03722700267225847 0.3876863612776549 0.5977647728284221
Ni 7.355303762690911 4.286564536106028 -0.510790607754746 -0.9398366787010718 0.6530211221985657 5.2545938697372865
Ni 3.3801288419988893 4.629987521149376 4.101493577398548 1.596631923230089 1.9643909494561977 2.6991685241979644
Ni 1.6145134075897973 3.2961213533652596 7.093972208248563 0.08171788599578185 -1.5735431597314256 1.156523596707292
Ni 5.215550830810453 5.679639962048175 6.142724161249396 0.8384999900330979 -0.13446406734956196 -1.4868185645496717
Ni 5.463542423293211 -0.13684536622751764 -0.1994845818816677 1.3765156678273454 1.241784977079958 2.0198257333857343
Ni 1.116923445893092 2.5928732578029425 9.779129248009783 2.787878011020231 -3.0708505396275627 0.6777821311933295
Ni 2.750755325164255 8.796656792382931 1.4592105419524828 -0.15179278843599664 0.10741760475473114 0.23048680000379015
Ni 1.7632284886292309 1.6186928846362465 3.1101717757053486 1.564157090530835 -1.279354707803616 -0.06658951499477564
Ni 5.677262303995084 7.9141741456153305 7.415092574999381 0.018712745918154867 1.381327230283376 -0.9741151402679674
Ni 8.68808326644295 1.9733633067979282 7.461949156553463 0.24304458206414273 0.2300635964234425 0.5197112230581049
Ni 9.464843719388924 6.114147683523807 12.093943755457811 0.5816293007191402 2.086509350756213 1.841276245681184
Ni 3.1796161087637946 3.876557837849359 -0.07944071338087598 0.2710320684160042 -2.5375667200913457 0.17030910207262925
Ni 9.09139351369853 4.605087125679309 6.6150589363134245 -0.03932168041775808 0.51079566573603 1.5478059028663216
Ni 9.12352904832234 6.8407079732785405 8.240246728279853 -0.15331051063210369 -2.050199460581585 0.553048403757654
P 2.198702133688931 1.372995360665651 0.4790795222443203 -0.6434530188941564 0.20698408889615963 -0.49546083515117245
Ni 0.48289120531068197 2.6266434323382524 5.259199431538215 -1.0025332863993444 0.5933766710630556 -1.2501030100273502
P 6.309524303855154 1.9149063545082583 1.5568942082547714 1.5535757154705632 -0.31340899072031825 0.03496520322127527
Ni 5.3301428036973215 2.229648839286195 13.138565034765362 0.6283092212741824 0.40150758343146337 -0.489093498172248
P 3.6045760471199824 2.1044038437942665 7.9580716574205255 -0.5006320949394669 -1.4489680693608014 -0.8408574345216809
P 7.576528126622852 8.259389661925267 4.067645385958372 -1.3070837982877683 -0.7968290926568729 -0.08031946298635845
P 1.285765030842871 4.891975717874354 0.6118094967401009 -0.7930765675929762 -0.007456970498677481 -1.3106450332764654
Ni 8.373972347085365 8.624936012134487 7.210305629904785 0.07181296817724406 1.4069619001323446 -0.24152403165455827
Ni 7.4128133668500515 3.609164184144307 2.5550805688035947 1.0385097044939533 0.45405578984182443 -0.5191882606750994
Ni 7.310193273769568 2.899841915274483 5.765272802866535 0.13250282985813308 0.39350039685627075 1.0175719259000218
Ni 1.8575082030703556 8.381421103954814 6.71442739625177 -0.8723956143392783 -0.5250069242394055 -2.671039370061916
Ni 1.6567354134857046 6.0669010174453915 2.3472760412814617 0.4061952187151198 2.5308695105768284 -1.192691819097733
Ni 3.890842361621445 5.447595396429314 1.7419150132376937 2.2899219202510306 2.3987490037587786 -0.4838301928907797
Ni 0.7350232663874552 8.411206843705843 2.698886157472466 -0.8491898656467762 -0.33415316524620514 -1.1805734385676443
Ni 7.807718221378884 9.184688729102048 9.48792836427548 -0.09533624811016485 -0.27965940507369896 -0.2916939676407299
Ni 2.5112341394956346 8.460218177870537 12.54425640157776 0.10779298581627889 0.6673208266506894 -0.18151731208362287
Ni 0.3641411171489355 6.949355801032681 5.709172146858386 0.21797941156539882 -0.5855800578367721 -0.4701935759439515
Ni 4.98943183487078 1.4245979705991443 6.1774964815031765 0.25241753863861044 0.2969613866872563 -0.4814370100682547
Ni 2.5633382866747016 3.874180179796268 2.300989726151052 -3.2633724303518052 -3.5514439707486 -1.2480124460469086
Ni 2.883421214345323 2.5189429527146405 11.52350458006882 -0.10972337006977233 -0.08768747331565543 2.3743834304302207
Ni 5.25445711824951 9.113470440230552 9.504920260400986 0.34096581729266434 -0.27794705036828254 -0.35377916700724876
Ni 8.833724109921551 6.4224351981966725 0.9749141035815171 1.0174737097592608 -0.5476352031618826 -0.1733183212125983
Ni 2.9547045173042075 4.431703842339055 8.465151818330702 -0.4782727534076602 0.47997610925201206 1.2586727539742322
Ni 7.372300302679804 6.843977253101541 6.1305173019557335 -0.29650193055233454 -0.4184154149303955 -1.2985690759485378
Ni 0.10895432273754646 4.178669014220249 9.046750197433715 -1.9787153364986696 2.7644789153700002 -1.6358859836347053
Ni 5.126165748377059 7.872630143773626 2.3148962394436046 -0.17894029538506603 0.058700084944369874 1.6227000810720504
Ni 1.0445534789021311 5.213275337751831 4.196172664090779 0.8009330875229174 -1.959129186836626 1.8151762061600223
Ni 8.99833049146426 1.369475312219864 1.7829407599256395 -0.17882125330869847 -1.7908332585392834 1.3200362446833782
Ni 6.470722089673315 5.817349086865293 1.380109759371385 -0.6964277713189748 -0.24203645251460254 -0.042926109939564784
Ni 4.2607910943195915 1.5856750159692976 1.5053064586841098 -2.442588369541232 -0.670372983213452 -0.5657080015031936
Ni 3.5086059664067384 -0.10501354026908333 7.819227572392128 1.8592217744160107 0.7398516468305646 0.08974692694784543
Ni 7.700779335350403 4.778591149467571 11.122033302713675 -0.4147562209112534 -1.4419471579582779 -3.9409463021890705
P 6.5173000394243 7.286611735500824 9.168317253124767 -0.11754209478324273 -0.35916845634362016 0.20607546103896118
Ni 6.712230848870692 5.346879287336658 7.873166974380925 1.4215575385583323 -0.4543221561293337 0.7122251433625476
P 0.8725234173522499 5.935201051848391 9.99595958840689 -0.16807635608736862 0.4052197421757279 0.24800861093763737
Ni 4.047925684480547 3.6488042019981854 6.594953794174649 0.50157029048302 0.23880431873054997 -1.8643662947314277
P 0.25014263000266335 3.026489357508665 3.0835559371008827 -0.6786511640618441 1.6460194725242812 0.4308371856335161
P 6.050981853761805 4.112995498230377 9.514463399657046 -0.015678072856889127 -1.03034516640529 0.381008435036847
P 3.6282411749296553 7.989618350167125 10.786436156246634 -0.14895557609751767 -0.974776170890734 -0.9032534802603992
Ni 1.0241762063689985 8.873447717316358 8.626506566731274 -1.6044059107485529 3.088949820331435 2.3651243737257976
