# total energy = -340889.8166697089 ev
CRYSTAL
PRIMVEC
9.09766521477565 0.00000000000000 0.00000000000000
0.00000000000000 9.09766521477565 0.00000000000000
0.00000000000000 0.00000000000000 13.31535264791603
PRIMCOORD
 96 1
Ni 6.323859977942766 1.882079522803521 11.526754756753562 0.12708654393856825 0.921312137534323 -0.5627003250251212
Ni 4.5828488543203525 0.03915635173968026 5.796239965215552 -0.3658985759786021 0.043876389667976044 0.08741827881466879
Ni 2.804409935377992 1.6304653917476806 5.039728150453182 0.1979741720880655 0.1863620417704339 -0.7677522298955746
Ni 3.293791550801059 4.533403043050566 4.9545758221508915 1.2859953530485853 -1.2604470722658356 0.1864191202606144
Ni 5.170521646368769 4.814484512230203 2.433007754201056 -0.9162239243781382 0.10735769805107317 0.9592875883368316
Ni 7.348439051577245 6.215279341787311 2.5800760636917164 0.8190143705046605 -0.8562123197111965 -0.6403903208084326
Ni 4.900593914929105 4.243223908503902 11.814233704219292 0.7510526577527065 0.41129628738711105 -0.8981688666486403
Ni 5.564004771158014 7.845981272834534 12.62966563896467 0.1746619797246863 1.3007403725682436 -1.3015140175094746
Ni 1.844824583125549 6.700612496122051 0.5639333440396991 0.5180148091922885 -0.8480585802558105 -1.4737781864259458
Ni 2.618126139322766 1.6338133326027462 0.44109757602064953 1.2240219966695822 -0.28282546150650645 0.964716472661887
Ni 0.23840068187677171 9.051740352253335 4.908691746872295 1.353745206900049 1.0742189849701047 -0.19926460876471488
Ni 8.80476603053468 2.2781008962301663 1.2708747095167543 0.010299067933162907 1.1958856434446823 0.7897485316610077
Ni 6.747929453695953 0.4534312809587268 4.686352083434471 0.2758318037974927 1.383057068490289 -0.7138333683899318
Ni 0.7275603142648833 7.227067097915749 2.5443240583323776 -0.07040040410043359 1.8620199059864382 0.25380773411791774
Ni 7.7393293417368865 3.923222626884126 3.591589980092608 0.788445496578868 0.37996945224937145 0.28054540722307814
Ni 7.521194619231703 3.922185493032285 12.614165946478868 0.8820704184248808 -0.24199197242991224 -0.2228521662766678
Ni 7.816832352998582 8.907324012217163 6.811215543288597 -0.05069958323739655 1.0755420746569027 0.8152111947084862
Ni 7.018748756341586 0.9990237316185013 0.41489720953015113 -0.804229241775686 -1.3596736565693421 -0.32954497705023245
Ni 1.9540056651952291 6.822039035775748 9.445192544980333 -0.3695107188098926 -1.0014557370644495 -0.2765293440851496
Ni 9.379783970057563 4.888685070963668 1.3349304615994486 -1.015876797585786 -0.38067470584651214 0.1253767603363131
Ni 5.997635893211945 1.9751395418428308 6.630393075753197 0.24046910802748261 0.3522843276292772 0.2137347773564319
Ni 3.3789547963017905 4.296263297593663 0.328687732512212 -0.2380522710558739 -0.7254532120170474 1.4826587767450272
Ni 6.013602295931076 5.4022209879361895 4.870210441902849 0.43474783354183194 1.1931145084574484 -0.15636343852581455
Ni 5.29878963037847 2.747531331503345 9.345660446798922 -0.20634928352563817 1.0875334426908239 0.37985092439363616
P 0.2888254019400505 5.464367140058345 12.406939324748747 1.260611365757842 0.02401153242324897 1.2694179083058783
P 3.9318927019789016 6.159765387717717 12.762206796397262 0.05904281299576928 0.5223779712569907 -0.7303668472685809
P 2.4299591265365654 8.508291311554032 1.660930743762241 -0.5423204758171886 0.5490451961355318 -1.4439860427651778
P 6.499927095790823 7.637499173283764 5.687293602912342 -1.4113957675339823 -0.3916700285157513 -0.8757187651752403
P 4.948229290790853 0.9570107129535748 12.836466489955614 -1.06300023343615 -0.005527357576132416 0.6137670617939494
P 4.185635686730627 5.992122707999528 8.306463244452706 0.7434326793136035 1.8413659771815125 0.5467111486857165
P 4.696251253120332 1.2615732564455069 3.959733377535075 0.7476850268320543 -0.8094796915413478 -0.9651008525844992
P 0.33678283515579177 5.559101129525187 3.6560896982452125 -0.12687622769997506 -2.596207669663006 0.29661274509858593
Ni 1.308935702346245 0.8559229139944012 2.887873736988163 0.4976760976349364 0.7027339160426607 -0.6178759417560004
Ni 1.8731547130784683 6.420477184140584 5.081072490713632 -0.22879090035860597 1.2817833718497667 -0.8778134429207398
Ni 6.079787811476191 5.594509243133653 9.307725001751495 -0.2476617691211799 1.4864161869049304 -0.20096899305033133
Ni 8.32242600810569 2.3810227845273326 10.200053133478589 0.7378736971685873 0.3825906919223024 0.1827684108819046
Ni 2.4175772039720433 5.676597477740329 7.355973738034215 -1.8774478105057344 -1.174000670446133 -1.3456580590165403
Ni 0.7859800626527047 0.0034407370418092645 9.144265428569064 -0.3348044256769589 -0.9783554036015601 0.6722437178736035
Ni 1.3882309536852442 1.0635989603936524 11.469565012723361 -0.1995201764189467 0.22816535095946514 -0.2550524051582962
Ni 4.085688735008477 6.904527567658573 1.4986693331086471 0.17146301317141435 0.07716960450346709 0.827517265769349
Ni 5.4669599746879465 7.884518983329256 7.640842565306146 1.3047608065815464 -0.43085415491438056 2.0748285719841753
Ni 5.315338283681091 3.2426171831115376 4.373068517921708 0.2761004840778471 -0.03776899121865753 1.2591368380948444
Ni 0.6985187468802627 7.62650009585503 7.039494162678015 0.5025156851154249 -0.3914000626838162 -0.1111387623600602
Ni 5.258678023775252 4.439524234128223 7.309476480109882 0.4775952677246614 -0.5345482880709375 -1.1300078098049506
Ni 8.019118942434407 7.599807545668176 8.86088770865079 0.1862306583988922 -0.7144481191557954 0.38723076179747506
Ni 4.874647373302347 0.3867854235460405 10.169933492747976 -1.7424181004606896 -1.5437348181207415 2.4131482099032437
Ni 8.422118225197561 7.04164758007039 4.7248734181315335 -1.1280242037160186 -0.24097278713677855 0.6072022640922382
Ni 7.359729254297724 6.161630409117958 6.932704856833327 0.4163773014544442 -0.8316081480092709 0.7201181729573791
Ni 2.413619719537387 5.08002716896296 2.7048005070409604 -0.6490330840850952 0.34065188559667137 -0.5686092343103885
Ni 2.3834336658495947 5.06507060709957 11.554250630792325 -0.27059318110637265 1.3974215647420773 0.7302681169071874
Ni 1.1794395335119956 3.236803774942008 4.056775444705532 -0.3056152057075123 0.42793029639936625 -0.3633974068233032
Ni 3.6213256993447325 2.8307203836194317 2.7159724401116683 -0.15904869866746157 -0.516440265616317 -0.20341822592177228
Ni 1.1635823027772692 3.3810472593362064 8.155134498270668 -0.8677995103281636 0.13294865914630008 0.3046862661353398
Ni 3.5596799188177637 2.743646628391625 7.593519239366487 0.47372704301850665 0.3726382086952808 -1.7824892574499624
Ni 4.222353864151944 6.631488434663386 6.026821203709365 0.028497593219060598 0.32443928039255093 -0.24902265402444856
Ni 0.973159068980046 7.463733764773567 11.636034093609206 -0.3846321478323634 0.5222733273583263 0.49398219372311697
P 0.3390235901356903 5.812198180035852 8.267089458510753 -0.9635185956990439 -0.3456549952382176 -0.8154209967264472
P 8.728300153124824 1.513769638084837 8.192084666158843 -0.26289812645496013 0.5561141871671712 -0.862829567917398
P 1.9524317690867337 3.0918779656452826 10.522191456693077 -1.6895644469947675 -0.5548764581053283 -0.07669266486704855
P 3.875432590711138 6.265789579905039 3.8388690736010602 1.3554089677557173 -0.03864496606570764 -0.831752129786303
P 6.785693862634479 4.074980782871489 10.530659563616707 0.26989666925998035 -1.3204849021850227 0.31268034008440987
P 6.396668593875077 7.566573774082429 10.253966808210121 -1.5790165241411707 1.3442269829969686 0.29822276989818314
P 2.4009466716811194 8.549640200647167 5.706041161934173 -0.5716202532225705 0.004409956142237567 0.24557197647168674
P 6.9503525081122834 4.226111199948526 1.4215602507573442 1.3178536352097627 -0.45290496406683295 0.6542863620642344
Ni 5.347180112465681 2.8820585092855597 0.6833156382854254 -1.2025340019991353 0.159851397074415 -2.1087694477059937
Ni 1.4777064925699455 1.084387125757307 6.961586305307488 -0.455334656554248 0.3340706328347279 0.23929848475814916
Ni 6.79281733461686 0.7947438437007609 9.061496688592936 2.2280092419066335 -0.46122505389675406 -0.7155884034078257
Ni 2.621055587570949 1.5007690742753568 9.149231844092924 0.6885535107772207 -1.145196344619931 1.935433900102215
Ni 6.346340309064688 2.1916639775780515 2.507108238615484 1.2955218044817818 -1.1848191012178755 1.6688536968099776
Ni 4.080448479757071 7.124254381602987 10.696382635942454 1.2402903948123025 -1.5013581529267435 -0.402746598044887
Ni 8.482608602222918 7.32342956948329 0.458701558505845 -0.0022867391516476748 -0.5134626710452318 -0.5967095920910304
Ni 7.696488435523561 3.964216707027946 8.345596852028969 0.22276989097550665 -0.28613138595128784 -0.530988338633821
Ni 3.165960254728976 8.614633922029201 12.77012904339887 0.16542760561061187 -0.6424333193803904 -0.2503742829563365
Ni 0.25509125875911776 4.763364730532883 10.1581229035685 0.16068700560183294 -0.3221661680876581 0.7096828365566682
Ni 8.48342739210595 2.0929452106804516 5.813775715210495 0.2885803617124127 0.629360288246516 0.9963001610054391
Ni 3.5595525515026254 2.276572488448506 11.660706962084578 1.0559512970091685 0.025532339943149577 -0.4082958099978904
Ni 1.120650419910273 3.3405353554568396 12.71875816613742 -0.9188083972758627 -0.20742271909547502 -0.6412061318415087
Ni 3.0844906613672576 8.358079758679064 7.86951966243864 0.10597804409472715 0.08075732185472544 -0.015623051249237609
Ni 5.818148053185888 7.728712366253568 3.4497018812619324 -0.4695199469156946 -0.4597559255503953 0.2699702028103931
Ni 3.4581317779910186 8.408053234540139 3.5024037469665776 -0.9064835571619226 0.35249952896387676 2.167404226630067
Ni 3.087765820899387 4.482437921664485 9.45312843847999 1.4267946185875557 0.1927247507636681 -1.0955324017359003
Ni 7.83339010396657 6.477455862334269 11.471429124357067 -1.401470023779838 -0.6577033581655835 -0.4830015263418972
Ni 0.6657562343605283 9.386425265775491 0.40409737097295445 -0.1301677539670532 -1.053467097134734 -0.10051702098015591
Ni 4.792768384999112 0.1557065427566514 1.7331925900059924 0.3773117029115502 1.4140571164162294 -0.8406113799491459
Ni 5.970370190106968 5.816064687816839 0.30277667178038503 0.8059130572360121 -0.7372977700604593 -0.10096850669527771
Ni 7.882972380216862 8.93795585150794 11.197892349066302 0.49877858667049585 -0.5964059448076825 -0.07379811692807291
Ni 0.028452948435374076 4.74462353987681 5.937449378209847 0.6344600713669266 -0.28664277837006763 0.2221975634118044
Ni 7.978570647893571 9.107854752237152 2.4318095916722187 0.385579085126665 -0.3918975711455251 0.529280611914095
P 8.504279241127175 1.8258468531699328 3.684504436486045 -0.4921932201434943 -1.1969251404527903 -0.8763057480269618
P 1.7756641310054169 3.177423313091429 1.5895468222264073 -0.3292413297668845 0.4291896227277641 0.7630923625260599
P 4.891132342947398 0.9007325549931514 8.168036807294184 -1.9646539733095973 0.30152175236442913 -2.157806555639303
P 8.489413655917454 1.5786632851478342 12.247754744522283 0.38560222505511654 0.8935809901676417 1.5259795510198493
P 6.582679459969292 7.8365651891796615 1.220904872721827 -0.586713400110267 0.24532643611978394 1.2295521824591922
P 2.0247582087545912 3.439072169047099 6.178004387245531 -1.0487591501361035 -0.7466244467780238 0.1760084664502517
P 7.096488306902824 3.802187286841211 6.014265515736333 -1.082357297806523 1.059663198643117 0.022079862618174878
P 2.5394131385672565 8.528106026723416 10.552231037968461 -0.24302427034916854 2.045890034572954 -0.6554564711129357
