# total energy = -340856.52473517664 ev
CRYSTAL
PRIMVEC
9.40769360124510 0.00000000000000 0.00000000000000

0.00000000000000 9.40769360124510 0.00000000000000

0.00000000000000 0.00000000000000 13.76911052966097

PRIMCOORD
 96 1
Ni 0.5002333974782385 2.3460341238892486 1.9544567624078808 -1.0787572391600906 -2.6267523752190827 0.8210825658875989
Ni 6.231872458432265 1.2711863421534042 6.172595523341944 -1.432445903336062 1.8657366927163932 -0.3633007333444388
Ni 3.586476124143056 1.405989180304972 1.0176076122579045 -0.8522695330133645 -0.8749770019132093 -0.02516132975697602
Ni 8.566081111768334 2.342986031240696 6.109601608605193 -0.28775066672226574 0.9437049034072263 0.08625511174450305
Ni 0.6006586425546817 2.1105501514018528 13.195626770247403 -0.27687284346749735 -1.2217789662716767 0.40034724457477505
Ni 5.4104208973407415 7.097088609033251 8.813813901010096 0.9274105371225771 -0.8324044186583213 -0.5576715043519621
Ni 1.5451383727887347 9.362583470069852 1.5838472678866788 0.027539343070849345 -0.3667570673241555 -2.2470714007444075
Ni 3.0143284370843713 7.879761658095968 0.09117842327316483 0.2175418098073479 0.531106095158608 2.1063955481571788
Ni 5.9510434039509725 3.152527452538801 1.4548856665421672 -1.0627150980955633 -0.21458632672344982 1.5731351256597295
Ni 7.475249659014308 1.478748280749122 2.582658308811843 -0.5964288276258178 2.385297506239563 2.0183355219934533
Ni 6.115254691545055 3.8237005199020015 6.086855687600038 -0.06411611375361861 0.229848652199159 1.0823161601559423
Ni 8.924344890293561 8.200770970916667 5.049325403114234 3.8063089424864383 -1.8946916851878466 2.3419898445908633
Ni 5.1057057094190945 4.472567946309282 8.443314476501204 -0.12701943814605868 0.40545602655625007 0.19619882535519761
Ni -0.21922277451510266 4.92662085862328 8.29173019493455 1.7439489352829192 -0.04456853063899421 1.4775574509627196
Ni 5.573296292477743 7.3193641800435865 2.5661901415856363 -0.45941962525689906 0.7498123575877023 -0.21979898127264083
Ni 2.243574935508432 1.1145952861807025 3.3879032365525603 1.9356763551303242 1.6894202081074192 -0.37002031145645947
Ni 0.8312139244909147 4.222455010647507 0.9157777985628536 0.08668011509706362 1.2788456293776813 -0.5881444761298387
Ni 9.098970494436866 0.039026875133502927 11.484622296602609 0.6006469794722236 1.626783764223121 -0.9526181467364562
Ni 3.7701613369917797 6.709021257944399 12.047310547988085 1.3453600681601474 -0.5286517200808444 -0.6871399182591457
Ni 9.318282642038886 2.4039008457449462 10.761027680300321 -2.0609872952257087 -0.0804513605785324 -0.30097590716328815
Ni 7.3255262191942085 9.33171682815658 4.476090186703165 -2.437404511347447 2.239154974110808 -2.02599972340693
Ni 6.098151505017067 3.684080942750252 11.528655946142159 0.02163069089589823 0.5558655614914749 -1.1817998547755775
Ni 3.858593654573239 8.868143330162537 3.5555012937561457 1.5187172130304813 0.661097728559113 -0.047987840733188326
Ni 0.7499088753987864 3.554781605214126 3.974329920592642 -0.5627332351455857 0.009292223935203351 0.9473527845724588
P 3.775815360700977 4.737441552852474 6.560457786715554 -0.219803352148015 -0.4238113891349863 -0.14319450524402436
P 7.502804792864956 3.1554156144002383 8.09311120964659 0.29241696184968347 0.9607346051960035 -0.17828594963051875
P 2.4587006595653724 3.3494586976380245 2.2939616003738084 0.7875772350413017 -1.3091028856003262 0.12238013960183439
P 5.447336686084322 0.5717384523975364 1.844827030148278 0.2099305731189933 -0.39610723835149847 0.3504387897801062
P 4.011092363934458 1.1021300924790605 5.420582146938586 -0.22526257549037335 0.6342777801527916 -1.2670509507355985
P 6.113824722154376 5.706687976625351 10.297463589999637 0.5276209648234849 -0.5386389132005434 -0.24408202218972158
P 6.8567314513855155 8.740781977458514 6.542310346224635 -0.24032692602266353 0.6568870329118751 2.132936531870501
P 9.063428228923806 5.756275928324487 2.7993156053477475 0.8611814907910136 -1.6707802244087289 0.18703155703363272
Ni 5.022983861706991 2.2821370705899637 13.134780631904679 1.181432958354462 0.6980570793922817 -0.2007962149178929
Ni 5.490141690871091 0.019996993005441572 9.28091716555271 0.2066336475352764 0.6569412831885783 -0.6294078536549998
Ni 4.144521678855505 0.7871614595646442 11.618003632287522 -3.7064794344916105 0.8387085064994783 -0.47917803883074894
Ni 2.6662437827743704 0.6005852625464758 8.129241455994633 1.0979746926288056 3.639769591868886 -1.616290320890965
Ni 4.408849639183832 2.3315839068887034 2.9966400920294074 0.02922238720022709 -0.15455518167248222 1.4864966624338787
Ni 1.2457667546954145 4.287358687136282 6.5997414918777775 0.9731928855640142 0.24604660211526017 -1.181518833200049
Ni 6.267320647011727 0.8612978463166585 11.354338914341053 2.7415472462744916 0.4284540301133201 0.021105414520047522
Ni 4.11305294456721 2.6781162917943493 7.176763304866138 -0.2889593423183862 -1.0489026176925034 -0.5634706275322425
Ni 2.4436671655765236 5.4126034822002 13.483979157108472 -2.1816764202783654 3.363537467309181 -1.199330150349857
Ni 0.2945840429425539 2.546888377119479 8.415556136473985 0.8605577411640857 -0.21193911890858982 -0.29098228628568595
Ni 8.412961494645371 5.701156252929831 0.525280440279183 0.1436318498917591 1.4811850204129782 2.0855505863873693
Ni 6.827370040409798 4.3096737357855615 13.542470549803255 -2.2820391750688436 1.2460455521285252 -0.6122480540462617
Ni 8.31906330722191 8.039946452932087 12.865911577991609 0.15706046459283918 -0.645653883200217 2.2195881077224744
Ni 2.545778269303031 8.684712125034526 5.639400390639221 0.9806100039636918 -0.2535030583933054 0.2150172436132813
Ni 1.8507190684994768 7.933056240978837 11.894611454758302 -1.4501744309640767 1.2360689005317873 -1.2748938438187851
Ni 7.837765714938134 7.210244344764081 10.38316203189076 1.2609540938092414 2.1260742575330287 -3.8187026881651005
Ni 3.0911892918333637 3.486839243770158 13.784807086133878 0.5228770223805963 -2.663463614597187 0.7505934587281009
Ni 8.073428433599364 4.589204528583212 10.124619802978668 -2.080371099068959 -1.558582424656535 0.057348970233114145
Ni 8.916489466338188 4.068620408829205 12.506634590891537 1.2695847729010457 -1.0121692668272115 -0.3749275189500898
Ni 3.3753957082307995 8.108189860563566 8.796189528269979 -0.6764610983890609 -0.47725382522484255 1.2570455027834544
Ni 7.765354699148294 5.932867740379974 12.041540809650563 -1.7212147269101972 -1.0280530279370037 0.7728121609169851
Ni 3.458606755997609 5.881793373130001 9.941848077155173 0.3240091348336678 -1.2251206290504 -0.38421974288529315
Ni 1.0439905475159306 6.836307349101542 1.187475745869193 0.13935970487896646 0.4729246017218695 0.370013369477924
Ni 8.017330358095297 7.514094024896632 2.8315209620261106 -0.05184912346080747 1.3956269347354997 -0.33380375232658643
P 3.056286749468766 7.1280116971066825 2.628412625466889 0.34683898824398973 -0.43916267478007587 -1.1032832493259128
P 2.2547136444463516 0.6542119370049432 13.156040137358996 0.43422924203420055 -0.7929978918362407 -0.6258139656561544
P 8.03145130582825 3.246039924534515 0.9705691454592557 2.708762595644303 -1.3546594911842023 1.1688376381879548
P 3.764356790188826 4.303568142795097 11.80038870191393 0.5725075409235301 0.4944905008181032 0.1424198318615289
P 2.8668158052038084 2.9350309897552087 8.992660737163911 -1.0614274896323914 -1.02577400209484 0.40819013765796147
P 0.9904795876857878 0.3422744628910319 6.395159910538423 -2.6824033889244836 -0.23171681575614936 2.0037846207624717
P 9.17156025640054 0.12245900369426627 2.7364731544740892 -0.6893132717613807 -1.218832739159159 -0.9194336895646874
P 4.324076914319307 8.31692776082925 10.768435298051774 -0.6831660212130621 -0.4664379655562612 -0.9351919808402087
Ni 1.4181251047390235 8.057303647180788 3.6353613211482196 -1.751822424493725 1.1442280671693907 -1.103023567906623
Ni 4.697383594526745 5.677665242610584 0.08521959029911201 1.298011660783171 -0.4838278788979345 0.6692640664199894
Ni 1.9979588772726073 2.0565970299838026 5.683255294004936 0.9789285024962108 0.31337968014427964 1.44575444751951
Ni 7.457817203218728 0.25520155700005315 0.8433404412316065 -0.0005736131152828831 -1.6860412643328575 -1.9443044631189677
Ni 1.855752184446932 5.302100715996813 3.0156690333881326 -0.19268592710593266 0.26225560777495477 -1.3420407739789275
Ni 8.567078327264465 7.698409553200458 7.643398066279437 -0.4288659208397582 0.34515080190828945 0.1840033117302702
Ni 4.411568462564794 6.568376242216439 5.788024071105566 2.0228758330659677 0.7483807673474981 0.31887669870310886
Ni 4.768797394820453 2.624652370431005 9.987354971474858 -0.9242588788674727 -0.9813653940724777 -0.11712146230605634
Ni 7.029042762962326 5.538440788579944 7.60083766152002 -0.08920108174670444 0.6938342995601857 -0.24694057468443922
Ni 1.8535131534273166 3.220253437035496 11.471651909767548 1.44186333999522 2.472475129798335 0.2961584311699867
Ni 6.875791438132328 7.113316880078785 5.450832584936797 -0.5013954554680526 -3.193462078513913 -1.1839834926904578
Ni 1.8014039399077735 1.167381853622146 10.703403676933306 1.214282143673999 -1.8381091608071118 -0.357806542999087
Ni 4.560435802289159 9.108857980157941 6.889525729668197 1.1560947366999896 -1.361228916871604 0.7868069325341805
Ni 8.187957692560715 4.780632273066993 4.761261832439309 0.8509402726789796 0.29610109556949005 0.22121823021767062
Ni 0.3632451521592055 1.2503577090549625 4.395609251549349 -3.1395290759408834 -0.756442204199394 0.45583267923658916
Ni 0.6404259031555953 5.4580332334343336 10.822521067946196 1.5086192053645309 0.6817480578196129 -0.4644834129330517
Ni 5.032175178119448 9.226896308742472 13.460902085297054 0.6202536979595576 -0.47899317651345247 1.5147993660333139
Ni 0.7481684521272363 9.354060099885938 8.801229229602786 -2.274216850810948 -0.8827090804501443 0.1942134194940526
Ni 3.114097025164305 3.775053337538839 4.63443483671812 0.708980668283321 0.9547148813644848 -0.05489330960376998
Ni 7.694194906575299 0.9313748133839496 7.973113258535231 0.14931938719483961 0.7290617553039122 -1.5275304404467371
Ni 6.1249446157055765 4.439151819495522 3.8226214574736406 -0.9878653999745244 -0.3771083286514925 -0.33179366387509307
Ni 2.4617393445205646 6.474139377832025 4.774315006975934 0.16352036128557 -0.9920560410171045 1.5241129301247558
Ni 2.6236551549348737 6.404409554649709 7.464702693988715 0.2396219295358389 -0.9206295096450016 -1.8948271823244462
Ni 6.135876355389582 7.88665749732865 11.815631046695364 -0.12789232766931521 -0.4735923172128552 -0.3449605402743543
P 7.678888589479019 2.1070410817786738 12.351208207356771 0.6575892011852222 0.30058201415897906 0.1396371269100692
P 8.079844480470701 9.406592659606668 9.647478529621221 -0.5870466150799696 -2.174417424723107 2.277486522701155
P 9.021413470379253 5.869252917881482 6.515419395525184 -0.3594453641540906 0.7671968716127368 -2.1941282728884732
P 6.929095428708557 2.476349492308225 4.508984186535461 0.6381493472930558 0.3272749500691331 -0.2606219288262737
P 0.46392816803370535 6.4307510960569525 12.725081230704463 0.45561310702661534 0.15750526543974164 0.9404336888551222
P 1.6017068329607898 6.685530247625153 9.209083782135158 -1.8216052496148176 0.4755985490096068 1.1314378573832578
P 6.557096417878123 6.944345299644679 13.718549642570636 -0.364370826480166 0.09437825507226971 0.9412248172978499
P 5.42822966087071 5.305393408672719 2.0691807606217774 0.12478412105763673 -1.0782970116942203 -0.5315619517491039
