# total energy = -340873.06873301987 ev
CRYSTAL
PRIMVEC
9.22440243221395 0.00000000000000 0.00000000000000

0.00000000000000 9.22440243221395 0.00000000000000

0.00000000000000 0.00000000000000 13.50084537643285

PRIMCOORD
 96 1
Ni 2.611105422916727 3.147762697021436 4.215152411665632 -0.5790445707110995 -0.1976476419865822 -0.8318585734571802
Ni 8.566499432792682 8.889833180462217 3.687796102349671 1.5422770026282924 0.9607765141775323 -0.4208507638447655
Ni 4.936577230159965 7.405304004346825 2.903505137640645 -0.4543851481567852 -0.9225467812723726 -0.6470456213414211
Ni 5.093143009550443 8.20165587499782 5.241784104967883 0.06378521277676112 1.0701594701887505 -0.6579630395848732
Ni 1.1674403487691556 9.093489533339314 6.41261811132484 -0.672668464115848 0.6807995778634147 -0.16089629339916162
Ni 5.3478933264906905 1.7064775186543828 4.833680867940857 -0.40265223855886784 -0.2161806677937632 -0.8834279608940399
Ni 5.535093345753658 3.0448275923128785 11.489961564701359 0.36133075410226156 -0.028054335034054908 -1.1511967851777398
Ni 8.780929887497862 3.072436228247345 1.1499942367935936 -0.1347456031457228 -0.013593679524034653 -1.7487129323304658
Ni 4.158600368791113 3.805508699462844 5.719984497133433 0.517174058458548 0.5766842980090391 1.123742031400897
Ni 8.776548296429079 8.74348803876482 10.173251016281307 -0.1653263041460572 0.45414140757709537 0.9788876219559466
Ni 6.896126224545082 3.598669927809472 5.243120720853919 -0.20283124307005065 0.1541682306467087 -1.0542556544743005
Ni 0.10727426352699128 3.929078792004813 9.599290259477307 0.5335972370115778 0.6123460130767067 -0.8747851976173773
Ni 6.540728454654295 0.5946390993279883 6.754378524929121 0.4343151168797875 0.3638720324668765 0.40132426377606367
Ni 8.409878306988704 1.472362189547547 5.579237645161604 -0.2894421954920757 -0.002109847254151205 -0.3515124824602591
Ni 1.1472758054504972 8.023781726409675 0.12456909530565193 1.0827041396229806 -1.8032696845304235 1.646091206302481
Ni 1.8695280528266613 8.425384527171074 11.483198232971606 0.42264719362355596 -0.949468545363881 -1.3882013316953898
Ni 1.5709064787850697 0.5983851290817428 9.614195048632974 0.7325409721017642 -0.3172239935910343 -0.42327531412585817
Ni 8.791279666822444 -0.03494203572327403 12.5439592921589 -0.6674552953460248 1.1129164015403028 -0.08363875716757854
Ni 3.749996246721909 5.389126404548513 3.7153106493811867 -1.3361627179315956 -0.4182796606834796 0.7045552855221157
Ni 0.23337553204638023 2.5931824093448363 3.2784909257094608 0.6457834667995459 0.7211844094383644 1.2685504180992606
Ni 0.4898628039303167 5.509062082603954 12.683544791887444 0.2950168613663758 1.883887138373175 -0.27128275097422955
Ni 1.8625359559211068 2.3835763170164426 11.534406579622656 1.2027052374696772 1.171569435296821 1.5440744608483472
Ni 7.789278972408336 4.6189441630809736 11.326102050451748 -0.04271142282559741 0.3134002489695699 0.12235468568053767
Ni 7.0423883466222295 4.741407327352934 0.17345197014946026 -0.7937077734190717 0.6023706470315496 -0.7553052623814734
P 8.22196800875248 6.864265139173332 11.089796848250744 0.1801417718923349 -1.0774503474232089 -0.6046298753793716
P 1.9313684455111466 0.8177663204745381 12.856152729231022 -0.17443340865364795 -1.035515911972952 2.0600838095748326
P 1.8897110449498196 2.6374964377541845 9.544395841687127 1.0123646706674694 1.5025899684513155 -3.1223533354925452
P 4.723963982698047 5.275915315733376 9.574947984379591 1.002755943933112 -1.0204006535980683 0.12560353163513852
P 8.92713666316151 9.140681575250685 8.023795563013051 0.14670894615518604 0.6948899945182098 -0.8007176290780017
P 6.857070105418275 9.212668810410248 4.617977445725166 -1.665533888408125 0.41863061626499515 0.7235490530157991
P 6.629190472232489 6.125473538562788 7.187674526941318 -0.8095730225861025 0.4313565484720958 -0.051874834492420335
P 4.995050716023173 2.13204531646147 6.887293859390637 -0.7871247208849154 0.30142944976093894 1.2033865798074177
Ni 5.599267512207412 6.104718633500125 11.618247171673564 -0.6042452383464432 -1.5867190349917513 -0.435261797063773
Ni 1.2767679642370129 7.548392932049947 8.972108391451288 1.0324876666695895 0.7294890726493178 -1.3510211231006668
Ni 7.5230442746667485 3.0409072213565977 7.628706112680427 -2.238207522595874 -0.14614793144539348 0.3208885869268151
Ni 4.531090956051284 3.0621694685430145 9.321874663768407 0.4348403932556382 0.668377807160294 -0.08009500568037818
Ni 8.150063793213166 7.935854724161986 6.0076465588617145 -0.9408005852762377 0.31264357330920345 0.8780132176363716
Ni 1.5400877508675779 5.988417369931214 10.570082033758744 -0.4883651046466558 -0.4604987172536908 0.6731808849758922
Ni 4.039993004659683 1.94840591646703 2.6204193018686253 0.21981980720824723 0.9057860168742659 -0.2638088111946876
Ni 8.26533192373007 8.240204652000873 1.527728896732931 -1.8819888929091972 0.41898208606714293 -1.0956187908021195
Ni 5.445625868330207 7.954109816214879 7.728828697142937 0.33348442131395467 -0.0808917905500607 0.07873669188027085
Ni 2.660133120875862 6.5809191752578595 1.7614549560648138 -0.2403431239725796 -0.35106202518640184 -0.3306394956659918
Ni 7.1393644874772395 6.842744608723914 3.583124042697425 0.7661031243279258 -0.2688836546144337 -0.17173580721682682
Ni 0.3916644297771716 6.995214753515358 4.4044343785164415 -0.24550769889265459 -1.3711310064766644 -1.4555246395323964
Ni 3.682455173446879 2.4343105293918406 13.145570194707494 0.9320616627413432 0.411971973297897 -0.18692459914212323
Ni 4.556494959847983 7.3201074251651574 0.008252150252914717 0.48627556910747866 0.11525869806570473 0.4077288817508269
Ni 7.441463661167108 2.59747175639112 12.57474112246739 0.45907046944759644 -1.299705503545826 1.8453702132448995
Ni 7.1293929086449115 7.396559271013756 12.922968764489196 0.1555550836919063 0.8427878187751743 -0.8503126663973098
Ni 7.23252172580072 5.035841022772993 9.091050601384396 -1.6548830935624983 0.18653353435129166 -0.41538151320007816
Ni 5.8866353155039155 2.778869626638793 1.183697435294683 -0.4945511788527095 -0.43728448392075664 -0.3389721839014033
Ni 6.839386926304887 0.6141588569293664 11.002257270897557 0.3383556333633269 0.6949357601544806 -0.44376906320383575
Ni 5.690035630348123 0.8540348252413726 13.079469973063924 0.25104868331554187 0.3012564145181844 0.15571629186011893
Ni 0.23887881042877337 2.0964760213851914 7.82415828219631 1.8668605219081913 -0.9813275988560067 -0.19105507637072902
Ni 5.214416225932144 0.9464974660754228 8.837936693403309 2.640573340262575 0.6662491908530654 -0.5401833748695278
Ni 3.2834444297177496 0.7493028069745012 5.643852738042911 0.5980136556144346 0.5312557333625948 -2.301967538561655
Ni 4.290168018083895 5.8654468635354995 7.544042703948813 0.3509949193938923 -0.1191865723652012 -0.7101674895025705
P 1.0798454250024685 2.305039756259327 5.411490045363589 0.7039410489768844 -0.15231060861267962 0.9008045044992744
P 7.539528281487628 1.2351290124801861 1.121976959839449 0.27007767492253487 -0.4636948555934853 -0.5709661645783393
P 1.133199367616887 7.939498363050764 2.4296798794623045 -0.3628986128100137 -0.8878368885950128 0.7384593944687282
P 2.699281484025169 6.550967541151874 12.621049466643203 -1.2001765575105523 0.44253133414199275 -0.20222677671683237
P 2.066847241357959 4.299069566255215 2.3709914650266692 0.17236675593260636 0.2878925916167687 -0.1765201159793476
P 2.7958425267789258 5.902907161073043 5.532011472961909 0.7754120604336775 -0.052816629580399364 1.6739341966566783
P 5.2713676854240905 3.7504482424321623 3.650452954720703 0.22534767900501193 -0.5606501273643119 -0.4857886021687311
P 8.630627477235183 4.985540357303348 4.025236728380242 -0.4789723505778461 -0.07758946564970508 0.9520522469306573
Ni 4.23983045500525 1.14636258962774 10.972893231214904 -1.2044559016121965 -0.8730126790979867 0.27744028593519315
Ni 2.9617618500509773 3.948191753466963 7.974409035806388 -0.9495611050776873 0.34954070344586896 0.3213454719585756
Ni 2.696246655684895 7.6342352193891205 4.2367006153218005 0.18543001687446775 -0.40748154162671113 0.11535125777951102
Ni 7.169906483327229 1.839890048397179 3.2847828904842356 0.035073189554049276 -0.3307145718783014 -0.6810952547269625
Ni 0.6172139789545904 0.6131386380405085 1.7024833524801015 -0.09171484930749366 1.8036725763957968 -0.6171683741660146
Ni 0.9586829014477682 6.702690509361065 6.562193638690213 0.5729384578133616 1.033750078321781 0.8831970758301563
Ni 8.955796880952484 1.9685796841879382 10.92723336251727 -0.426442141889614 -1.0005568793992639 -0.8296052586466293
Ni 7.282029092676858 4.247855684962813 2.4736784333146993 -0.6805573799456214 1.1089625590988772 2.0749586698041362
Ni 2.716346628187803 4.630299402250813 0.19479262475500264 -0.2346108494744927 0.06659877096615627 -0.21949456265834455
Ni 8.253423220425226 4.976214486628526 6.487696443678404 0.6586832055803495 0.9665488978849353 -0.20433662397098357
Ni 8.143394550386363 7.235455085716243 8.50257617008013 -0.40238227272693283 -1.3807459038586092 -1.3385507585477978
Ni 1.5777325364501231 0.5327000055394276 4.009440861967218 0.04402165699658871 0.5888073065248183 -0.5760127258633112
Ni 2.7697928148247217 1.552356205860174 7.573379992864943 0.369377535666138 0.5402455955660308 2.1130629328750254
Ni 1.8275293493820821 2.4619376141308074 1.2415206007992616 1.5276214574986464 0.2655805583831297 -0.18720099273196147
Ni 3.7117610993953587 7.136541820388717 9.97280383294701 -0.13148158768247034 -0.2889984230864378 0.9687685312440735
Ni 4.689160313008524 5.062010651956448 1.7630756835401515 1.6680083180905465 -0.36696661223180027 -2.2926694010891806
Ni 6.326934483704369 7.6230091218507825 9.93766162769491 -0.01782880065130478 -0.07672043278119045 0.2635079921248172
Ni 3.2736112169191727 7.954875441601635 6.7177235177080075 -0.6914575717978931 -1.0282260631797584 1.0741338814554662
Ni 5.703973702147983 0.10431323040471806 1.8131365145512943 0.8473502413348761 0.33326562043492924 0.7398462475139258
Ni 8.794332943967218 6.0606352151470295 1.2284745286969843 1.3763158931117134 -1.1880018698212313 1.2062405043164453
Ni 3.62643537858219 0.3340377440405196 0.7110621250066014 -1.2417492387460163 -0.38179082172882634 0.8402478259621399
Ni 5.45363264948327 5.953659822252941 5.235668326276085 0.8899418507531577 -0.8234307544048012 0.7996714472016744
Ni 1.3346510883562168 4.46294107222775 6.351539654266211 0.5363398327537214 -2.203301454747309 -1.2650678588672988
Ni 3.30515867261442 4.43232528115976 11.084828585198856 0.691133612799571 -0.05919450808228515 0.6052471972483964
P 0.25896863608920595 3.5104661934942802 12.509924015176807 -0.689250279733929 -0.9796903203628999 0.6271501679690746
P 5.306411189572115 8.52415942646485 11.646841896208564 -0.941950639720281 -1.422354580538331 0.6500710384313062
P 7.172360174325748 2.373613962586365 9.757317184184197 -0.8429672817758321 1.341945900272276 -0.27530575609069363
P 3.6684433064290194 8.901086951207306 8.904901241537711 -2.578864293288552 -0.1544237983009405 -1.1404637150309518
P 1.1790446467997464 5.4431168309181865 8.316979351928225 -0.19337395431189275 -0.44983429556130916 1.0503174957621588
P 4.912999658008779 4.364470578208228 12.998532300401115 -0.36812875086070146 0.3007249674947466 1.0401215290657635
P 3.7119917094516106 9.204071667513182 3.2378399074336173 0.9808825408987881 0.6562056905741344 -0.05047461171078404
P 6.7237867173069805 6.618241106761652 1.3004645311772236 -1.876141947210117 -0.1840493344768572 2.3814035705017953
