# total energy = -340866.37767672463 ev
CRYSTAL
PRIMVEC
9.26070998460383 0.00000000000000 0.00000000000000
0.00000000000000 9.26070998460383 0.00000000000000
0.00000000000000 0.00000000000000 13.55398514937684
PRIMCOORD
 96 1
Ni 2.070370666180823 5.832608253018158 5.529091255845628 0.26830849883725405 -0.1492787637648913 -0.8199731348735039
Ni 5.441509941680746 0.9137107458230526 0.2647877812262286 0.24394498239122503 -0.42968018921093737 -0.6846071245349629
Ni 2.9816986312805587 4.140435728926476 0.6138961805711682 -0.2001470113696682 -0.29834669707055717 -2.1370191865803068
Ni 8.047742340368389 1.969197407718964 1.3087217072016668 -0.40233367887718446 0.4247048474835331 1.8839023078818264
Ni 3.952860044702681 0.7083813541578643 2.2437135649647977 0.2063657385858704 1.5129278600422138 0.44068168252776363
Ni 4.797353464601571 3.487185234473429 9.820526568161029 -0.7409531074248593 -2.092959734367247 0.2911506935427502
Ni 8.983037023353644 0.6794749734747663 4.940386985113709 -3.2101302831982137 1.3553063807395822 1.7871578665702252
Ni 2.1695806540894633 5.15422419119985 11.953476483225696 2.013765643234583 -0.47626189362521854 -0.7841962343842107
Ni 3.258538300704706 3.7862691296939506 5.825313591627731 -0.6982280577525072 -0.01590150172160487 -0.06861117341049473
Ni 8.915952438978566 3.2140961526627416 3.484173651530473 0.34293142565946744 -1.6909047630727458 -0.5822152551295973
Ni 6.394270324021521 8.778097507586052 11.658406179787086 -2.161784052229813 -0.027633959667184665 0.6872869853599711
Ni 9.283676717880489 6.610600513281844 6.368990437435784 -1.5549684820530318 1.575762021759615 -0.28575883310321754
Ni 2.770517396867357 0.7442601235179357 13.312480142294138 0.14688249561857286 -0.3473357253747502 0.5986068091137433
Ni 6.881754106669783 5.5586486644527415 7.486828534745686 0.5140077449154244 -0.4224044814851306 -1.2339400271142427
Ni 2.116914995428356 3.493195435365122 9.735109481959764 -0.9253032609715871 -0.3071534967289097 -1.067361081508007
Ni 5.33162235496144 5.6017943130727685 9.39517566816706 0.06906805844225523 0.8801935131171422 -0.06465938785159832
Ni 8.832309704843325 5.357543082690021 3.1772709387246563 0.5521683151455459 2.0842989733684556 0.5234755751965436
Ni 5.09193665468594 5.330733326786397 5.433616112343182 0.6370854248049157 0.2392727737265363 -0.6571531420890683
Ni 0.2473674593504755 0.6868113080608975 11.72044275105575 3.0797830662305024 0.8006350966665243 -0.9879296775535568
Ni 5.874679659260009 8.42540336126844 9.074894933468885 -2.318453966252452 0.017124575495428573 -0.11050164299669356
Ni 1.4479120329987774 8.042510039129857 13.134042000781951 -0.47800175913446064 0.12249789612662129 -1.8958255416819736
Ni 6.481506213697559 4.451845629365553 11.365112080556527 1.739897648031681 -1.0857336704779237 0.927348830646706
Ni 6.100678029923918 7.107530220289931 3.95178672839552 -0.9281523003846079 0.2249563571038642 0.030331561104005825
Ni 7.885040923625469 9.061030724293303 10.011123096037934 0.25076174820274233 0.3810194907804406 0.13197729637196623
P 2.4485595475598063 1.3696960750153577 10.051879481437537 -0.9346700468984677 1.5081381519630541 0.5003029937348223
P 0.9838393256266333 7.675146927924048 10.710386354975519 -0.1283666962025725 -0.5728690380280069 0.3768021102649833
P 8.290400728604187 1.879840815417044 7.42429003298653 0.32567880922660686 2.640141394931479 -0.5140771647007791
P 4.503687084822714 5.086167232258322 11.410964634755357 -1.8817536369699397 0.617801379764323 -0.2455328957036352
P 4.476006822164362 5.628029904946678 2.8158541295104578 -0.801554008936368 0.8722652594090009 -0.5476123203437472
P 5.981576036598703 1.7080824241408794 10.886127777690078 -0.05506737328778903 -0.16657688872370666 -0.389905994636793
P 7.227539763210501 3.1666720559503228 13.15029362103593 -1.81021269150716 0.7417948865998644 -0.26614388708576747
P 3.812625110799895 2.281996414681546 0.872642274491171 -0.21045199284010205 0.11572278218631685 0.5061967335114379
Ni 6.318425107838214 7.563740584739044 6.2642860701911784 -0.2612194532009566 -0.05114464119461514 0.18615558218658262
Ni 1.3940517427274575 1.5409729093633742 7.991524273291175 -0.2893632626250242 -0.496337581329171 0.3407218196026584
Ni 7.015941796840249 6.501814951071184 1.9226873430990103 -0.2669085331659339 1.0239919704937526 -1.373153950443964
Ni 0.640942084583787 2.594739857383188 5.7048048964297156 0.4924475022461454 -0.8047588890269107 1.319212206120186
Ni 7.446981551083472 6.266028009771652 13.105321760373004 -0.5534276414739436 -2.635458387633513 -0.14239772037434184
Ni 9.707632028853844 5.808104413943551 8.971383345692463 -0.7290969794172217 -0.5379408586922543 -0.05740733427487533
Ni 4.0877978523958385 0.5599210574939052 11.178906981435922 0.5902967465861512 0.18747610077021906 0.1793167048878783
Ni 0.0679856514733222 3.1110800128797016 13.10994285474119 1.6418967086051597 0.5605138588967636 -1.3358331025063188
Ni 5.232949488241887 2.6424788182409347 4.951935090679104 1.091347417120275 1.8093572854853999 -0.32449867287557665
Ni 0.13991914368644215 7.205777094342275 1.3297055503457151 -0.39026749174126985 -0.9014269685746219 0.726917969488032
Ni 8.079034279987852 4.490231272965041 1.0725189600160991 0.36809404096802417 0.7214260931355253 0.4054706818442695
Ni 5.818735709203434 3.277911706352506 1.4123657231333313 0.7669191924713179 -0.6019502716646794 -0.9194370319987971
Ni 1.307315931399881 8.606904019629445 4.534445607537151 2.61587018108894 -2.7031200526465446 -0.5798138447769562
Ni 7.44751867227256 3.204289060606805 5.821165719548549 -0.023651835090985073 0.5004999402369767 0.2531629014450672
Ni 6.787970894912964 9.204321692547795 2.308745049898135 -0.41958938063383866 -0.12237654005740857 -0.2882288919102649
Ni 2.6653620330381207 5.75508684829649 9.591722202319641 1.004358255423225 0.7340656362764068 0.2578739337674914
Ni 2.167515515724521 2.640941540354924 11.993433669338774 -1.253501494185938 -0.5768833013937226 -0.9975306909784305
Ni 7.55397979623389 9.2171292546945 7.3345898683377975 0.3355718999706027 0.9532282695166292 -0.7313240689755276
Ni 2.735743430228979 6.48315462010545 0.6769375388918327 0.5251673610766697 0.22816252274598767 0.7113183152775621
Ni 9.22729751444655 0.5556676133189367 2.7681299857889616 -2.4420358394718713 -1.4646199169654452 -2.6407625734552456
Ni 4.998709085538524 5.403541030038309 13.53620223040153 0.28923342191537926 0.32218982223674186 0.2868685212276285
Ni 9.34164876346138 4.431351677788794 6.92788911252839 -0.7837771445689211 -0.8144102960737457 0.7205179794989591
Ni 3.912149962853863 3.271901505460813 2.8422304841787476 -0.5702709382835276 -0.225705833675379 1.236893967536244
Ni 6.291624612644749 4.700727214826649 3.237681329289805 1.2043581996920678 -1.3916774631694482 1.0065745463482536
P 0.5098298762563588 0.52951721997847 0.49510812532026566 -0.4729559691804371 0.5799025478360206 -0.17724439573988185
P 1.6151697191387897 3.785343058678281 4.332098164542418 1.0140777967038341 0.8092048406134064 -0.6014548200854997
P 7.531855959669553 7.36658932621323 8.309813029234643 -0.7533183138584316 -1.7407232292567698 1.1424007841526647
P 5.474691066172173 3.911825837998379 7.040983683174959 -0.49132675837814094 -1.6171930352108923 0.8066944154867269
P 4.146723751122869 -0.48067160425699873 7.68722382003939 -0.6873090968471582 -0.4654714878779338 0.5160090916161694
P 0.5333474496992778 8.856943193860127 6.609492932347104 0.45694108180941945 0.5020333461623676 0.2040183213996164
P 7.568769150354127 5.807169082217725 5.071359356717771 -0.07879711280456107 -0.2103787164000054 -0.07716806184157032
P 3.607055866741649 7.86717701373321 12.618557534903916 -0.21370186723596746 1.1113505997150794 2.86714280748983
Ni 0.174623654998645 8.056549275727404 8.680297925834276 1.3086876524397786 1.5820774224546819 -0.675857660477107
Ni 4.9141217589672985 0.6255424496642239 6.052016702334565 1.4601073738070725 -1.010696281826111 -0.24963714767999587
Ni 4.019074122323028 7.4038173810431305 10.72952453858534 1.8185410088671972 -1.0722065825257663 -1.351717120726427
Ni 2.4402989941000373 8.62813882801874 9.428491072955758 0.6012686722166225 -0.06579710100046733 -0.8585754206267343
Ni 1.6002784972068294 1.5901102374547815 3.5202135572472706 4.2571372265299 1.2141687580245863 3.090599440119716
Ni 5.718858950163511 1.689468396725929 8.250053666593512 1.3768640523056996 -0.408015045532678 0.22536336273429575
Ni 3.9188547170073083 7.479727422197534 5.869919654239469 0.41808605661543485 0.7243779766749976 -1.2411859100433786
Ni 3.6529334248579004 2.3276702371743503 7.5479566303479775 -0.14019685606828114 0.35736585591724257 0.9153916582848299
Ni 8.578316207375737 7.89268100950474 12.024052355329845 -0.585933584521449 0.588258890220516 0.3203196017972225
Ni 7.677406541202281 1.1004501879196977 12.82030858816456 -0.8320161820809671 -0.44462061257085367 -0.5926603617223212
Ni -0.1516246813245007 5.701532161460341 11.57507645765514 0.191698880602315 -0.9299109349469274 -1.8734186347416832
Ni 1.2683561237706784 2.3788078786596034 1.5157282134762322 0.5837368339804464 0.5786900155851582 -1.5196376679622214
Ni 4.554769162047027 8.116790195296684 1.3002064842125889 1.4084989056021613 -2.3831305804952314 -2.7143704287493833
Ni 2.5185242127936136 0.704877101434572 6.057790755117262 0.17785374718910657 0.1636250051842343 -0.3887999060568078
Ni 6.9478385343479365 6.642253620597416 10.54369912858116 1.0343329474084444 1.0311321810829597 -0.05197819283950403
Ni 4.017388673074509 5.914472930803314 7.6038264947233 -0.41360848046005544 -0.8711468295338416 -0.7669469603854598
Ni 1.9620388787678413 8.811825013976724 1.9451325263057844 -0.1838055938971673 -0.8479184551335204 0.0015547460816295806
Ni 2.085947180664379 4.763264790514789 2.448933680250137 -1.7038446110628658 1.6140105237178526 2.115397751655789
Ni 3.71502648645852 7.891967934822675 3.3557637184267675 -0.5854759281587399 -1.1738895987895654 1.855913021757752
Ni 2.106876385618502 7.559573265168532 7.255204282661587 0.3340436362515344 -0.2677222873164809 0.7459083945476057
Ni 4.304905941309324 2.933005817276673 12.50890517022259 2.4654470193069606 0.4850733212692614 -1.5342849855617513
Ni 8.486644437534643 7.7380178891778275 3.6479057853138324 0.15833367487830796 -0.7710098176009237 0.4674689779239369
Ni 7.2001095397263795 3.6550819096142533 8.893542446470388 -0.12222793029468627 -0.39718478768639337 -0.24686318447928451
Ni 8.788691760005307 1.8219891590681898 9.470793070880513 0.47614619398296065 1.2304399843807843 1.218648905283127
P 2.0196404959424648 4.7377237519026325 7.650167088347386 1.334424137973934 0.14345418666331425 0.14219254634207124
P 6.780025205598522 8.020515852507714 0.20490062078493348 -1.2532004180057512 2.5151564707169456 1.3060561283542023
P 1.6403958936056182 6.850638120543298 3.2958682233463312 -0.5631502680783462 0.02487773707828619 -0.5772160021427929
P 7.001124660589541 2.3739182236968697 3.4306217429073707 -1.365161676267107 -0.4132433838111529 -0.16048491689335587
P 8.999817430157568 4.111412663295403 10.054563235240945 -0.2731048917846329 -0.9572654157004803 0.3308847789075785
P 0.8210999399720711 5.573919575501127 -0.09461945388396809 -1.2454719390132423 -0.4345627141142194 2.387980966608997
P 3.855381809593342 1.2592806278171202 4.211182924168523 -1.598879324503369 -0.5536991499677755 1.0885408009094157
P 6.99191951469379 -0.18303886231803093 4.572070946832775 -1.2053089936411114 0.0359638196891187 0.32819977587624766
