# total energy = -340870.8619972734 ev
CRYSTAL
PRIMVEC
9.26592534134125 0.00000000000000 0.00000000000000
0.00000000000000 9.26592534134125 0.00000000000000
0.00000000000000 0.00000000000000 13.56161835114020
PRIMCOORD
 96 1
Ni 2.8768010621731634 6.536294825828163 7.61528216418397 0.10153774893518643 -0.6752768482729725 -0.24310397454716845
Ni 7.381754904601794 3.877094751006715 12.302707091760837 -0.5618950555150065 0.9382816755091261 0.29797877220817715
Ni 5.170052687221631 -0.018147314500440107 4.43463566269292 2.2762361952338215 0.6587150872595494 0.3673970149009995
Ni 0.6070978594230971 2.8140707485821603 8.148077496036182 -0.9250998867115293 1.621747230240478 0.6272332146011843
Ni 0.4803983780421076 3.6178804935904214 2.794683653290217 -1.4342564741822397 -0.7506726487054685 0.4615119890095536
Ni 7.678588818322294 8.629096691066561 8.853946411700734 1.0764980108122686 0.3951153067518744 0.43487818847210913
Ni 7.476156150519835 6.463436855995658 12.85440676420217 0.5673779330064487 0.4630574791198025 -0.33654506251714944
Ni 3.738587701145812 8.81641663487095 7.921382003102551 -0.5764037906541428 -0.042362524126610915 1.8761447754235945
Ni 8.345235072623373 2.349912757634728 5.733661853320058 -0.14231955883823874 1.140040254340288 1.067207329538962
Ni 6.8032924604108445 4.4230523296027995 5.9663255286737735 1.647708687301246 -0.204589363411738 -1.1887336057809335
Ni 0.51542728166093 1.0960199620549187 4.562359028808297 0.5013658877816979 -0.9942540771096877 -0.8376060174639188
Ni 8.05574903758495 8.719976885409332 11.948789519265043 -0.49205052391804294 0.38694845467036587 1.3282205802663836
Ni 3.809842665919049 7.674372822357167 3.290781288395432 -0.41240494707025743 0.33187439651435746 -0.4683922610691546
Ni 8.195923953981508 2.5618059350644264 0.9242380482151896 -0.9245342440160466 1.2130269311106592 0.2833754204727055
Ni 5.738776644029398 5.290935947355786 0.48214129857186644 0.004886124447707713 -0.2869497680875252 0.07359242867517003
Ni 9.01126977586138 7.989673724997441 4.30194854044893 0.22721250012789257 -0.3716334215798503 -0.5139077290024504
Ni 5.4363368455640595 3.861694783327506 7.621819274411216 -0.6752087140391984 0.34602214876964926 0.7809533019668808
Ni 9.10408654857055 5.559230811466198 8.72573473132742 -1.4159767020364453 -2.479308093559769 0.4436171110070037
Ni 3.3494466406020376 1.028378708108933 9.853682291837362 0.025174956603730838 1.1382011442490205 0.11935240851910413
Ni 6.743101010324115 0.668540209411567 0.35036872314492806 -1.2639566280809909 -0.3465183716797774 -0.4640663800002911
Ni 8.270505385900856 3.1396938918930952 10.202270104159219 1.530939466128286 0.30581935129851845 -0.6506299962585698
Ni 7.056956428633488 1.5380879873301279 11.660971350762276 -0.6223961982238572 1.566473654479154 1.1503516635686253
Ni 5.016006680803548 5.05938047665576 4.129187218315765 -0.762472469553874 -0.882354525324203 -0.945531929313636
Ni 1.2924019807030307 2.397558145003256 0.741835530913421 1.2178078974390705 2.535919928516542 -0.9620602659859624
P 5.781270176987794 8.942516610891625 11.882432522551511 1.0914656878656943 0.877235716040399 1.0491167905858383
P 6.792497657555081 2.396020001420375 4.288997556799575 1.1264943973350534 0.431193026311038 -0.7639878777571357
P 5.015321002338889 6.353218675764494 2.257155286846826 2.205477379352705 -1.2961154722017227 -0.4533808752619869
P 0.727009124003973 1.1852693535628274 2.4184843104706006 0.27894566683612604 0.3355063368399899 1.112039141141672
P 1.8343196159127524 4.642645490872103 8.091444161225516 0.5789867208899706 -0.24378788798807047 0.7575588343023405
P 6.122515670182692 2.9430987569654277 0.3266572205630408 0.6369758958102448 -0.4434643874792233 0.24737817644249008
P 4.971502442077168 5.102893261385946 11.75351570527062 0.6280017173360926 0.5498944315097045 0.13634611486362325
P 1.7792429565353636 4.78904710900177 0.2389422662679342 0.38489620012702747 -0.5690247245812523 -0.3575232074307133
Ni 8.77926027482665 5.011633164110053 0.6419256924651211 -0.18391383734025746 -0.5549361076986701 -0.17014789390441662
Ni 3.188386328809007 6.296010853591547 1.1219117368359142 0.9572013952317644 0.46997040418955194 -1.0190878483239159
Ni 6.540223578112149 3.7877156365460336 2.5062140902460244 0.2994568994156004 0.2982451384956864 -0.3766632706942739
Ni 0.8096908277314823 7.393930330312071 12.870260762216086 -1.8923165000874507 -0.15479043761173986 0.050691098596964315
Ni 1.5365776415228407 8.326202862266516 1.7818207369254695 0.5330231096756627 -0.1833235120544262 0.6399632605733431
Ni 0.7016714515498226 7.414741598306961 7.959408433522952 0.3536866072934425 1.1455861238591818 0.4271404535082192
Ni -0.016189424506085758 1.9303238668900615 12.37010835824419 0.6969291364354255 1.1590857010075133 -1.6288699573281884
Ni 0.6716924771639539 5.544340469672883 6.36351775162216 0.3450690408277606 0.443065866489224 0.5674296121799904
Ni 4.2418756942047375 7.758275775025784 5.863596069187697 -1.563055115715908 0.07724956581178309 0.1861260145002278
Ni 8.142756075194924 5.581608020819562 2.9039492964110183 -0.9596573129714245 1.3886253066066858 -0.684883261014485
Ni 4.769996366794518 7.301280344256467 13.002269618735575 0.9374612364903596 -0.12215413963395737 0.5038043220198614
Ni 0.9720882125305957 0.46902908782406316 8.651186656738785 0.035678170127899846 0.14811739646693844 0.6004382058955271
Ni 1.4591515705676823 0.2469461724540359 11.268294413162913 0.5851121170614181 0.023371584846404912 0.3352957634910806
Ni 1.3265191172823623 3.3704339611756886 5.149523103352765 0.6743623068785032 -0.07562848526859234 -0.021127011786602326
Ni 6.572580188903845 5.488226026673309 9.024077137670165 0.4116117617450008 -0.09716867333321329 -0.08589181486781336
Ni 6.211681668363818 6.631057442828929 5.3285361452170745 -0.1850070704044362 -1.3043615142605987 -0.9817569730839415
Ni 5.948019766852447 0.8075300139752901 9.917190943145004 -1.1455789247703303 -1.2563754732996235 -1.302793912663163
Ni 6.4008362653574284 7.2798853229741 10.577736512295667 -0.4001770375454979 0.05308916651549567 0.26255822661703815
Ni 0.08697460687177998 7.756969279572854 10.438051763342088 0.7624411020953061 -1.4125671621342641 -1.450187286479883
Ni 3.9326903021951964 8.29114986724218 11.02765648258373 -1.0356071861351779 0.1343329410883364 -0.945067588082708
Ni 2.9998618147288667 4.228949728553416 11.70709434662076 0.009595871218551216 -1.3924634494058534 0.41033778012858363
Ni 5.872882379421213 9.238183018037166 7.287565848370789 1.2127795909865435 0.7250801449483448 -1.4626267977948164
Ni 2.757993369283379 6.440383234102835 12.069677412361797 0.3928015710170332 0.1856922693969189 0.45673436511525217
Ni 1.5555357244781127 2.949798020883639 10.339377999315213 -0.4152843255005816 -1.0023597369359576 0.27298122172257505
P 8.242781737708201 5.890524700998358 10.801543816345058 -0.2259140930314432 -0.5525113003072614 0.37762254928374966
P 4.489943043607741 9.405562690815286 1.9957412987885077 2.660837746938566 -1.8914400110197682 0.6531463349225203
P 9.011084457357418 4.930565584552049 4.6059459409400665 0.37289120524635133 -1.201903310393672 0.27038672152252147
P 5.848058965815557 7.4859780312298 8.312404046461536 -0.20690232781563078 -1.798873355234941 1.931181038363132
P 3.5628316319886264 3.2178983005648925 4.264314985256928 -0.8188858153465961 -0.20073990775866074 -0.046116334742088316
P 7.711695969055035 3.827994613382088 7.998370722388359 -0.30927877060202863 0.6121295261905264 -0.13168933281790227
P 1.3994604804416495 1.7138162587117192 6.629787084484272 0.3065958244532268 -2.0310344576173605 -1.1497466829947747
P 4.3757961110925905 5.628688186751008 6.176801946140685 0.9115082640700238 -0.459573377225944 0.16659488644583567
Ni 4.096585987098839 3.471858778393875 0.3766811709299165 -1.3292014561224141 -0.08801374630682261 0.41788062547284804
Ni 1.6372704506503784 5.5390681582351755 10.23465451272651 1.0075250831869809 0.7831611082514771 -2.48828895690214
Ni 5.911132118638889 1.98791159199613 6.18788121290003 -0.13478905478914852 0.43191267808588196 -0.2734640748962645
Ni 4.159510885119002 0.7567879544055632 13.254990315773055 0.0688932234272878 -1.502198903660484 0.49034176875705227
Ni 7.672806880998692 1.6907626368188955 7.97983238584456 0.013859017370279359 -0.5593440069583786 0.8057780743200444
Ni 6.8429969498846175 7.985726440863059 2.5314655895958325 -0.19867608325109654 -1.4302776920401499 -0.12193379609303516
Ni 9.247689857290396 0.5379221682643094 0.5651000534627985 -0.9213959554973811 -3.3277348557882753 -0.2127706136709497
Ni 0.6448222206820411 4.666588641583942 11.958309330813549 -2.07995200925367 -0.5342492687732798 1.3520518783580264
Ni 2.282438290342308 5.47113966060805 4.35176030112877 0.3923261740425114 0.8514460086708047 -0.08778466101515205
Ni 7.750362674906623 6.892662308946328 7.180090381998256 -0.4396041331928687 -0.07011141210510506 -0.565850954838961
Ni 3.437093027050678 3.7092054523426996 6.530068124095053 -1.4747631760470343 0.7235220564326056 -0.34645023744600334
Ni 3.616110701877588 3.649282714086715 9.289084451520301 -0.3674551218324446 -0.5257666852235655 -0.2034367378645335
Ni 6.046766731688386 3.2033507980039064 9.778292871240742 -1.0508803102441642 -0.10693809401515131 0.7546768847688551
Ni 8.868361411531389 9.069543179432106 6.5485388193849055 -0.9268577499429006 0.824690080733199 0.33919124189074484
Ni 1.9456589730928842 8.735052545706608 6.495526608141649 0.12612880801098925 0.6033139847814254 -1.8440347822629275
Ni 7.434691135258427 0.9196829193878134 2.5602575989638274 0.6872664165346809 1.3079798277394763 1.3968821472988395
Ni 2.886456156229563 0.6871702786148272 3.957660117418983 -0.3672985416499223 -0.4998617924323456 -0.1055170452979086
Ni 1.238594753077779 5.752063980763445 2.080623659750561 -1.5742337580405468 1.7254526762509446 1.2623599730178325
Ni 3.598709294355593 1.4232739082007158 6.072173898581522 -0.20367585045853312 -0.6501229747151642 0.4570341557438581
Ni 2.6998589545906237 3.9615536591872162 2.283287975682972 1.2981849531362415 -0.22431101021038144 0.6743697630776708
Ni 3.1417694591374654 1.5725850268425805 1.8214612915153765 -1.6551432892024203 1.4851607172312744 -0.46312381358136373
Ni 4.676456851919897 2.5848873547328446 11.840078905063606 1.115584692401085 -0.07011835408364053 -1.3974621881720255
Ni 4.135715989210333 5.948761040868293 9.764026126213258 0.5792512874052669 0.5571408286594728 0.5162687730354593
Ni 5.113159906505418 1.9745315960101022 3.140179426373475 -1.1787047607900216 0.1970902268212154 -0.2663783716940767
P 2.5103985820654775 1.9386817314187297 12.372792696774075 -0.452955100578478 0.836548779843998 -0.697335884955541
P 7.1483740466377474 8.39221331337764 5.415995359976715 0.5092275499179617 1.930207104485637 -0.5339265953265385
P 2.1782151637143015 7.689198302674096 9.681395385074339 0.9105279024346254 0.5651287319609558 -0.33982784703347924
P 2.5957840827657863 8.347940722781212 13.30771713652021 1.7267878501226004 -0.009944769917537712 0.06235619363971842
P 8.74392930204637 0.9382583196324048 10.356492163156068 0.21849286086670758 -0.04817270305048478 -0.7311973135896762
P 8.837385423594206 7.535930633972651 1.078941935322337 -1.8420882000595176 -0.5494447455667957 1.0608420494425665
P 2.0056373069000575 7.899219763213782 4.400216456952132 -0.9981125316238293 -0.3839582616937904 0.5168166751191292
P 4.749463076555571 1.6931717773703965 8.300741026414713 -0.47474828519416945 0.9376178166728819 -0.512627062517814
