# total energy = -381167.1692654048 ev
CRYSTAL
PRIMVEC
9.28846882908170 0.00000000000000 0.00000000000000

0.00000000000000 9.28846882908170 0.00000000000000

0.00000000000000 0.00000000000000 13.59461302418386

PRIMCOORD
 96 1
Ni 4.921875955370922 3.88725200645151 9.236533132576438 0.43299871206120916 -0.5854695004008369 -1.2143950151027796
Ni 6.121203030859077 5.777715459208271 8.506801310263931 -0.46721700981413083 1.3042172753732504 2.3467265879449
Ni 5.594426106818187 0.6574210936672528 11.715089477647169 2.7028282324377386 -0.9022594917782462 -0.013927408714369564
Ni 3.8088108884798753 6.209332021660126 13.283771581202847 -0.12347645798980669 0.43051888306214886 1.428996768445197
Ni 0.9371879125046761 3.623663842354524 11.525893588025804 0.6421638677690876 -1.5147464013081913 -0.9668129501795993
Ni 4.41605381666384 8.499589743183625 5.088789737484632 1.4842631451176695 -4.324787578689023 0.15113381469575907
Ni 8.825837916971155 2.736113506456173 8.423766115684982 1.6297685578830579 -0.18006489590781247 -1.531667345433246
Ni 0.9734593826857575 5.834068598667586 7.941483743144331 -0.3562191439073091 -1.1124862559814197 0.21543941875236444
Ni 1.9618267575970303 6.045111895462554 2.7978530289008927 0.8799860250920265 0.8917693908801997 0.878347718157655
Ni 7.702982804095254 3.5900767396209026 12.184919729080326 -1.8426332739297107 -0.33621313309902745 -1.2638003050087847
Ni 1.4152932606815796 7.0940400861435196 0.9313733311132915 -0.7691917905555785 1.1233476241759557 -1.0014799054341654
Ni 1.8990459978136933 7.621365029836313 8.991436451920297 -0.39635175026213676 0.6347236094409585 -0.20188867665112326
Ni 9.1762175323798 7.397029934365512 3.4529910169675024 0.6265562431388177 -0.12543898103281623 -1.3035752709138775
Ni 0.2814378143522957 6.479189902113637 5.842774680357913 0.2731303457059296 -0.7786323671431881 -1.4144093575493255
Ni 2.034927006079773 0.3539278104430036 0.1152476039484729 -0.5024357238071088 -1.7396191975593136 1.0003087679441998
Ni -0.02311714084165829 4.007760599058258 -0.1351323576907672 1.6865022631296762 1.0137204133644155 3.1947586858381496
Ni 2.683113504189015 0.32411647022631196 10.118130488900126 -1.070924116268917 -1.175914342529078 1.4905296948526716
Ni 4.341578874817 0.5954261383339339 1.4681502205311217 -0.15628142033496958 -0.10567311125979864 -0.9079693976788298
Ni 7.20575249891378 7.643378700599222 4.542259027109783 -0.23294194641250204 -0.08938183029894284 1.8152204291343963
Ni 0.1616026357245818 6.438227755251008 12.641562212686825 -0.9982662835928744 -1.670484033324549 1.034325748319593
Ni 6.916974007766578 6.253693748058294 2.550172296258995 -0.4704496578188156 -0.08897379622724676 0.21786576880566993
Ni 7.223967185988069 5.837412447391065 13.499940255013417 0.5690447791859102 1.7550748699927516 -0.1486264748928731
Ni 7.840052736351904 1.1604826994837283 6.7774853582666115 0.720339802049882 -0.6351624967505899 -0.42570654927517004
Ni 9.46968670020855 2.928979270051557 5.223240321574555 -1.5824306920290423 0.037068108496891 1.4223291266170344
P 7.886169983329899 9.242500044854115 10.89184042385447 0.3366157678540848 0.5923795972571089 0.024371229755512865
Ni 3.2907372595887097 5.618223163566952 8.266082284894946 1.4526012952380145 0.8576909611392519 -0.7556988982754663
P 8.925707532179091 0.3478940211908575 4.173246743536415 -0.9340558103532365 0.5466831236612585 -0.24653922548096252
Ni 4.641856490185503 8.530167382066114 8.382900568896586 -0.28919485536795997 -0.4512309187985197 0.6829117391104109
P 5.367601701742128 4.871996878579012 12.936307616111705 1.2014695652903629 -0.04123766649354833 0.3675530808628896
P 0.3224863439736154 5.310013195948861 10.459885761142797 -0.6716554494703013 1.8694401097099094 -0.6020137779127632
P 6.927637169807009 8.215260428532387 7.356969697811354 0.9312638494303962 0.5852653548098308 0.5218082147964498
Ni 7.520380798387218 0.4707238021198213 1.89020894871503 0.7736092028969838 -0.8763206604252972 -0.1789312965240015
Ni 3.863575699795536 1.862077892481887 11.967106996314046 -2.2912786913892407 -0.43250043226855195 0.1949117311126579
Ni 2.1814990417923124 2.508648197041447 0.2086255083985191 0.058141127117106325 0.7740810003270797 0.6012524742667065
Ni 0.18701217063555917 0.2198496939470002 9.19736737555581 -0.5037654983621259 1.0783054963346526 0.1682203378644006
Ni 5.955589634360054 8.052628630478468 0.751011704049987 -0.04980843888169486 -0.17017077672255207 -0.08989373693835487
Ni 9.161541751871193 1.5995207484079739 -0.0734355622019586 -0.6266282340273337 0.49459745870961264 -0.3796933157698493
Ni 1.7147813562125935 3.6407546247189773 7.157523054158787 -0.20804621161208686 0.6919270552351439 -0.33596245054080204
Ni 4.38765896792029 6.571554434631096 2.795854150441746 -0.5800928094699557 0.9365662354799161 0.1715100643592659
Ni 5.181535097217819 4.716507912937193 6.780611856823064 -1.7886879300615064 -1.710487313190364 0.8664301407844627
Ni -0.3152060422251054 5.046768705192899 1.9384690454166549 1.2536884133857635 0.43715027233573744 0.7287938463545062
Ni 1.0316144850682802 1.3984811323774162 6.66061227229978 0.1744110400561448 -1.3561607583200774 1.2794819774100996
Ni 8.4448899511487 6.85004130248492 8.99306750701986 -0.7728345295144883 0.5182048137159075 -0.27517462982946805
Ni 5.716040027197419 8.60979742402832 3.152808143979499 -0.1193917463974718 -0.4528617695337233 -1.577520913432251
Ni 3.269977532097105 4.120225377791302 5.376777779947478 0.7761797918376375 0.3586339239963888 0.7463233705978373
Ni 1.2917752042236994 8.617655468528499 5.021142748961763 0.16696075442568664 0.3403502951958525 -0.11214612057865202
Ni 7.720705202329698 4.446826513388532 9.53417375168773 0.609189469725596 -0.7552029324756542 -0.11578166044871027
Ni 8.16446179334152 2.695680802308094 3.3978778880764793 0.3571437126041075 -0.5170982109152901 -0.913100548257808
Ni 4.598692976246582 5.477697920962706 10.80309467873331 0.06784884132317347 2.4084325495951298 0.1759788987638969
Ni 2.8475008228227616 4.181111289964666 9.889985263578295 -2.216693045562866 -0.5732942984908836 0.8920892361134636
Ni 8.599533666140971 8.66221225276887 13.069643583960469 -0.34833434184259365 -0.3437732048344725 0.1811624998473654
Ni 3.025087055445578 8.30811724988969 12.209267592021599 0.3970953132963806 -0.5134271898216061 -0.8811900727024566
Ni 3.9336014651464133 2.5711131488897885 7.481863376480199 0.0867832163338312 0.33185022814464143 -0.8863014257870928
Ni 0.7039405313389328 0.5510662696295013 2.209151741888624 -0.23987184076311593 0.5442616587039594 0.5699876027151538
Ni 2.188892662858674 4.67499774642266 0.8769001777140673 -0.3174829036793758 1.0858611971947234 0.01881096205891599
Ni 2.673249150454749 8.466727141006759 2.9294762031257413 -0.37589528217999774 -0.24839556196341092 0.1191318078678658
P 3.474453881537906 7.865661044492555 1.042943630312804 0.6510992225855045 0.7370013218659629 -0.5852869520763856
Ni 2.769700609189794 7.510219213655309 6.676912605979877 -0.34437098631947144 -0.2175058143630899 -0.1338410890535824
P 5.062995659970454 4.620576608448023 2.799225864571255 1.548200824311895 -2.2370399846503344 0.13907045577332178
Ni 6.0583200979203 2.2005311141101194 2.4381942332845914 -0.7170724441525198 -0.02879764095798266 0.6311451480610807
P 3.026294556373501 6.306173596079578 4.7998496269824615 0.0843111006442548 0.11656558980258634 -0.20754870315037807
P 8.90831023034832 4.365273758410327 6.847619798701 0.44523227801292353 -0.07274550729384245 0.06336715140273604
P 1.6607596223910392 1.4057911572256905 11.81498324287366 0.0800672377662363 0.2083210625400283 0.13426917772993652
Ni 0.3322262322276185 7.788854697007955 10.906658317933823 0.15990101936542783 0.6606236171361719 -0.33356104018816096
Ni 5.226602747235389 7.088940716840213 6.727049902200988 0.10255950533148143 -0.47770222561617093 -0.8866071299529699
Ni 8.182332807074784 4.916535085882031 4.370640635611512 0.677029312187705 1.4556791628323897 -1.060021353313484
Ni 2.0891530862122067 2.045915264523875 4.33729317536974 -0.43944781012066253 0.47899600472692994 -1.387081873378966
Ni 5.4999530919112 3.4993284006531264 11.373348138107513 0.8901336550489897 -2.2926228641219613 -0.04957678248686301
Ni 5.262660582636914 7.537192926691381 11.973509537772642 0.622889850030824 -0.057136082891359664 -0.04259957983808148
Ni 5.119209472399622 2.849451401244792 4.638781078206769 -0.12166537292299692 0.3903340833131471 -0.20704862358550793
Ni 2.110061429202633 2.248793997352347 8.967210267918684 -1.0893265300355046 -0.7771912638212873 0.019018707194347888
Ni 6.958558482030522 4.067504029584434 1.2017021369286927 -0.7031290945985503 -1.222657512221888 0.7715932009082195
Ni 7.665280909738017 2.1906203180324715 10.238279617769102 -0.421873548682325 -1.0087859521772755 1.4886980409605717
Ni 1.3862017767873036 4.547114109686903 4.252748604630887 -0.9597239045433018 -0.22873870696443188 -0.13300265231268704
Ni 3.231634733401201 4.0330345223265605 12.316732388066173 0.6811027109261302 -0.09310041680111063 0.5725934157691172
Ni 7.289088639877843 5.975113995517707 11.056362425284023 -0.2614487956029433 0.8438247446801209 1.1098187364515855
Ni 4.545553646949279 1.3770897890158207 9.524522103886152 0.3068012555958135 1.9072461248140897 0.10593202134814014
Ni 5.793106451804956 5.498318321424166 4.8446989979861375 -0.9044809249095972 0.3930820783719295 -2.8361381315781995
Ni 3.6344384660190707 2.8539655970214897 2.452604363589055 0.4409416210573696 0.48063996808825604 0.24609905261975037
Ni 6.382218289132718 8.01829845025074 9.99482699606867 0.05863529314470547 -0.667156018938051 -0.23649109721634107
Ni 4.998589418168759 2.896553225902478 0.4520809166395527 -1.358573738636944 0.5959210347514641 -1.394859717552172
Ni 0.21251180369269693 8.279620227990701 7.199802305879721 -0.5925624026918763 0.481113822400881 0.22103876721701288
Ni 6.4655451416281045 2.978263884848182 7.91361462172786 0.1657086271861404 -0.8310964984801752 0.14916409256389795
Ni 7.302259688460882 5.836706523771664 6.607974520310998 1.6057469981574797 1.4955739421447987 -0.1411147398968602
Ni 7.04342722032618 3.644535031470245 5.800399757409612 0.4090450294590891 -2.177661128471385 -0.08383724633162981
Ni 2.2138600666606574 5.9791266139858825 11.712098590733389 -1.1396569028589403 0.6378066192416564 -2.0223073621570076
Ni 4.069436031069111 0.8040005601547331 3.811141365270767 0.5662111663918571 3.1780434299659976 -1.8145146613166234
Ni 3.1398925282850576 0.7245544298723192 5.825970911675558 -0.7641496001459808 1.2022586368505617 2.0867242949804967
P 2.870452628921981 0.2896571802839831 7.897096937880737 -1.3692875255100223 1.1346987875227168 0.11771101626093922
Ni 5.512288178313371 0.9331009862870895 6.523021256950387 -0.3593952276424456 -0.13038398374291738 0.28973401570088164
P 6.625511149171916 1.5414678191808908 0.2411546545499059 0.5874657048952592 -0.2889079202551605 -0.6049679754450807
Ni 6.726151707279987 0.9166120966928626 4.486739063290736 1.109290117641625 0.29364877737425554 0.049717936050417605
P 8.238425869411163 7.581266710560582 1.3814302904282711 0.08250155823934177 -0.4836851826724831 -0.5678433026786414
P 1.5244977869092298 3.2080048690886094 2.3643341880641247 -1.2711099512963207 -0.03756947361334175 0.10322722082246738
P 3.6521051334414567 7.390945987382513 10.128666398919693 0.9780391579127221 -0.22251792286570066 1.331182748218501
Ni 6.548426147627026 0.7810255328838226 8.82153085404594 1.5763130091670787 -0.9730291062926404 -0.664360715581101
