# total energy = -381165.6955843392 ev
CRYSTAL
PRIMVEC
9.27578025653420 0.00000000000000 0.00000000000000

0.00000000000000 9.27578025653420 0.00000000000000

0.00000000000000 0.00000000000000 13.57604201567525

PRIMCOORD
 96 1
Ni 3.4513971771317506 6.809786107549426 9.554329885434273 0.26902635083988513 1.4377606306807562 0.15393991668598647
Ni 2.3434052483398617 9.042735366872511 6.3939352632429785 0.05888751836482761 -0.6856088263265998 0.3375022842240961
Ni 3.1749511038476594 8.524979875191427 13.516931998365042 0.040946617615690774 -2.069853487367087 0.8786143415554803
Ni 1.0492855167590396 3.865950339807072 1.5230144459385109 -0.14432450508340952 -0.967907983015991 2.2882543027406204
Ni 1.5045593539207265 1.661960065847638 8.48898984853833 0.3832134131079658 -0.9767577200971373 0.33595705122416336
Ni 5.662613283762 2.678854558618889 9.369857809386982 0.3736633075256855 -1.0883844778372096 -0.6007346540900235
Ni 2.183444421114946 6.750337633111358 7.291949503542212 0.7576691346279596 -0.09812615215047617 -1.025712295618969
Ni 5.867023649059504 0.8880539076651877 3.212620974270571 -1.1413134646257568 -1.0938591277985354 -0.0180933671666011
Ni 7.007824011942116 2.7786155732204527 0.6875328769490351 -0.506568772138876 -0.09200615529566734 -0.3241171211664418
Ni 1.8158545329098916 4.839860867756041 13.209773817284969 0.4192523090093941 1.6298426056541027 -0.18907327005400987
Ni 8.762718118263306 0.6760364751361874 7.566050659625812 0.8660107938588569 0.08816158473859655 -2.0227614189752905
Ni 3.469735394320713 2.9974590522994573 9.220304407395258 1.4005218009339557 0.426508219240859 -0.7123035620089667
Ni 5.161173889215656 5.239591333887123 8.97408902892176 -1.0893201022776013 -1.875933687854053 -0.15698358860831677
Ni 6.525242278268387 5.880835285576633 7.235392289750477 0.3606087883345725 1.4196587788737227 0.33936684823666075
Ni 2.2269478296208813 2.2794672963502216 10.720851058859763 -2.277757774084671 -0.8665337562418625 2.0073234871536654
Ni 4.354403642262091 7.711122932268025 6.788848816786186 -0.22325094437698323 0.46386094885770435 1.8063634929643988
Ni 8.526519654682255 7.783956357340221 3.2093623927336554 1.1187808307408798 -0.29180941017267165 0.4436371656116618
Ni 1.1458185598979027 0.5807167040298565 3.1713901318806172 -1.3717254455275536 0.1690826858646959 0.4067433779091059
Ni 0.07386396423744405 3.108657103721451 13.159555671589812 0.4426994842887408 -1.103425431330732 -0.756324447674607
Ni 7.164788762205961 5.303891041299306 12.051072126454466 0.702786623657467 0.5097402278883222 0.7847179112156356
Ni 2.999045210690612 0.7881806561248348 1.8789919850799022 1.5082227412570606 1.23800931208761 -1.1444152434795323
Ni 5.061579838655266 2.850827521028279 1.9066597818584745 -0.8766731586687095 0.5553166309665404 1.7800672782720313
Ni 0.09275038002826166 5.733433864560041 7.506450989972682 -0.7903391140571551 -2.6657513821900993 -1.1513896179148362
Ni 2.483896213207856 1.1258478054174594 12.771484861000726 0.004051030140922056 1.7967588799950989 0.2875526917788467
P 2.857821459197464 3.1747377609061593 3.2017599633921914 -0.9987190548595768 0.02223052926342623 -1.7811198879062615
Ni 5.447081258166284 7.394039666518156 13.483669978629129 0.2307336259072736 0.023115502971540833 -0.23039346895903545
P 8.53596239878866 1.3377993799079966 0.6384732761840263 2.239105351819795 -0.5202758373123234 -0.9895546147514893
Ni 0.6746358323463374 3.0976467527840215 4.065604085087125 0.5613440681075429 -0.6111957015223475 0.0511613533651635
P 3.5387750253462302 5.872422153057468 1.2142914407614342 -1.4650503196346445 0.3957280006352088 -2.259263571935225
P 7.574741137968928 2.151146154927811 8.392247172769991 -0.2231874381288995 0.5221576277160684 0.25178941813630823
P 4.980398211524362 8.90932182219429 1.4792179227825144 -0.7539562045527467 -0.48978846735674353 0.5859276709841781
Ni 2.1685753456703805 4.001014973336906 7.769636408075518 1.4906430805020845 0.8738416027571854 -1.1083287821696202
Ni 2.474759569843603 7.807396253565062 2.4903215460590418 0.9914019523728732 -1.0472378283955706 -1.038308901337057
Ni 8.032704951349531 4.788445218854464 0.6835526397230444 1.6326127122000722 1.3746179365840003 -0.1979456328429752
Ni 2.696432161842503 3.5833265969995365 5.492717168509215 0.9237032634743189 1.5963192770856764 -0.9072960257608891
Ni 3.310535181061147 9.347945634138885 4.139036725551536 -1.5055493081899554 -1.6379228115590758 -0.22847722577292906
Ni 0.20821343512424892 5.009153129726579 11.538589915740465 -0.4107100758663379 -0.2656795458548392 -0.6060452676696595
Ni 5.7246868039585275 4.990082125912464 0.6353046697137433 -1.1072854285067704 0.40098333549687715 -0.9030763312525867
Ni 5.334130084311961 7.765748001072173 3.7978837381103974 0.06475169045508848 -0.1962610460517007 -1.2819008712642375
Ni 4.710037049963062 5.459455148773301 2.806344590147456 0.979466634387868 -0.1670126907095446 0.6094239543339053
Ni 4.2382616000653295 0.5871188474308793 9.303579578086884 -0.39356570287656734 -0.5965859220289725 -0.2623931617940836
Ni 4.201408925866165 2.0965489134638586 4.3570268328645385 1.0156338283370443 0.6169495732869891 1.1070830826879774
Ni 4.4705642360189835 1.8006422536029123 11.561465844537338 0.4163639317180055 0.5962995011368052 -0.7548190667736743
Ni 7.650264539260042 0.16058323206729228 4.514536071418213 0.05010385863492662 0.11657021778827664 0.313852248905324
Ni 5.3161165194252815 5.240407602532863 4.949471833208873 0.7654066124815335 -1.4970569544482282 0.9926129419618389
Ni 6.941604218056429 6.805741867440985 1.8479709938077489 -0.8087692957378845 -1.1881962452202246 0.9925741183041036
Ni 5.974836040757688 3.737582819484335 6.703034865090705 -0.9020759150125303 -0.530172527600745 0.5462527209920592
Ni 0.5797446022790202 6.1921582919059945 1.5706390835274284 0.11964474294854234 1.0369724419138207 -0.5349262402356465
Ni 7.799177912427266 6.677161004176748 9.842929085759828 -0.32845431508921497 -1.0502033387817977 1.5215518542657989
Ni 0.6453419913223302 7.249124154559045 10.760194280006441 0.8004816018077956 -0.5025910184380505 1.3830141310674957
Ni 0.5549059184203436 8.709632828949989 1.1783283138705256 0.1362952070210298 1.200469920381255 0.33348005043858053
Ni 8.066236896285343 7.577950557871499 13.59884919485512 -0.304030891939528 -0.777474856499977 -2.087636265271805
Ni 2.648763928087279 4.592410882955863 10.706555226623228 0.10476422629228407 -0.25150865367109587 0.9334454304627472
Ni 6.505642554990555 0.3394416060191034 7.325360863337176 -1.6171673241792797 0.7551373693450414 1.0916217538275845
Ni 5.22784819632454 1.3613505854936192 0.18253900348169497 -1.6238164540646807 -0.7591673164400409 -0.13742340708820203
Ni 0.203365912462159 3.2218308962973388 7.051369161458346 -1.364653626282437 -1.1059435697668953 -1.1254052780359327
P 4.903557649463985 9.421224296654213 5.425746964016252 1.3390595798634166 0.5613180999656139 1.0539442938814687
Ni 7.155531533700861 9.228362277537922 1.384661548375552 -0.33801830462856625 -0.3042296382138954 1.183360257284162
P 1.374976706409444 7.301773482209299 4.149001696075613 -0.7032458226820727 0.47018920506857736 0.5249336477993088
Ni 5.700115262565729 7.57724559858654 8.804267119909499 0.6363089516502073 1.0866104166559223 0.34388993291799486
P 2.1195435722455676 1.847531321832657 6.391545822298175 -0.2127004225546466 0.5145389348285462 0.7045295744905028
P 5.575189056647194 3.943208311970384 11.049187700984772 -0.2561754630191459 0.7621382261429067 0.021808354124343083
P 6.808097915577554 7.916006362348856 11.381434084407276 0.16497354879232878 0.7866500952413419 0.449736079420548
Ni 2.1633716330537855 9.079281940329524 10.635946133610675 0.498833094057515 0.39070689327153363 -0.020293974362345694
Ni 0.48253720992941496 0.8946350736214693 5.387638349196255 -0.595451294203897 0.43571945342648183 -0.2633902356000303
Ni 1.1090308161591949 5.501363123108018 5.334013209483139 -0.10967709021286919 -0.21677844927876216 0.6494380328329976
Ni 6.634084281553813 0.7187032082802387 10.358357284222548 -0.16368902565295035 -0.6256453012887742 -1.4780292483928157
Ni 3.4234956306955344 6.419758107366577 11.942463872826686 -1.57369562614889 0.34361199666625986 1.057615572085469
Ni 8.940043205770335 1.6755676352033322 10.527487220041943 -0.08284120096694765 1.3959308391291636 -0.6120428800139912
Ni 4.290697584774082 1.9866494712509972 7.176051414361166 -0.2045060596693123 -0.6455325271310044 -0.9813263133044261
Ni 8.34207076808513 7.474581264824559 7.8968444558901005 -2.4271442670720202 2.5269606624407253 -1.1142580031698617
Ni 0.24596585998974066 4.0057920000705 9.292230661177074 -0.38299384089799204 -2.1542859440805544 1.5385018518565763
Ni 6.353900068903434 3.05149047117943 4.080401737025189 -0.09375090590091596 1.0920603840268999 1.0860974815752455
Ni 7.033490095382612 0.5969428260979658 12.55130845232635 1.053348826389315 -0.7454453388682581 0.6708571219387222
Ni 7.910116242007433 1.9676990525777294 2.7138780489891903 1.6649672172713776 -0.09085970039604997 0.4423716686356768
Ni 4.463366230688364 8.33632906022475 11.391683821379356 0.8764846968069873 2.0939619503795166 -0.69950563891335
Ni 0.3861692756757131 0.350189452380687 12.229963893214512 -0.5859333274111328 -0.6966936233858517 1.046292690873482
Ni 7.386563387785579 2.14531168926678 5.9679599049953325 1.5860065823057587 -0.26567697475167795 0.07719557264539607
Ni 5.515100553384626 6.27921148781819 10.910277329039893 -0.8395783106989412 -0.03518708942409424 0.3403544089609106
Ni 2.3451954738924514 5.295412978319685 3.3556720544365692 -0.17732384282756558 -0.19121114233261907 -1.397705157420767
Ni 6.393349961520863 7.9009981502033115 5.879430932474757 1.4676962418979238 -0.22803191070539436 0.2612137967740017
Ni -0.19853601378219302 8.915017151154341 9.421107421825393 0.9623675128137361 -0.36126673363354556 1.9025142665560588
Ni 7.340991480325097 6.040054050396329 5.116321782288237 2.6199636344320236 -0.34262572149359055 -1.6319200570084216
Ni 1.5773927789929234 5.63213307046765 9.13549502268084 -0.5341921902830994 2.304841774785656 1.7458777768745155
Ni 7.314036063455535 4.281635147650351 8.883048175159521 0.4556341900725379 0.29275763301855384 -0.18064956476668886
Ni -0.0019655377958225305 7.709332706715435 5.837073082806879 0.27458147633015934 0.6669202487781611 -1.0666290884379888
Ni 3.611070455174644 6.525279381388649 5.025443254677138 -2.8145753178057586 0.9051265289133958 -0.3547186481023826
Ni 7.2446532285676035 2.985808672537526 11.998410740290128 -0.050680042853370785 -0.8864045270238604 -1.318144169866988
P 4.236462098732674 5.193138227320444 7.0071107044551 -0.9134283639108721 0.12586861237106708 -0.8130064737476835
Ni 3.1180627447075953 3.1271530091715225 0.6321416287114993 -0.32417599942883524 -0.9732160254924659 0.5263981481599773
P 2.305420928972739 8.492431162942529 8.581497203128881 0.19164797275972156 0.5284576017921673 0.10326115938419635
Ni 4.131506647294581 4.338848159092698 12.600277150446718 0.6643267770193719 -0.5801612008140461 -0.5417766874985767
P 6.637386459257035 4.3625570529394295 2.4754014538241176 -0.5479452782031338 0.4646243093862901 -0.7149569404714139
P 8.596514691054491 4.285827800239836 5.378352365772952 -1.1334070652944868 -0.4699578057840616 -0.1286682866033913
P 0.8951508069930961 7.326966500866468 13.188676983104608 1.1468531634970636 -0.7687534174665792 -1.5532062479462865
Ni 8.5680194946941 4.763465543138796 3.054147982168119 0.4615436135784373 0.6371085647333672 1.112426863498394
