# total energy = -340896.4838345451 ev
CRYSTAL
PRIMVEC
9.02225501889254 0.00000000000000 0.00000000000000
0.00000000000000 9.02225501889254 0.00000000000000
0.00000000000000 0.00000000000000 13.20498220366854
PRIMCOORD
 96 1
Ni 6.470662018926038 1.9385307248834933 11.267415148982382 -0.17946865708471027 -0.20174443776377515 0.08778388968420367
Ni 4.619141920963096 0.4487723755085376 6.063172775478924 -0.5239473726266396 -0.6605084317145464 -0.001265754086301046
Ni 2.7046825723367607 1.454838613743133 4.8441948533595705 -0.16557390138048905 0.5154732737173574 0.1612917290653674
Ni 3.698474934911597 4.403780694854268 4.958681855562561 -0.7727327138293014 0.03686910511220747 -0.13504667932590936
Ni 5.074765796895054 4.4513370007956015 2.7379079284854146 0.511713292454293 0.500562418043796 -0.11504246828984056
Ni 7.315505974218485 6.150931347336401 2.4582920069387204 -0.2777256783860959 -0.6198181530840358 0.4071858647631632
Ni 4.962501878316414 4.493326575421094 11.240740852166681 0.32774674749922905 0.23382923411346182 0.3160543987629653
Ni 5.6550501697329905 7.755304814934906 12.37574864729002 -0.8062465293160308 0.03104221401778525 -0.6027375434526652
Ni 1.866884998175064 6.359282281334356 0.6027127964652473 0.5270522368042085 0.28773112633823994 -1.3340729252821024
Ni 2.8419742261992678 1.4683900407064954 0.46207117933276937 -0.9121371559032743 0.6528282894614692 0.2817497119438245
Ni 0.43121867624094906 8.958070647100554 4.67847226963891 0.6180438347924324 -0.06710964916430377 0.5474392851009926
Ni 8.56237258867236 2.378591210994013 1.4625048237902496 0.5144299200545076 -0.6504315070945185 0.034107226096354165
Ni 6.687475828084868 0.6532590777032911 4.874328282730366 0.3991596520245771 -0.3038974516854573 -1.556092825465462
Ni 0.7930995185945263 7.250969784425588 2.5528659901997415 -0.16118245718101273 0.5471706048206383 0.20052084976931916
Ni 7.374078453476907 3.921072009505523 3.8097689610810757 0.4566338349816458 -0.3677086326041473 -0.24958778249929917
Ni 7.599436338091332 3.733210616542053 12.560908777115788 1.6931619345380389 -0.3104247112810138 0.8293131813275073
Ni 7.943788743491233 8.853520756520366 6.807841731625627 0.34808982993195536 -0.06395567691635437 0.3637164807256188
Ni 6.87489513055486 0.6230029456649182 0.31128132981121676 -0.2977211476714163 0.1991201127670506 -0.5981607227152602
Ni 1.8773508139390456 6.610389681630163 9.370030417884783 0.452735271258188 0.00885693616999765 -1.555922618436185
Ni -0.02747457083144551 4.703012803154452 1.378164784340508 0.6465799945589122 0.5760690330225434 0.1454341932078205
Ni 6.452942310167022 2.017610789686337 6.854732195150252 -0.19139523331896716 0.7312739324638825 1.0809881853731382
Ni 3.5785060105894737 4.204145259156318 0.5700396023206931 -1.179857643447542 0.8163810466468715 0.1719890608782135
Ni 5.950727509575407 5.72608238310353 4.8480509651333 0.08935071995069128 -0.46241958842548747 -0.12007257451458031
Ni 5.438028848709875 3.011682842165211 9.24657709869365 0.9309422044249193 -1.2585087175925422 -0.44795456204009304
P 0.2109249833405959 5.445815054748078 12.507322898178705 0.31313259713048003 0.7736811937854998 -0.11609533503438715
P 3.9432667567291393 6.05731642977858 12.558387056851966 0.9023710776554459 0.43529162186044396 0.8196990552765109
P 2.3111047438262697 8.531778122072652 1.2882769603103594 0.24610342349512454 -0.789403232506447 0.8669700724483327
P 6.307341159478113 7.768296862090193 5.8504677012329545 -1.1180910037627068 -0.33960287550686674 0.33075056732255936
P 4.691374094244508 1.1415768989662318 12.341785270684907 1.0924825591659828 -2.103488401812713 0.9300587733787015
P 3.945423075666718 6.23065199224204 8.112269430555902 -0.07802603896649142 0.9258812449622442 0.2528579686101387
P 4.551772743109949 0.8961002879965463 3.6949391131892657 1.1324241325559272 0.7847042843688808 -0.6608074510122038
P 0.13518946845474175 5.4839070152269835 3.6544923441634642 0.2430574375799492 0.16691036080372545 -0.295221264067698
Ni 1.4191375508309991 1.0906823586863867 2.81188229920133 -0.009471686935861107 0.25941376745078554 -1.8151504951284094
Ni 1.7191185062936065 6.5545689901372715 4.896948880388516 0.3373709008525545 0.6201487969505771 -1.32371472197623
Ni 5.986897729745928 5.626936823249743 9.23471914898796 0.16591020167398524 -0.10084277975069085 -0.015591169570037665
Ni 8.691959236791384 2.3073785525240935 10.12033828338708 0.4440246308580676 0.2107183591276113 -0.15952615252451238
Ni 2.276928442003888 5.396445275557986 6.809202287674944 0.737990939472742 -0.8678313920073635 1.4967034277635514
Ni 0.4948688805958951 0.011037826729013015 8.908027807689777 -0.15206738225362196 0.17743851402855895 0.40887687931234096
Ni 1.3678640758424583 1.0497303433823242 11.650491974934512 0.2181802147222952 -0.4031415194904605 -1.0182589246647173
Ni 4.159115184606291 6.630617577270548 1.7617694122083223 0.11551143750645912 0.4145232789648409 -1.4766904749767342
Ni 5.512327118379175 7.986500098514241 8.047274910210582 -0.5572578138533112 -0.5965643247624177 -0.12638771809933072
Ni 5.31248417081694 2.644955244442314 4.81572512780505 -0.24326672537727786 0.6533044577669395 -0.23788977733608063
Ni 0.762598883446495 7.345306482380926 7.0809471939867255 -0.02873979113685373 0.5251419071553729 -0.2666282829213537
Ni 5.09224190476991 4.70681117249638 6.977802970730699 0.03520251604306195 -0.6101412921159041 0.22097808918240652
Ni 8.26825609893957 6.941795151149622 9.302817325042598 -0.362621190778911 0.7033872333559434 0.003194081457265467
Ni 4.585849800127672 0.2843968144547406 10.220022471862512 0.08865549365587957 0.4544113734090304 0.09555453476855802
Ni 8.085356946209021 7.090716491667105 4.8457926947145715 0.25020536147864003 -0.3830154381645468 -0.300005829940535
Ni 7.044125567007449 6.13161469944788 7.161643144654509 1.4648261194389804 0.0035938879988454235 -0.6769076990081762
Ni 2.307820643017572 5.097168055982956 2.690026821365199 -0.05857178689662171 0.0851348820971308 0.24976338884521504
Ni 2.4374343579015028 5.40009928882041 11.26940906733052 -0.27970388515838923 -1.199022389301451 0.9076768061390755
Ni 0.8038414153605578 3.3566126718831253 3.59240208769265 0.23963375661038086 -0.2137993120457802 0.5855245220084884
Ni 3.461144517953376 2.845727484266351 3.010947528385241 -0.40378300972920134 -0.8997531804166246 -0.9842547998051306
Ni 1.2692237622669316 3.4162497772278826 8.090850597259616 -0.5528038918470156 0.24959832402226048 0.3809472427816084
Ni 3.6378904927951 2.7641843438569835 7.012572034704541 0.12598919710933143 0.05477349619645405 0.11353528761669479
Ni 4.0841582903242575 7.018222672991594 5.886332066960026 0.09826833415529528 0.3613785766210615 0.8376936920817186
Ni 0.7174199416894795 7.352425041551427 11.427063048432448 0.17869964012916967 -0.3194901639173917 0.7858833922786465
P 9.344169026241785 5.492830025391275 8.072891798743921 -0.10794133846868506 -0.060993508964236894 0.04094970293948431
P 8.465780326974786 1.77045513706693 7.811103853015871 0.2050917569694532 -0.18732491990433545 1.4628214303041258
P 2.0027060244776322 3.3774270140964924 10.273383696650868 -0.5513121377928377 0.49056699739398096 0.178024468439016
P 3.896973566483459 6.260759257073425 3.86635293534434 -0.13021223405174348 -0.758477746572184 -0.5881922986486386
P 7.08293930788387 4.0030482181534 10.538209435626962 -0.9277550649461893 -0.18542667444035807 -2.1523344767811383
P 6.401335011744631 7.780467884043307 10.26749396860714 -0.3143330451964844 -0.40798702050821994 -0.9024680082446264
P 2.3663750777660555 8.533456261496877 5.817348807692935 -0.4733169520642817 -0.11309871429990845 0.5224373637400164
P 6.862498552227524 3.846692539541502 1.5915961501114781 0.06621130571975048 0.3253278536450913 0.43265264157570005
Ni 5.414688275105202 2.9125823935862676 0.26287963857929253 -0.048950975977406025 -1.2893046199274762 -0.17857545584647955
Ni 1.3820470606536472 1.275431073685569 6.902825325262237 0.505701024821942 -0.7331752632516534 0.19094837558953567
Ni 6.931996982253342 0.6177727444594181 8.992275820138836 -0.1733941687558562 0.6878060910882348 0.6009639964920102
Ni 2.487264272095012 1.547479127764308 9.340002548897125 0.4819118928221442 0.21828023063526927 -0.2308038170235767
Ni 6.371994638585606 1.8019337846535954 2.3884119355277145 -0.37357897534199536 0.2954904585686846 1.3516338169840012
Ni 4.252477479024982 6.870456181110137 10.350078277239922 -0.3403677786973493 0.3202236996493066 0.12127250835995243
Ni 8.151535186406267 7.187552354248841 0.3443921033217651 0.33869347631871993 -0.6178389178704778 -0.5178703131946243
Ni 7.716166272879603 3.9190329798825405 8.354673061483163 0.08600288652438091 -0.08913654705735617 -0.5990732072272005
Ni 3.185812363065939 8.319033349904819 12.393971797876306 -0.03030687851365748 -0.28833919223588406 -0.028255652411583593
Ni 0.3219212750960991 4.876889700916051 10.328514185638634 -1.0349407561957722 -0.8440484306551528 -0.3318188606860737
Ni 8.625519351200039 2.283198909207308 5.635001816966487 0.028527160905415388 0.9023155418271621 -0.401396768885212
Ni 3.4950230853617823 2.6754775330022706 11.699759802643456 -0.3788296822179734 1.1352939979045544 -1.2036760860233786
Ni 1.2513326306635046 3.3168335497250263 12.462954154917902 -1.0330134572660725 0.9272153903926355 0.5221159758448557
Ni 2.9723277659906526 8.573650407383546 8.097426918906484 0.5705285628202884 -0.6813870749357684 -0.6771480971537563
Ni 5.68296502660692 7.660715493840438 3.435566425116404 -0.54601026596395 1.3886073088845567 0.23369656519033943
Ni 3.0240884427475168 8.362791286504224 3.487106056626529 0.10907956583818633 -0.6419931465191782 -0.02102211077762186
Ni 3.6641452547547435 4.330375628426894 9.076681722049852 -1.6622580458703309 0.5839903447521491 0.07457767540657478
Ni 7.192604817031453 5.953939432344354 11.47192079791257 0.807234861371229 0.6658087608815372 -0.5759998703475048
Ni 0.39857164663580474 9.16949817004292 0.5000557749775444 0.2813571044910961 -0.1857362352609769 0.22667591089813216
Ni 4.674782167356609 0.34088515281533444 1.3878564906281536 -0.22995226765655882 -1.0849309720709703 0.4818563569938605
Ni 6.011943509539732 5.271153220804181 0.1900050807440923 -1.2382404542618095 1.9966330973193547 1.1246925682396243
Ni 8.037511928108682 8.932384287203954 11.13969610764193 -0.041895611792521395 0.18590747073151853 0.5122966757615887
Ni 0.07426669177690913 4.858159499600512 5.880838415909433 -0.27235207277900836 -0.4704740832988478 -0.16146579274938644
Ni 7.90224125935922 8.74026438989514 2.428330000412336 -0.13406040415324008 -0.16332829987942193 0.4654262364622952
P 8.349654883269434 1.4977935696503022 3.6076406763352056 -0.12495767052102351 0.5329210368801596 -0.5383532636393245
P 1.75447672351692 3.1225844002435403 1.4680643373021163 0.3922600966912663 0.290318427449442 1.05354705844305
P 4.672165713415613 1.2168946834470236 8.1071853898809 0.3831005416791854 -0.5665762630407597 1.2217036329490507
P 8.465726193444972 1.7105744308380113 12.485706477498598 0.24349555355863226 -0.4742546333872026 -0.8855758604749782
P 6.228567851344213 7.687818347767163 1.19965044752487 0.26925337924902665 -0.32556542357719415 1.8254462206274626
P 1.879425932581904 3.3245295332135405 5.858113160093644 -0.5440989078738501 -0.16144342415188326 -0.7149481987206655
P 7.031277875931664 4.057181747967097 5.999141831964288 -1.1596099489420997 -0.05271995610153501 0.465549649414037
P 2.248120381888032 8.538048589276071 10.30141764729039 0.46995317779837126 0.23283421719004413 -0.12546597761600972
