# total energy = -340876.39606389473 ev
CRYSTAL
PRIMVEC
9.14868771462633 0.00000000000000 0.00000000000000
0.00000000000000 9.14868771462633 0.00000000000000
0.00000000000000 0.00000000000000 13.39002923387920
PRIMCOORD
 96 1
Ni 1.3670426409094842 5.6412820299340005 13.072163537889983 0.3278609044795902 -1.4405412787496867 -1.2230724882721196
Ni 3.1923796372060838 7.6361899504350985 3.5268666333768706 0.6632947362104319 0.03728870914812933 -0.3591026361026912
Ni 4.023995337782775 2.7762973262904853 13.581773796754597 0.4529936671258972 -0.6040472634030242 0.6323389112588658
Ni 1.7839208876441168 3.537157077161344 6.975856893508208 0.1882109220537146 -0.9865343398679268 0.35721030417598476
Ni 1.9260548978108876 2.9343226067752064 -0.10639832162966847 -2.7633568859504147 0.7028349603968993 0.5962537355005344
Ni 4.413125615102126 6.274279723255246 9.509598725595067 -0.3389032783366808 -0.8233970729533884 -0.25660946523277095
Ni 0.27706251399939225 1.5567955699046565 12.26802500557635 -0.983781459713138 0.11347795201619812 0.3524162252214511
Ni 5.857181908018812 2.7869463986279026 3.969715259530943 0.5437325256733667 0.6410508372105669 0.39427069936339193
Ni 8.643030464137702 6.336426757952909 0.9974942144758798 -1.4081016701637425 0.7493433883710836 0.04043573941754326
Ni 6.620667332223725 6.325448332862788 3.4950786035284245 0.141386248390692 -0.9478821747133676 -0.6950252345444934
Ni 2.5421915599312226 4.88766803962262 3.537645617077855 -1.2028384206134317 0.940353213326174 0.22986073638401705
Ni -0.2715367067040311 5.720921355275255 10.388010877987158 2.855296192563889 -0.7087852644430631 0.44611236662503173
Ni 0.4734573901740879 3.382196607014282 9.212353291936244 0.45366652482320574 1.3189270707795995 0.4459228763220449
Ni 8.791989395235499 0.12486220289373753 5.044251486945506 -0.12398579352605744 -0.1910252515740581 0.38405519228297086
Ni 6.10134208202311 5.938367361560259 7.41016247520465 -1.7691786563839853 0.43259659152678404 1.9610454300227325
Ni 2.2046690292230173 7.853718294908278 5.837691544008815 1.9343807762473526 1.2081181809551322 -0.5513221650951666
Ni 4.990618220905234 8.337574083380225 10.496457590764892 -0.5220041328573397 0.918489066263231 0.5021986680956384
Ni 5.636835767772501 4.283799767540496 9.796519865325388 0.29112061163576314 0.022982319827786223 -0.5519433436189333
Ni 3.0492392714060514 8.167124885168517 9.007311991134321 -0.7343787966414513 0.8291231768038883 -0.27989723211611794
Ni 7.271569007129444 4.988358495074184 5.905243623325847 1.4341909110516269 -0.8164144709879682 -2.0594724012430787
Ni 1.263506943622065 7.95655869193999 -0.05583809974587215 -0.9507813506380336 0.5149539108787777 -1.0469457510764486
Ni 5.589665134635279 2.059268937591935 10.710175506863042 0.0995384591169705 -0.11662138274118625 0.14594584273691638
Ni 5.182438753292379 5.160527646550012 0.8346457459015649 1.174209186912513 -0.05055457301910003 0.9079943373794942
Ni 5.1780382345687554 7.39421631276125 4.771723977377092 -0.6270630075719071 1.38220294802011 2.2435800997616973
P 5.852397144417034 3.1991496660116585 6.404826005739394 1.808725308328356 1.2691296876414984 -0.09720801121158097
P 2.7781270638055053 2.8843616239275796 4.203572181588163 0.782689053711065 0.14311737214918577 0.28574134960172076
P 0.9877655001085173 0.7604297625548296 0.9211255449427233 -1.7166091098173852 1.9398392282587622 0.1480613464180224
P 7.006430892515438 7.687870886546845 1.7356688796355184 2.523687133895776 -0.21817352985407587 -0.5841188999102134
P 3.457243291192836 6.761932217070861 7.331603609866015 1.5270272755580734 -0.38229938593412865 1.4848429288805396
P 1.1838493209056593 8.082984405540312 3.925501482217994 0.1212658234917331 -0.03457619531297271 0.3829092516039857
P 3.92853793162417 1.2284308754591273 9.780358708723973 -1.1917757350413667 -0.927374798788635 -1.7067656413644026
P 7.046511292781957 8.681985575832483 9.404741042953045 -0.4873083812473672 0.3980160253384371 -0.27305346972140715
Ni 1.6106172989089764 1.4622621811911367 5.558200968326992 0.5469854853930257 -0.20491383663069226 0.143813626885262
Ni 1.2304435867256496 9.16433183085454 10.84095599574911 -0.7216027279227056 -2.6163448067325135 0.4877974050686438
Ni 0.8860686890236932 9.0092158330187 7.19696694916704 -1.024974646121996 -0.6230112061000367 2.1232007926399756
Ni 6.841251338346988 6.663034904384018 10.17912712840369 -1.4803193299785733 0.13434425394224606 0.20582092182599393
Ni 8.9437386760437 8.795868438767341 2.5065866976264437 -0.039941316279627985 0.7825769536132329 -1.5903746294664676
Ni 6.946891233776681 9.306045001392857 11.449384888587426 1.0139322722649056 -2.1141919042731456 0.9311072692478739
Ni 7.485081077757154 0.3859181731117329 7.353844069361085 1.1605134345929755 0.6680885580546493 1.0979525811416189
Ni 8.690960438343657 3.9651967227376 12.87415117375201 1.5076738107321261 -1.4939880857149175 -0.7893566955392276
Ni 3.280307673490381 4.341619473015135 11.766902899043913 1.1486524214893314 0.8942803302275115 -0.5067664899719788
Ni 0.6683939655493124 2.667546877085258 3.6480199583276622 -1.6165376610150806 1.8133188412363093 1.1227377585060987
Ni 7.815211468904677 4.262904165118965 3.349890761449085 0.31580757285948197 -0.35415017719342234 0.0829954671566248
Ni 8.441375092607323 2.82333072911408 5.887274686059591 -0.07412696102240136 -0.6659393729221306 -0.486854067318768
Ni 4.800755507659161 0.42314509772357684 12.813320635196405 0.582488563395642 0.32143391790732384 0.4780668080444412
Ni 3.245021185513216 3.421298097710264 9.198293588870829 -0.4470654745669204 -1.8669667084687525 2.080597099036836
Ni 2.2879586809067374 6.729179915552 10.96457214739512 0.09455283297692103 -0.08144329217815652 0.3570305840650109
Ni 5.479460044105611 8.19189953112189 7.903585046273882 -1.162197507163618 0.830700291483021 -0.14920394466289788
Ni 2.952189993609379 1.4773941104403538 11.681621578075093 -0.19715270462803464 1.724377955129527 -0.4217336806703511
Ni 8.290714505620558 1.247597375928964 9.75715306268973 1.2074286110872754 -0.5734475362392962 0.48606859530299523
Ni 6.051865979616963 7.549002957844386 13.121398114944148 -0.1537126311665288 -0.11440894847089975 -0.5522832434568553
Ni 4.231579058861819 3.7048067769750723 2.5030653677787877 -0.04778215248028546 -1.0378124213166127 0.39983353816315015
Ni 5.631053797225038 3.8323303330844065 12.380407483748892 0.6466131617896929 -1.0299841835214456 -1.43295806708579
Ni 8.208788008385527 7.356121177698529 8.089545844269175 0.7543413558063072 -1.370430380865214 1.2444506968375795
Ni 9.169638069648096 6.982781535133802 5.90822975495036 -0.6085114698219649 0.18468465406801096 -0.5445380522937977
Ni 3.1016886972741067 0.9560378515980665 7.50868652143843 0.7618410066174621 -1.217661344558877 -0.5565826421631576
P 7.409933758015273 4.470670859949512 1.0164868898817896 -0.5881233930839161 0.24722031070838715 2.1805209665176837
P 0.3388564093566552 1.8655729242518941 7.6021357906743 -0.6431375445362666 0.5230932521564604 -0.4184357266453697
P 7.624635158027746 5.021934178474805 8.753168769248072 -0.6181057983786193 -0.7867894490326836 0.06310412754933648
P 1.0238296265295659 7.375324272918666 9.256768340375846 -0.49922981527530147 0.15385301339913504 -0.35287850956985034
P 8.817578274383056 7.133387229995117 12.122006462665192 -0.9476700587025614 -0.33005122726268965 -0.09998943061146005
P 2.882989320791314 4.749614344114345 1.1273708130295303 -0.890172478706725 -0.8564578600630991 -0.37647429461191934
P 7.709882628852538 1.5786609332091481 3.8478391882617182 0.7306656094559223 1.7168567070518175 -0.8252115004543078
P 3.0457536214399386 8.535954224758719 12.023790727202694 0.1591849671350097 -1.045063189341755 0.5430092743540972
Ni 6.104104985670791 2.656513559869686 1.211812284478956 1.078208308635156 0.7541305253470819 0.08167134902856256
Ni 4.931435360981904 4.988230413448132 5.104948454662515 0.13015798377504037 -0.7526691103102069 -0.46039150225186515
Ni 5.008330080050629 8.103779372398517 1.8454540454054895 -1.175590640641072 0.45650142316883957 0.9997364403804975
Ni 6.295715098243708 1.0236375040904888 5.567560990585078 -0.6695201482948534 0.3393210826003898 0.5104120571443661
Ni 6.786286023395781 8.830752384491202 3.56457294921765 -0.39563749780393154 -0.5532353229574796 0.05499049730326658
Ni -0.33993686935927464 6.565857544961294 3.5927728637991416 1.7337678809848591 -0.8129501665884515 -0.8617769582831674
Ni 2.6447026042102304 5.508589465344734 5.89478575855875 -1.2815409168216574 -0.6150973505695987 -0.4951517885511859
Ni 7.264551963759342 0.45082262224453024 0.5566491509007548 0.02023252499679096 0.23998291241968345 0.034667983695830615
Ni 7.724612015848451 3.4302180680959875 10.707631256848405 0.05041959010313252 0.44532895149178786 0.35204084415990333
Ni 1.804295014873867 6.5621706238685285 1.857920047095322 -0.8437825785882759 0.9303652488755267 1.264997924861312
Ni 5.193591003446428 1.9284701513307145 8.147845855841506 0.42582713401343436 0.11165195455105287 -0.3144027220921553
Ni 3.6256614807628726 6.710781904838471 13.768430809874355 -0.3872335900109525 1.1988748079799934 -1.9052054402349772
Ni 0.6080373290100978 4.357181390580383 1.7959779429993425 0.8405915824548039 0.03955616502606736 0.053325965116650095
Ni 2.198603449360725 5.430276699701868 8.725344865725917 -0.595467235043497 0.9060986630186783 -0.10904485594550897
Ni 1.721892785884931 1.3822020162214268 9.193660693482798 -0.1181398762682417 0.3927560624910784 0.9670083540198572
Ni 4.133624060995212 4.377628707310733 7.50176370955035 1.4167274641595407 1.1410234441891638 -1.0834636434968246
Ni 7.076454947215263 5.579391158488441 12.455606036141194 1.4835594341824256 0.908801663772138 -0.24799369853930195
Ni 3.9150802122011967 2.4665410623727118 6.00607039422228 -0.3137157233274597 0.22876904598173503 -1.6443166309005617
Ni 2.8832088892931167 9.057950891731263 1.0793063531162217 2.1443306326400555 0.08515236559862754 0.12018287484019946
Ni 4.6287235864969585 0.7759084270631432 3.850905828336892 -0.5822299104176166 0.31141458599810884 -2.3249627139052476
Ni 2.2002776591869684 1.2250275636811896 3.032198925928668 0.6265485298293338 -2.2974963901641785 -1.28776427202355
Ni 0.2384532226949505 5.230496809124386 7.3305185755196085 -0.7543570395355911 -0.5070958482869395 1.0863031698281485
Ni 8.430954737459283 2.376389895007665 1.7798963799798297 0.2984202306209699 -1.2209132758372714 -0.6231716429373009
Ni 7.376916144556734 2.723317276543075 8.333351964064317 -0.14612350596536125 1.8521594682525906 -1.3700750544083242
P 4.629821429005971 5.904315946405732 3.03799644924501 -1.1958753590320372 -0.04990279836771406 -0.026887311309147243
P 5.064731738951128 5.973297050721994 11.726666056219862 -0.6234850604126617 -0.02244573059802586 -0.5138617062558634
P 4.108483467538834 9.317023426482976 5.690668475201911 -0.8094786631000832 -1.1017413587600897 2.093983804756387
P 7.02185557976706 7.633893629853748 6.278785451885984 -0.24920263124573855 0.3758304903803334 -1.759178093527848
P 0.35585924521498064 4.759247912130927 5.158254197687599 0.07135788291769646 0.11863147119267957 -0.7702410577556993
P 1.2764523365408331 3.9537151198308482 11.307826330869126 -1.1063642022440818 -0.1466032738152572 -0.4928737911502867
P 4.623545429329452 1.2402509798061578 1.6576589355513887 -0.8777586784234044 -0.9274619591858027 0.23045106166984827
P 7.143533124515904 2.0154192780444755 12.30073705286988 0.43182680324029504 1.2458720026651382 1.2598634318482238
