# total energy = -340868.54673694965 ev
CRYSTAL
PRIMVEC
9.28826892662739 0.00000000000000 0.00000000000000
0.00000000000000 9.28826892662739 0.00000000000000
0.00000000000000 0.00000000000000 13.59432044673180
PRIMCOORD
 96 1
Ni 0.4580686160544226 2.906921573754727 9.059173501161677 -0.5584037545322963 -0.6561033606683152 -0.5050950158068268
Ni 4.094593909153889 0.8921920755359808 2.4619178363796648 1.1945029041645427 2.0060317649254356 0.8102890748165206
Ni 1.386998580571261 0.9163833712280002 7.219317952074022 -0.12262593706405334 0.41438572494571213 0.7644087673446384
Ni 1.6957684952150684 7.350977302496457 3.0265442568370644 0.7341911061106775 -0.9342267887134621 0.51224345392615
Ni 7.6218325045217865 0.8266196853662944 8.55693080824733 1.677071970954712 -0.0297332653983746 -1.4004611228993495
Ni 0.8629265986819151 2.205415795895082 4.9593577273742495 0.08925996000909789 -0.3689921273022613 1.2138751380435675
Ni 1.6283821061785546 1.3620595792531303 12.56542060938657 2.2008900170923384 -0.1399610859083912 0.6506639348202987
Ni 6.481149520209562 5.369455222345711 10.377509484584278 -0.08592318232638106 0.226061674352901 0.20810714675700934
Ni 4.1193935864423095 6.632901253369942 10.289350811544836 -0.1905961344564395 0.2338963399059714 -1.1146264422528738
Ni 4.043963556757192 9.466789170750568 10.219855985525374 -0.9396762418638075 -1.5189401276745647 1.1248087821025146
Ni 1.333563171043065 8.080264291880322 5.3871438011577215 -0.010890678770574792 -1.1911339876923097 0.8010894105951236
Ni 6.618550878309788 8.472740083574033 6.975313277054446 0.40760315480624 0.061930418956209474 -0.1277977110729799
Ni 7.848707754501922 1.7055490421007264 4.476690989461053 -1.655706360794742 -0.5959413464664381 -0.6626789570033039
Ni 9.213869615483267 4.800279407904841 10.50923849702157 0.8438360575340306 0.8493575015728921 0.7136616186987581
Ni 3.3199523039650214 9.109683106065958 0.514077804824799 -0.6210157729365627 -0.12451904032170813 -1.0644544493841732
Ni 8.081722550057956 -0.08948132249482625 2.4857896156302153 -0.8584440372551926 0.7895595555786531 -0.8738896823863015
Ni 7.834199478874764 8.112020882385606 4.777981990190016 0.08005026848537182 -1.2120303715253449 -0.23386857199182948
Ni 8.181747915121251 4.025015488716601 4.634561834006307 0.7113751366574265 -1.0492414890891608 -0.43785655437414267
Ni 6.60993136500505 4.076156695888902 2.958654443639864 -0.44973890763402546 -1.1845969579047404 -1.2933577069509272
Ni 3.670389391760834 4.692312573148062 6.326470124771537 -0.3695631693143829 -2.037926042530871 -1.6415231273158244
Ni 5.941984101768274 8.83412804010507 3.623416759557463 0.018531997365916472 0.46542675068292744 0.027154448927604845
Ni 2.8855957089404147 1.838519896056168 9.120171419022544 1.369246644969758 1.3647490142097205 -1.4324407611297394
Ni 8.971436515518823 6.37578340067404 3.527753165450962 -0.9257855999246443 -0.6368622530505161 -1.2135516932658776
Ni 3.811394598096232 6.1080490569142185 0.08353218642619951 -0.6218948331074063 -0.6413539702732826 -0.38971521878222565
P 1.8884164752297241 6.097321106626531 6.452122751859733 0.14734760818044945 0.20024985549611965 -2.3670812403418524
P 7.100407679196936 7.104540958745005 2.2768853078289704 0.3764447269255646 0.8027601134293272 -0.019950474979997898
P 8.477774325180896 2.040660486628414 10.981464292148281 0.24095350386306894 0.29068969474593165 0.10628092004712662
P 6.067366440238832 4.601436152702403 13.182384566018047 -0.8175814947128758 -0.17213021444176807 0.40152275294011497
P 6.541105294328196 1.7185154651324248 6.782179520589533 1.8000030979640096 -0.541693383756151 -1.6865855668721017
P 0.36662189591381744 8.820409267312936 8.743513548835267 -1.6411834845882185 -0.002691173678917946 -1.7601036906659107
P 6.919769430543302 7.786476354564687 11.562947991373752 0.025805391098878135 -0.3706774854244842 -0.4108136913237377
P 2.3349964317942415 5.302561111547506 10.072629496849983 -0.5789448119084416 -0.14272887846151547 0.02660911794709611
Ni 1.198688222014917 5.415998736537574 1.7519002891315898 -0.6472219990182854 0.10243532104879133 -1.0079166621984448
Ni 5.580633298311827 4.998732555824089 7.8693304973796305 0.580325237195736 -0.41217457622700626 0.7679103527399936
Ni 1.1942019882582475 -0.04754200307145345 2.0133864145723397 0.3906870957771917 1.8924321997297087 -2.0353048028579397
Ni 8.73912762837999 0.31557171377426046 6.113882089624753 -0.011400785637773912 0.7248996535064226 1.6382503701018238
Ni 7.044130059462651 3.0160401538237775 9.558411439168609 0.44938358117713567 0.6409099407573285 -0.990499752273578
Ni 5.899063012348877 3.7836505396466023 5.541058772086069 0.31894791826067653 0.38038262852739 -0.33493220950407476
Ni 3.1844364644002066 4.308001169595368 2.0678732561114157 0.49470647348365127 -0.22059113815663298 0.26540135249278807
Ni 0.15918141925139437 2.8820475903171276 -0.2165764177039551 -1.9333315090472318 -0.8729532866149611 0.9726285284201119
Ni 3.842621757288618 4.490283441799583 11.674516816711973 1.2623815702843872 2.5649564249582086 -0.9869917391203195
Ni 6.273584580747264 8.072257804306307 9.520808812376682 -1.1998795950954237 -0.39172813544719637 0.500042540984584
Ni 6.3967655995484005 2.926770603854111 11.835350618955731 -0.044076164383607966 0.5844351455990516 0.06337023672652958
Ni 4.8979827058062995 6.992543015395277 6.397962857377044 1.2082819602265062 -1.5839653835060141 1.038582723823734
Ni 6.429339557694652 6.741332501559089 13.428632357915957 1.2299149651152497 0.5025928182102635 -0.800608357193647
Ni 1.3398234641113778 4.510086030555731 4.131721905417935 0.161103010093329 1.5380447097144996 0.44158439684769113
Ni 7.915518270882301 6.812638539964784 8.616392446473926 -0.3225448915833155 -0.4283218754108301 -0.511983515396544
Ni 3.260702438263585 5.8998618034525485 8.10077371788053 0.7181592494587955 -0.27988231971778255 2.033780910014246
Ni 8.72703430260114 7.4274940596133145 0.7904195871401183 0.856563532403028 1.040576100104679 1.8541641573874452
Ni 3.4178692320453696 6.535095784513363 4.813368436082684 -1.6306581595768628 -0.2738605390037348 -2.169406344661761
Ni 4.920516045544767 1.551419512166625 4.849746869066889 1.2914417208751372 -1.319835955747114 0.7912973642053662
Ni 1.9352757905555973 3.1014179192302054 10.922940769055067 -0.6929662951329356 1.4770090346584175 0.42633287000525927
Ni 1.4122998243666385 2.638267691398818 2.790139243224749 -1.1388518904591418 -0.01894388809235447 0.16866411027003855
Ni 4.005277917840986 7.907158829099687 2.7151253279750334 -0.7849361978740288 -1.372496005144991 0.12978543092697004
Ni 6.322180802310192 0.916250548986343 10.503909817298588 -0.44251230797859914 0.3046014197310173 2.326118681886562
Ni 1.151169439615082 0.873285804704303 10.198880288439065 1.12241688483157 0.09379230066181266 0.7678041661794325
P 2.880338548886016 2.263133097269706 6.368299842624871 -1.8207369880772515 1.3348524837606042 -1.441879795055452
P 0.3347928569130835 0.10481253872413974 3.949448921482367 -0.440856260432415 0.45532540058286747 1.6816171671232332
P 4.329141269036733 8.57840342770627 5.158527929633074 0.0308709785472436 0.49323374559286665 -3.380455840331075
P 8.943729610143784 3.9877695314407333 2.518959880623626 -0.31054478179864586 0.7658840663385842 -0.01446888304013637
P 8.981300656822308 0.8555164179550604 14.121371867826234 -0.012087784402469505 -1.4146461561504797 -0.4215045953786805
P 6.403954719481448 1.8812737966399131 2.5505251327947756 -0.44370324296290686 -1.117427916257411 0.19583604269914015
P 2.04442223543059 7.237344623864795 0.6817078332378216 -0.5817722540549077 0.3184599228806645 1.536104298158677
P 4.545901594459907 4.880074923854212 3.634780956247494 0.5443259362829916 0.3073692122841416 0.6896788826309154
Ni 3.7883875566567498 0.25530478265593953 6.924525024090744 -2.1850059988722306 0.10712527032529293 -1.1066524229084618
Ni 2.1902944945371985 7.899783943793692 8.121056510125745 0.19349788148426675 1.5563139403373325 -0.7761540808060245
Ni 0.6648486968160193 5.994026270999369 8.092155133402656 0.3740934530845686 -1.181435015236991 1.4408446689227188
Ni 4.6803214183243345 2.5008756215672387 7.326536152377824 -0.5445717337452105 3.500747472834997 0.11144112409182742
Ni 5.290718569022138 0.7866634112991305 8.43535758874905 1.6774303827353954 -0.9798983226086478 1.5188020594348035
Ni 8.494586091432597 2.811298848030274 6.903141572010818 -2.1279123391830317 -1.0907951441612311 0.5123887212547628
Ni 4.0223776204207535 2.313261883159446 11.678907381301576 0.5742270947177981 -2.0805371923331784 -0.8914747424579162
Ni 1.0378618503860773 7.34602665530742 10.191321495413854 -0.09013182109108993 -0.5336275760288809 0.674638186247709
Ni 5.386619942806011 5.956111558380892 1.6150051416726434 -0.23827081482458315 -1.2983489895179317 2.9506910618261313
Ni 1.8584803853793197 6.3962918978473855 12.251541218159854 0.6074537179814119 0.4146238090984472 -0.5690825744023813
Ni 8.647712488352784 6.614668382015197 12.314618779370864 0.020913610224215597 -0.4064834393795 -2.3107879650667624
Ni 8.890089858705345 5.721527045423457 5.762265391710727 1.016572280990914 2.3425542017347656 1.1328730471678876
Ni 6.543826757041869 6.0050793106897125 4.222151560141655 -0.7817117773994602 0.9315466707781375 0.2989254523921626
Ni 0.9630262698943901 3.9769486984665723 6.538568668160606 2.7140310431320933 0.5462640338459689 0.08214443201023917
Ni 7.078524518263783 1.966530814553925 0.2759386714560243 0.05820823290961588 -0.809225923659329 1.031024708970818
Ni 4.719833713150155 7.704498095483189 12.191983910766192 -0.5248102348475672 2.093503779796175 0.06685562417196873
Ni 3.3910911535350636 3.0911265175689433 4.274203946468261 -0.8319308214560124 0.35007112202804225 0.15838663960343044
Ni 2.492618350739746 0.5509011458772123 4.237784645102008 0.9379026949031525 -0.1608844663246197 0.2082786393378671
Ni 0.5248559117631822 8.741347524586706 12.451336520898645 -0.422705300555001 -1.4361104966718428 1.042579246577637
Ni 8.093713704881683 5.102064544525842 0.39414582239650536 0.5494902540927504 -1.773488853723565 1.1441342219040038
Ni 2.6295460071389583 3.5575833690387864 13.374540267794394 -0.4565603014312331 -0.4792158340472199 1.1242387685316575
Ni 5.011773285004966 2.978311206578248 1.0697429036912363 -0.29740850152700393 0.23482013727182138 -0.5814017580893664
Ni 5.674621288754347 8.895811432192112 1.0834003739102978 0.7701541544688477 -0.11467042966240251 -0.25080879939059386
Ni 8.472517165126497 9.173196287076529 10.585489609655113 -1.7807771598548623 -1.7809946751823071 0.8466023074252581
P 8.281476055587833 4.543756004402369 8.621191694884011 -0.5039063948153644 0.5317650688988454 -1.1267525360924466
P 4.980769044260118 0.9384587993221534 12.97595558181132 1.2009082934702542 -0.1626559564027457 0.36439268085703697
P 2.538390938633879 1.8621956928382593 1.354276938953517 1.4510216094557205 -0.20699463041912092 -2.814725470230378
P 2.527170710107882 8.53531514945122 11.532252121147996 0.4154879568709554 0.4300684257882916 0.09304410964187847
P 6.931314748471956 6.067468611193953 6.411761509279544 -0.5342037602473251 0.8051319560956134 0.6302576032498048
P 0.7990771823463119 4.604315515983082 12.64339748233479 -0.5029422311298822 1.6840628004502478 -0.5361462286856766
P 4.459334930666618 7.98701936292959 8.244438155529666 0.05320563748870192 -0.9250605488331616 2.0911489064107536
P 4.883948131880157 3.3034377623100357 9.516649525676398 -0.4623180298506167 -0.07715289233291873 0.5224293933202164
