# total energy = -340866.0456669566 ev
CRYSTAL
PRIMVEC
9.30256789857971 0.00000000000000 0.00000000000000

0.00000000000000 9.30256789857971 0.00000000000000

0.00000000000000 0.00000000000000 13.61524843754416

PRIMCOORD
 96 1
Ni 7.779263249207936 7.533508005832369 11.78666631588394 -0.9658698695400397 -0.16313212470821584 0.7842286302840429
Ni 8.56913500179239 0.47308116913998666 12.070911864921964 1.0484824994359492 1.5034075792566042 0.47342776661053304
Ni 4.868694355390807 2.2779384493853456 3.1182868665954393 0.722519069089388 -2.590818637436951 -0.5905528284610152
Ni 3.249498659020606 4.130647209545898 8.032520083478275 -0.09717921485617458 -2.5861333161461397 -0.7275226929515664
Ni 7.637789793940481 7.421998122330857 3.890761886624944 0.1484588389667572 -0.5846115232759158 -1.8208930540391413
Ni 6.680369487777507 0.17071142672363715 2.129193176654544 -1.0374365260344327 -0.3667678659574329 -0.5386332567735885
Ni 4.318903279656859 2.915815542210794 10.381027814272018 -0.5676972640190804 -0.19903552347304432 0.5991436554538198
Ni 4.019816413513779 5.501696902545546 5.986543029528559 -0.9263887807262821 0.5235776479920466 -0.755512493296273
Ni 1.6182189267224443 5.618062726581619 2.711857667447943 1.2021627347026458 -0.7136150817315388 0.40914067449668895
Ni 0.5624918719252063 9.37029076945045 4.8580298913509194 -0.10891218702238663 -0.6384802482699133 -0.7386653398319472
Ni 2.764434851944664 3.2446334159179706 3.737821155692825 0.3336291744219351 1.5635654796934233 1.7697643536841263
Ni 1.3113365085334594 6.7794697454684725 0.6149174245623231 1.4939490049468658 -0.7385033603327862 -0.08074215234607385
Ni 8.156259122969699 3.3977071735735453 8.523839867583897 -0.0473967441164087 0.34560691560910156 -0.19488704852230954
Ni 0.11251549111029718 8.18815762889501 10.066515429748844 1.1191407851834598 -0.8524749641559511 -1.386872071361005
Ni 3.799057170552707 6.545100845415325 1.408674859831233 0.07645252383178446 -0.4329097518918286 -1.5603094346499706
Ni 3.2275818086385617 8.47192316542042 9.166983144195964 -0.1017658057855925 2.1260248923523317 -0.980392488636247
Ni 1.2632515341596116 5.250843851865496 7.074919307494668 -0.07999241866424289 0.4062283859459004 -0.4369551256057958
Ni 2.93185316957015 6.835285153911709 10.626960736697797 0.26155549638413667 -1.5736514031745155 1.2840305160127305
Ni 7.126222970422075 4.669182177910461 10.513585688297475 1.292858912937638 -0.06033556366526383 -0.060151215568599634
Ni 4.344783024038373 3.107401931692201 5.680444817828202 0.5067870587972692 -1.4979414139357106 1.8010207405952465
Ni 5.912349467598581 4.873578203629591 2.082084971928453 1.1565449368635308 0.8644136245750661 -2.6143653144086394
Ni 8.83615591578483 5.771769058866217 12.900938152597288 -2.085667057360576 -0.12104753683333992 1.506190027097748
Ni 1.0622695509235927 7.862204946154586 12.09239707614538 1.1879059676733155 -0.12807256200092137 0.5945246686245697
Ni 6.847583148905368 6.832819973372132 9.191069353452836 -0.6246217451202662 0.8092138394744708 1.7937154651830851
P 8.34155697643317 8.059028681461582 5.70830228818222 -0.9483483157165086 -0.5902633222450544 -1.1512584916536108
P 5.4632865989685255 7.681102550892432 2.250872627574413 0.6386849080815516 -0.4089761238943666 0.6115685114807339
P 5.49637583360729 5.3246504269636015 7.7375319288285445 0.6734745049569111 0.04204113623145018 0.1796532622916906
P 6.106838258319037 0.9001629996682878 5.827925871557764 -0.6182032431884321 0.8815538837997786 1.0831993340918442
P 7.948123464884873 0.9625832314439733 0.5281533023941202 -0.7044555267194578 1.8150671913859837 -0.2773469548904385
P 3.995778577610892 8.231200611372818 6.596915219329988 -0.20876714893851145 -0.7787007584872783 0.8996104841911732
P 3.906213452195646 2.0118850024725874 8.112890550609306 0.14574092581496192 -1.1430026794027217 0.03504259342642997
P 8.747669888266154 6.102112553737509 10.54473812826326 0.5559313817324038 -0.3049616312839135 -0.4069611503468668
Ni 2.8277574328235153 2.0143780907163853 1.751138670645974 -0.46466493281623844 -0.4356479767585981 -0.6439135034703426
Ni 2.0655794253949806 2.1516839954867457 9.787226288980579 0.26220418571172904 0.11149023216220798 -0.7224005412336526
Ni 0.9007834809588151 1.8559925666906294 0.1350146822537656 -0.5861117619705261 -0.7781217460553567 0.19833284097906487
Ni 9.192574508967189 8.592800734972322 0.46738985799239136 0.23143913661473045 -0.8787364689556414 0.3619102807548154
Ni 7.80386854176333 3.8412722244719415 0.6114829164294493 2.5233618893458734 -0.8865595645444861 1.4382609673559423
Ni 2.5846906316212968 2.9473605505492957 12.093812927006224 -0.036599396390588575 -0.2243727166862523 0.44362662408870046
Ni 7.462855001311305 2.4800832536305983 2.4936603517344156 0.6141115896175617 0.8146334678281455 1.7233775388894705
Ni 5.025042617008385 5.20096348185339 10.021067733423939 -1.0168620443171905 1.5345742346673958 -1.3716429131160763
Ni 5.5930016081906055 8.372962446250563 4.749788000013759 -0.1494998786367619 -0.3177906647277817 -0.4237879920962186
Ni 0.7418705013232706 2.8636374378844422 2.6889705592157944 -1.4385489309100064 0.6135436329292336 -0.900887551131384
Ni 9.152982779244786 1.4754803221969424 6.4152462976721365 0.3634933089712191 0.7758576326115284 0.36627909924647245
Ni 0.7909489899674079 3.757418875854053 5.07888215999273 -0.03252419787995044 -0.8382287386495821 0.12001061092839331
Ni 5.699627643453334 3.1634499043372837 8.631454765832878 1.1187358364355573 0.47346221939289435 -1.3698871067672345
Ni 3.830164958191737 8.944726187774998 2.837826532506675 0.5279485233662327 1.5902280765862742 -0.2942447590870416
Ni 2.8620001859034407 4.561049126619764 0.2664050839859504 -0.9439972378366647 0.5761983595115561 0.21686278146245233
Ni 8.673584236125834 4.998614021110512 2.9760078089327866 -0.9259864030815408 -0.2717797452153061 -0.5780400407059851
Ni 9.025723647994207 0.6448707635033857 2.552083270008758 1.353508922519527 -0.3785134365291352 -0.5641905364174026
Ni 5.732019185486559 1.2497256001802006 10.55673285953771 -0.881512746149198 0.08511071372741472 1.5669526509981015
Ni 0.6558189558695263 4.53773689102664 9.382308757145086 1.0264355469382387 0.644290170083471 0.48530986276009974
Ni 3.4678764445547663 6.297206011382766 8.204848296533152 -0.0919724738442545 2.2608851666990484 0.08082005677186081
Ni 8.545776253358897 5.372512139703677 5.473833850650682 1.5036258659149975 0.7616083217813658 -1.3132906984294286
Ni 5.38729392037306 6.810158917544178 12.546356816609523 -0.8941335202370021 0.1759778703226324 -0.44064748685571853
Ni 1.6248702628952632 -0.207172842289181 6.976453484946341 1.0173798644938736 -0.2780640355621211 0.8468576179691737
Ni 8.750535079232908 8.268457396508678 7.634437148406657 -0.8244013458481867 -0.05405512997319077 2.0733095642364874
P 0.7797356744111619 4.005927679379488 13.704564682335771 -0.7175468126857771 0.03283941512752409 -0.4341220270323749
P 1.9896704699121794 5.549856297463984 4.884279877941774 0.2453061244048098 -0.2981178688892027 0.09133432603962335
P 0.9239524570036023 3.052460964647909 7.631251949098163 -0.0342964592890248 -0.43478434320672216 -0.3022403756980085
P 6.673643731060097 5.142692195438652 13.23787530771934 -1.574678301777133 1.0833877959535665 -1.1687211672147486
P 7.746471696747536 2.0946592531939063 10.344008244622042 0.7014871881197532 0.23502891084851782 -0.9718212020274681
P 3.0649636161391944 6.646880242711565 12.863387406310293 0.317881167559059 -0.6519934522649997 -0.31621097894548766
P 4.722495195541824 2.203750468996211 12.627326369124507 0.07213281341050803 -0.08599465899426481 -0.755218616204938
P 7.125264805910467 4.262548322265339 4.2954608081106995 0.8571430590555819 -1.2532798650934351 -0.15388078131327693
Ni 4.523299305375989 0.7162512288478252 0.8514501019494536 -0.3001469835040895 -1.7592801663233506 -0.7493714133955417
Ni 1.7245658849429566 8.160203411833022 2.918428633582745 -1.5726278470060078 -0.025320995263291873 -1.088655215000093
Ni 5.553995940256858 9.24326420240172 8.611277495680648 -1.1952624080383865 -0.19232520133240427 -0.11020365214030053
Ni 3.3164957542886366 0.433766655946186 12.332024717930688 1.1139497279008237 0.036677300816375547 0.7429652527588817
Ni 6.23516718489811 9.14403370875772 12.789660833297622 -0.35338707377515266 0.6142846248603162 -0.12854333098975282
Ni 1.2141618824337854 5.148301643987198 11.71070712653354 2.9755340890117403 -0.2289230550610961 -1.2533500562097382
Ni 2.255193670444727 7.69700063973068 5.200875107456688 0.8231988408996531 -1.0308822698556828 0.3427941287506548
Ni 0.3432005742061913 0.9613738975943699 8.675282885056122 0.23118485451207926 0.45280109149911696 0.9164023589375314
Ni 8.030190720432577 5.825193707314467 7.5409416879802 -0.01579814337452118 -0.4462967147216959 1.1046436200085492
Ni 2.3242187255528624 1.9769073465148264 5.860329506929484 -1.8818662512884043 0.9387318756726671 1.2521647776523857
Ni 7.076147246480419 3.04275838614686 12.155176387048716 -1.3214948315067758 -1.077488399749996 0.5221090338663201
Ni 7.254244912254712 2.73987607222964 6.195795926039058 -1.0124862838469981 1.5820190584129206 -1.317218315618609
Ni 4.529848313299995 4.487875126150682 12.237154337942911 1.2084385404090283 0.007666258296006152 0.6206871859525505
Ni 7.484725338852981 0.7551378239102279 4.235227610089182 0.22526180415942496 0.14802766496660957 1.4599667344641503
Ni 6.9831401708778404 6.9945079090641125 0.81513101567544 0.6839584352073704 0.4798110444290575 0.4181678176959637
Ni 7.462678252517902 -0.04299926040786159 10.192810814946968 -0.5105822641736432 -0.8099450612135405 -1.8401066508531148
Ni 0.2287780566407503 2.9432767231648658 11.37219132560935 -0.5372037234159135 -0.2871125189176346 0.23663996408937954
Ni 6.338230336588545 5.846943111471182 5.598154300646724 -1.1290613867312815 -0.4826893944181171 -0.37713763922753113
Ni 7.382164525838534 1.297410564126872 8.024038001908519 -1.033190349163569 -1.4110049598534666 0.14482407042764736
Ni 5.094690944177469 4.271664838977734 3.963071678519963 -1.6338386141873733 2.01503036887962 2.040633928380337
Ni 5.879836992180396 2.3934112268863266 0.8709017717919213 0.7149466560587687 1.2903209770071327 -1.107212666287306
Ni 3.6706073105886734 0.44251944224689277 5.078378891059933 0.9707223125363346 0.2053486101752657 -0.33357003904922555
Ni 3.9817503049554923 6.787990897824139 3.624896351587278 0.03378455264961278 -1.4308273938960325 2.0534768457812764
Ni 6.14484855146888 7.600467890828104 7.016373595321751 0.24022870988190237 0.48960026260533746 0.10479610797148403
P 3.8313742920413407 3.9942157461744814 2.06102209729559 1.0125173941952499 0.9180992870239801 0.0285155909411896
P 1.956097501733573 0.18205776900333964 10.826232907921838 -1.803958225957016 -0.14030792772484868 -2.0038787231381745
P 5.100812033970078 8.098452964958655 10.723206036246891 0.5574254497794271 0.4461244508098897 -0.9756326053537585
P 2.4146210820947562 9.328336187437285 0.7404704648281528 -1.0104898222422598 -0.22419582478875583 0.2639808179961777
P 1.860634548159492 1.2451859469601507 3.675109753536428 0.44328749558172686 -0.3992211013901318 -0.13323148049404152
P 1.2027755391113653 7.124213615718119 8.346800834056411 0.8874491662382911 0.3104249683913299 -0.16330515995097036
P 2.9076385848738595 4.4243664939103535 10.108083024930137 -1.8597424228061712 1.7831819126416129 1.8011482673120462
P 9.111056104935841 7.033132171706832 2.1234888419116453 -0.5151868528251902 0.11732946455180437 0.7371635584754401
