# total energy = -340866.6316456044 ev
CRYSTAL
PRIMVEC
9.26416883956374 0.00000000000000 0.00000000000000
0.00000000000000 9.26416883956374 0.00000000000000
0.00000000000000 0.00000000000000 13.55904753323723
PRIMCOORD
 96 1
Ni 3.1759238398791885 0.6714558418923035 13.441219548043371 1.0138708228993505 -0.33101461961722345 1.2076065314260362
Ni 6.8572914685325035 5.682520743869854 9.51942728274633 0.39193073837630565 -0.6958045359126791 0.2991789631638654
Ni 4.352584454989058 5.495106607853788 8.946639471286014 -1.0452454805558902 0.9513089410067294 -0.748106430640189
Ni 4.705502967669832 3.4162919650928742 9.879922032719934 -0.4018819360517466 -0.5011977376349497 0.4524722474047885
Ni 7.602742079934818 9.245408916986367 10.394772658553414 -0.5334745953907845 0.16385511891716942 -1.1848705232811014
Ni 8.688919557799561 8.853043573304289 7.985763582905786 0.43351961756168567 1.102267663577205 -0.8316490285495354
Ni 6.363752136742096 1.825467416975872 11.488797813858552 2.7653726308288635 -0.40345390852455676 -0.32476143961866005
Ni 0.8928528021166815 1.2923052349758397 10.516275012388881 -1.4888515358193004 -0.14736663434384298 -0.5131397404881743
Ni 2.7251479115415815 3.6332032147557607 11.541867605166908 1.4619806795703854 -0.14279778402623794 -0.07867241430123871
Ni 7.522412471759074 7.306492488164093 11.839407695659684 -0.9961816331497039 -0.3764213298867969 -1.6032692260409485
Ni 8.176212660640036 2.871475458668313 6.5157734420495235 -4.024044613472148 0.44264600534298604 0.4195289597095485
Ni 6.2801059561148564 7.026344021870179 0.23919806068680372 1.1595341013988416 -1.2077993641631328 0.24858093850133964
Ni 7.334850109041264 2.777110634671296 2.3309899511852996 -2.175795536017556 -0.7708072146718145 0.22253823458067484
Ni 0.351058267573902 4.006030426314366 13.412867485667514 0.37386822444763995 0.5536438712498079 -0.08253781079391591
Ni 5.946077083737431 7.117994444391531 5.203257496291051 0.22724361047614414 0.22474578375495485 0.06740506891753553
Ni 0.687033541828587 3.7900363293685135 10.80425540703613 -1.555480902913076 -0.6560941046969345 -0.7604376985120324
Ni 0.8512937406155409 2.111859933080701 6.570592308438444 3.2735802241227434 -1.4000476895110145 0.033658568594709774
Ni 2.897702320707932 6.35112507458738 10.760772177662991 -0.8507158153729993 0.4260086538966211 -0.3634352020397741
Ni 0.08467265053680904 4.636577551359425 8.342082045557786 -1.0691734521263974 -0.3332864463705357 1.4381581232294909
Ni 4.234586736232922 0.17465644908044017 1.9738312284177952 2.9498881063088613 1.0123096490598178 1.0773942973742927
Ni 5.329416947811901 1.795692378263285 0.7791425407084558 0.5966597126897015 0.31048924597036204 -0.8559310410253518
Ni 5.2659944478036955 3.827482099896291 12.104961390333244 -0.20945183371036186 1.438631977542116 1.3026108501180793
Ni 3.9858715948773438 7.50381002069035 0.10256083418650866 -0.18824126107101777 0.27216875312360866 -0.014396892151620367
Ni 2.570640103312419 5.854750907126142 5.498112830648509 -0.5220421851841268 -0.971668735610004 0.045449133471734626
P 4.217920496455714 6.510468778960902 6.677112648395258 0.8494410624256338 -1.0424908006288887 2.329811814467433
P 1.1169159901386583 8.193935015667162 10.615907442799084 -0.21579628787115096 0.06040009835461212 0.13743729104527297
P 1.927076821020569 5.437140703303489 8.71076632080268 1.334839885355114 1.1927684379719394 1.3930666302074912
P 8.545973432306337 6.0680028100897525 13.187122850997643 0.4413787085947882 -0.0799538521168236 1.8538808218190717
P 4.703705718911201 5.474688379688715 13.486642694375568 -0.9168481882256984 -0.8168734129022576 -0.10392836065455005
P 6.382651041214305 8.81878467686398 6.837922870699148 0.22382198638910483 0.47383605779254523 1.3147667687543227
P 5.9687001840909275 3.0307728421975404 8.287547589152833 1.045703136918599 -0.10369104783276334 -0.8156374836126276
P 3.3279210583475822 2.5970429845603578 2.230069801303707 -0.38532506013432993 -0.30305901494456194 0.5121938316351372
Ni 4.3436074753647596 3.6117196071719118 6.977146653144854 -4.420734978020625 -2.2560352948059146 0.4601063669112786
Ni 4.561417349406961 8.743531833222928 7.842404275481455 -0.47183008310610997 -0.6754311144626497 0.0837634556709009
Ni 7.098206179708866 5.2948152771238135 2.6245566396544806 0.87151552572717 1.2992527322791236 -0.30302353372093616
Ni 0.5103899285279073 0.47868979552643537 2.7757404640970607 -0.13792682908718182 -0.49917376522638557 1.6500892717182807
Ni 2.6050101697790335 8.164938167138724 1.9338183566992093 -3.5305514435703067 -0.6159165040367844 -1.0219456294876852
Ni 3.6295809247319206 3.8831597547384344 4.076324160365236 0.40454354204430976 0.7523904027275236 -0.08742959166857846
Ni 8.052850988114582 1.252580478908766 0.8261489334986447 0.16343911442567335 -1.660387054099863 -0.40416456143833623
Ni 3.1636951369854067 3.145750441905667 0.23519686615663368 -0.018626099741619533 0.22292647115802897 -0.7182788057557952
Ni 8.003815742344289 8.356789840038216 5.76621509817516 1.7829844519188263 0.8242329385911223 -2.5615831376106013
Ni 7.707288225507794 4.558730740437873 11.829509857650807 -0.6967471023316064 0.48978126826789203 -0.8740552614298882
Ni 5.85666859007994 5.05709670420378 7.108859047479745 0.367833845328102 2.382977342746819 1.0047770881281985
Ni 5.988127146188095 3.441731372779484 5.5047830322269355 0.5781706527465784 -0.1515019966684552 -2.0098570522087966
Ni 2.854021764538097 0.30231762237332216 11.267731584462439 0.054550838662686695 -0.8434017982100894 -1.380673398749461
Ni 5.336624471184145 4.288374500627844 1.7047793835831035 -1.4878444347110247 -0.5470327936911934 -0.5123103026083435
Ni 7.424351244387346 1.3483441924034811 8.384969588873297 -1.145328499322421 0.8293422347932297 -0.07323890199049322
Ni 0.3707863151589843 4.610434066839537 6.152295629703345 1.8377764600580415 -0.09555633454077092 -2.342161080061405
Ni 5.248883527921261 8.675718117175592 11.92622592770422 0.5052024879189686 0.09301479906583981 0.1175480083205137
Ni 7.138366351712309 3.14865939092737 13.580606379860996 -0.5710031884638618 1.027301751593276 -0.09237510859931188
Ni 8.56301950300676 8.129836231332254 1.1909959900021716 -1.5081718334144671 -1.5702315788596892 0.36280322488273
Ni 1.0889659926912796 5.092884188505811 3.795353962293537 -0.6739750987424135 0.05855121807133142 -0.4414334730921236
Ni 2.428889055601997 5.683993746718423 13.071979422666942 0.7468604740482299 -1.2341266892037521 -0.0574736687364365
Ni 4.87764975340639 7.047503383543966 2.5733313443659367 -0.1764283275964897 -0.4713883675830011 0.6099371465248979
Ni 3.5642314776010586 1.3173277550637978 5.945357257817093 0.8521582042464808 0.14961095029332944 1.9470354888968857
Ni 2.6760385524204167 1.2100208871708615 3.984719132271293 0.20168195995695587 -1.2588203352956902 -2.776277707777141
P 2.5713349159768386 6.563747014068585 3.2126127278111913 0.7298318007007173 -0.5885753930196702 1.059861173586536
P 4.814986915244616 7.588567901580662 9.928815536706685 -0.5934813149617199 1.989563077846451 -1.2203046957189951
P 8.36081048932299 1.4731696036086457 4.779740458403948 -0.3044841774268627 0.6943649752526752 -0.2418780725598673
P 4.364303628595599 1.9231951342686793 11.761890689149508 -3.0819044834488794 -0.40966312265906224 1.351521202665537
P 3.488367198815316 1.3095273248845825 8.163265058242802 1.104163595048337 1.5773005698913287 0.39559404616050575
P 6.398066618195557 8.997249625762326 0.9021549540679288 -0.9646552804066485 1.2893732683818826 0.5946203136621694
P 0.893900579614626 0.11617916240912944 0.7314561579240216 1.5135315550644837 0.2658366402579938 -1.032000442620526
P 8.741234319345914 8.025475369136457 3.4700723181527096 -2.1922017452897213 -1.4668660326871448 0.03047862820483138
Ni 1.0087938753861365 2.6384352910220374 4.007864731748433 -1.239141111699208 0.16295548992103548 0.1813414486273909
Ni 8.291347751218765 6.08285327277061 4.796147301453105 -0.3777603604131946 1.4185485765286796 -0.7203973947606948
Ni 0.846195668492474 6.156985151979733 1.2921523761896674 -1.534819775019299 0.35410518288809983 -0.03416841835159277
Ni 9.098896086482458 7.033069808461759 9.094581763044857 0.4378845793986007 -0.6664474229068007 2.215030827369095
Ni 1.1736404960618603 1.6864307707411152 12.801476808988943 0.04760886012721478 0.7874867322100244 -0.2618426886072523
Ni 2.456348052099853 3.383116976409061 8.748541895741836 -0.43471955140705776 -1.0504095412553327 0.012299129082327205
Ni 5.06995537057997 2.124366561040251 3.4047441786102235 0.46257899682148723 0.2694788649962714 -0.24229587682357623
Ni 6.724999137227044 7.722453669929855 8.730670387596081 -0.5618153513170067 1.1462934343388518 -0.2900047528637651
Ni 4.8829210654871185 0.8047737166904455 9.949331038644777 0.20394504495951973 -0.32566055439416175 -1.511492670257584
Ni 0.879663404912229 2.3100297691419804 1.5155624403070898 1.8959114165275606 0.8525058173938865 -0.2167887336914073
Ni 1.7939877711932424 7.90807982135615 12.863685702876628 -1.2246758282034973 0.59711274106672 -0.4090450294590891
Ni 0.28584685655903813 6.074200539056373 11.297398232399376 1.5211286506854513 0.6787956600595084 -0.09724554931773575
Ni 2.6633559052525477 4.924072503558467 1.8109467587063919 1.3540557961619324 -1.035165984832701 0.3948797937023006
Ni 3.693188708117304 7.887976574932281 5.274374814953481 -2.6375219550307607 0.663607125244528 0.2933934668303399
Ni 6.084696842373536 1.1524070210372026 5.380785837717758 0.9454062023690494 -0.8215034554751012 0.9288547257682712
Ni 8.148855569999629 3.8128539772680474 4.163603748018947 -0.7039099386286329 -0.3654398911746287 2.964998993808371
Ni 1.5725278146206239 0.5589249091798191 8.346624267549316 -0.5407783281410492 -0.34358062920769217 0.3336114338101222
Ni 1.2211008331261368 7.868067876054449 4.62444890148932 0.4774541141611068 -0.8927667217964624 -1.5840186053414524
Ni 2.5969318145340505 7.416152454947196 8.239737992922576 -0.706575401275938 -0.10310457920167404 -0.4453999139390394
Ni 8.65960772752992 9.185784726210322 12.313771124329 1.9367125097043225 0.3975833086763927 1.2650987121052342
Ni 7.640910455633592 3.567937145144629 9.626042117225504 -0.5424022368977175 -1.5963601576259412 0.5274898385622594
Ni 5.325896563645509 6.151426650664378 11.233481025774104 0.513093203520955 -1.3841248476331711 2.4360202294054107
Ni 0.18569192702519247 6.901268478105823 6.856782865662148 1.3092175568013193 -0.6432352464563954 -0.527533290205685
Ni 6.717495160451315 0.41701729701568113 3.16493931486316 0.9944283979040228 -0.95108242681822 -0.7354571173072946
P 1.4975158393699026 8.73585183723888 6.424967911728104 0.07777715618047895 0.8521592326877453 2.260847114372261
P 7.782837522552334 5.382352408671803 6.835170486131161 1.652433089360109 0.8345129803608919 0.3093196511422931
P 5.7157327892291026 5.205731029376384 4.2885236537464735 -0.008361741701133985 -0.5805401814200195 -1.2872441378540218
P 9.065628456110057 3.89630561034925 2.3289425698674773 1.6041935376274308 2.1996443176106957 -1.4564160409984144
P 0.1394359319125765 2.468308094096726 8.761395930033594 0.21408830404110868 -0.8904092773078794 -0.10305598535192573
P 4.592832146007578 9.239313093877195 4.151156410740095 2.022217630656679 2.0403652480999828 -1.9208583162808854
P 8.433284082306365 2.161386179800518 12.137924229550189 0.3601223356164572 0.7431943380505522 -0.4296992153743309
P 2.1891231013641415 3.594497517263169 5.6202117969584915 0.7797911633379796 -0.2914823658505561 0.5571436568729502
