# total energy = -340860.7367470532 ev
CRYSTAL
PRIMVEC
9.29410594346000 0.00000000000000 0.00000000000000

0.00000000000000 9.29410594346000 0.00000000000000

0.00000000000000 0.00000000000000 13.60286351087828

PRIMCOORD
 96 1
Ni 0.37920417189926275 6.396222338192335 11.944660491636844 -2.0627317887206407 -3.0837495070774184 -0.08101751749464757
Ni 8.237189560790933 6.009466705167152 4.407980711899771 1.6558441719241868 -0.9811422223180778 -0.4301802687758075
Ni 0.8578032310170516 0.23746998479257123 10.268298392192527 -1.3607044118267018 0.1940900065423109 -0.47756261471451306
Ni 5.579567832084705 8.64004258541008 3.5520753373281515 -1.218536805185295 -4.629899619507871 -1.0853870857717822
Ni 1.5559634620738267 4.7328097166394 0.452469609506201 0.0026731759567889444 1.048734467545755 0.637765738701392
Ni 7.1687670172185864 4.1848756973425525 8.183781910066017 -0.7574444202116632 0.04777083962637579 1.2247624743800325
Ni 8.048156738833871 0.7525103041302058 2.8236144618864794 -0.0024044956764345685 -0.08381976283013305 -0.5127553605655621
Ni 0.2713813893589084 6.975774906105041 1.909393219210745 0.016889319556170915 -0.8156940478821759 0.04002102047762785
Ni 7.8659272024696385 3.359150143777815 4.116417171359401 -1.2818854446452697 0.4408012388247634 0.21816504521364363
Ni 1.7780925955009266 7.9953011580054225 11.463024118677883 2.7873205958548644 1.724236030235024 1.580312103024143
Ni 3.216494910766411 0.2731054460221187 1.4948733033283739 2.300884589910121 0.44581051911389674 -0.8350518835834975
Ni 2.4712841974894957 2.878170864113135 7.9310138267955805 0.528758677972354 0.7780865219420471 -2.498810168148439
Ni 0.9545511568464549 0.6896328888007349 12.495576989549454 0.14685112816000515 0.29244987197014793 1.8356933522767676
Ni 4.661774864472735 4.102055918766449 7.287027080798214 0.04068745041703315 0.3782015617156712 0.5100644439969603
Ni 7.2194849536667745 7.781954954749395 5.173971187374022 -1.9073875354879604 1.6255113252686004 1.305737568672519
Ni 6.7469354281451235 5.424718731999813 6.105644902298685 -1.319161812498225 0.15531648531853898 -0.7971257979616853
Ni 8.1524923728026 5.537697884549597 0.361534217569907 -0.11114878966238921 1.0532799208245927 0.15590706771468632
Ni 5.05321472692249 1.347078429698343 12.917931836790782 -1.1812357547419914 -2.8221503019395398 2.6298711233537224
Ni 1.4402704305717122 0.4127586827951564 8.145952110409603 -0.565809045857432 -0.3559360654492515 -1.1232131554806206
Ni 8.76513195807934 2.315115334352443 11.240345703586117 -0.678953011572979 -0.2697902255891031 -0.8853246636961205
Ni 2.669955007369733 8.098772440116047 3.1522047913247677 -0.17905650924795616 -0.4526406546618527 0.5917496769825937
Ni 4.968638362312172 6.156350756409072 4.285881253131075 -0.08776820595491981 1.4742656675853256 1.5582350686194455
Ni 1.3801654470623794 2.3811592515965003 9.771603708690531 -1.5402005797152378 -2.3805365945158097 -0.2301929229124552
Ni 0.8371136216479275 6.971471735026516 9.458451818730726 0.36251243311518855 0.21120378340446205 0.2554684096497923
P 2.1661586974722704 6.042953369089237 10.919494576214973 3.5713304252598816 -1.6765505512336032 -1.0214023553897056
P 6.006037180052734 7.585124377857381 10.303828830024264 -0.07350501116768632 -0.2838492747853305 -0.14750238859075887
P 3.2264024277636194 1.0252049506670746 9.1352883177865 0.22068164098791027 0.11166943805254961 0.5227824057842609
P 1.3610288828060446 2.27222303515721 0.38626583363892425 -0.5495262495370085 -0.046494801127429604 0.36110038325901034
P 6.129955495365851 0.6019429986800366 6.43626320566642 -0.11785165560386154 0.39492658777983597 -0.10454619674420704
P 7.138784231258928 0.796667531152193 11.799436367726726 1.5545187961101228 -1.6376574737128313 1.1681411263415624
P 5.64911562729119 4.082101473182014 4.437825015680013 0.7942793296518257 -0.18002375825723188 -0.2568848303813447
P 0.2636617049143666 7.803991280078082 13.336302300789422 -0.8777108559046045 2.8053000631514204 2.6405831104545876
Ni 3.616262292193182 0.9573951532828018 6.950873207896203 -0.6125578719771966 3.4321221583571146 3.0974550295889687
Ni 5.24616966161203 8.61756943709934 8.171566666548726 0.30589648439335704 0.20205656968755523 -0.5184495827368619
Ni 8.47021138645136 2.723312469922243 1.729046668722343 -0.029761033312516484 1.0392280707172166 -1.506247876918877
Ni 9.041148318101015 3.57165058338774 13.159125040447407 -0.017858625447975694 -0.49577502395748163 -0.007964506262715314
Ni 1.797573041679303 0.9642356152996363 4.316923567174863 -0.658898406914949 0.1909756292830453 0.6931179902194514
Ni 3.02837291119746 1.150954204862416 11.314739445661592 -1.1494029265021108 0.7420710230793865 0.35056554516595756
Ni 6.7336355624575 6.134333019292386 2.5964060995297604 0.044610953841155425 0.544502571070172 -0.7376636380403102
Ni 5.6274231838845425 6.263149328468101 8.460763927701208 -0.6582021521788729 -0.9194956531508744 -0.19291424106665486
Ni 6.578340345284555 5.413649451752463 11.950918213207405 -2.343580329006435 -0.05448604686302229 0.06950103221461579
Ni 3.3787700015462083 4.2406868038793615 4.477776659736486 0.07561100176709558 0.17319670803306947 -0.28691840062895746
Ni 3.6153235874870675 5.4810224261546825 12.480940631418868 -0.44592390476330945 1.513536183050174 0.2997284079094322
Ni 0.005862722065515249 8.511681687428421 4.400281474488432 2.042880815432985 -0.40803998523334245 -0.02576168234513628
Ni 4.709053981700502 2.346687412438295 5.492455105946677 -2.00374553999442 -0.04002719112521494 -0.20880340149308557
Ni 2.4902534678378094 2.439266002315589 2.5351523645186873 -0.5958017355647803 0.7727198583134951 -0.8086687656042784
Ni 7.778534723740978 6.883503021725784 7.489437838933307 -0.5014252802647235 0.6967363036983292 -0.3782776663692453
Ni 4.357866892341658 3.4386240441935105 12.524143353754539 0.3440670819258074 -0.5588339000911795 -0.7898341493962784
Ni 6.080585204287828 1.191857565373406 4.137610521273786 1.7405375956085252 3.8012251002056274 0.9547986993275427
Ni 6.217608209062545 4.1990027384642765 1.2707859017668353 0.7188809581161683 -0.8698970162871406 -0.3860277426283094
Ni 3.252760512382835 5.5543808048216325 8.74906244880338 -0.9463719087164284 -0.17907219297723997 0.4127188787662505
Ni 4.806344683320372 1.9966342040115883 2.265706937439815 -3.0295251985162146 0.9938588985537982 1.5667371925531857
Ni 0.694732564763557 6.745615665092961 7.232574772558771 -0.6933434759666963 -0.9440232059785935 -1.590015446354836
Ni 6.629606633986809 3.068002979186295 6.299009707062876 1.6008189647282431 -1.4962557987031715 -0.3304227516694955
Ni 2.645576567328759 7.773441553652356 7.57535348421839 1.1999932378551528 -0.816118022793472 0.2988987129192852
Ni 6.863576458459353 7.717286565193505 12.723275151292434 -0.19845034039353565 0.2446175829782174 -0.03592088226632524
P 1.7230900761862162 3.4019123254890316 5.4251760020150686 1.681977121565813 -2.322433519725491 0.5645954851653051
P 9.222197503003104 4.628771494062708 8.11855587415006 0.5224455912701325 1.5344518501569187 -0.9107857840817024
P 1.1117981362796387 9.038592438950705 6.08905027603366 1.2106316914056052 -0.34306075214848014 0.6742885162177742
P 8.733271762707455 8.476178202504089 8.654073897239993 -0.11631105058961903 0.5662939559136505 0.41124640798578205
P 7.887182822894232 7.971331658628499 3.0260252200215736 -1.8364343442078501 -1.6381441835412627 -1.516753147325575
P 5.707166613374271 6.148645942534132 0.4023632252328881 0.5767724868474712 0.10722528623826696 -0.5483044613147654
P 5.3749023238337355 4.170934538340852 9.769726299278302 0.8462647215801812 0.09494903997407518 -0.7498146715805474
P 3.531602280628854 8.899859318671778 13.007547465674914 -0.10547539342669578 0.7460557187587474 -0.6282004636104601
Ni 1.0174908426861333 4.473364747617748 9.970096071735547 -0.9371401057055151 2.3665459366636727 -0.06864716885475274
Ni 1.1348846955864553 8.994649905777342 1.5233578794006488 -2.1616999771564385 1.7995014757372427 -0.6066019115040779
Ni 7.102788158716537 0.6968367503622138 9.4926494817619 2.613770618247434 -1.4663502693929906 0.021487223339498478
Ni 3.3562132062814563 3.51509594837084 9.963580903428753 1.7957998585159396 -0.1508713050629918 0.896534930589643
Ni 8.084989280916364 1.1159340134501434 5.180745661238249 -0.1387938050731674 -0.1624664660997589 0.996042022248046
Ni 5.9556910078445915 2.2048872371789954 10.981143310731095 -0.7142177483125441 3.6547928047505964 -1.539126887035085
Ni 0.4118339192480435 1.8569995554505532 6.6108557751295205 0.6379963666549593 1.017232540282732 0.21541962125802255
Ni 1.842212632802749 6.823630390866479 5.0235507287986705 -0.40658525506468685 0.485590370114996 0.3076674602508508
Ni 2.470057375497346 5.1403376765771185 6.502522746169705 -0.018380559389716732 0.05926829874301406 0.8581416755234254
Ni 3.731369795017225 7.585496142097427 9.773194859637924 -0.12245907246888585 0.5272229580541178 1.0374761210231165
Ni 9.313344800556223 4.2906519177414575 5.8982013857639775 -2.4479154381811004 1.3630901384500589 1.1503326374052318
Ni 7.698373059481198 6.218453972708648 9.675893934501454 0.40867119105943817 -1.1751126725633891 1.4333946404025768
Ni 6.301180810224741 8.64534951993673 1.2336643129877065 0.384683312785273 0.7681335244943932 0.5708602351280943
Ni 8.219075348194723 0.565650444156209 0.22571108187993663 -0.20011410124920376 0.011008949515993943 -0.43383432058862703
Ni 0.1924484059124786 4.801790571379816 2.777595625432465 0.4808333150459848 -0.2651334435433821 -0.4062921493043003
Ni 8.26372423342417 8.219344877268755 10.918256601295623 -0.04071496122085891 0.5222015935801265 -0.188751625048533
Ni 2.395574410004259 7.229243764967965 0.22368310795048924 0.43838800139758044 0.0073412708564196145 0.5167392849139746
Ni 6.749751542263466 2.779625458183113 13.068407130591538 1.9588062562795685 1.3537421215762557 -0.28377265591112416
Ni 4.400471074250855 4.848484159929513 2.4599965057511186 -1.4328606222759774 -0.44924139917231665 -0.673278586896021
Ni 1.9090465490569029 3.4459292115104017 11.8451289810601 0.10007607678799539 -0.29590029241259364 1.9185101277636827
Ni 4.965552719119795 0.16239777297901245 10.947734717299419 0.8340296129665701 -2.840291491624941 -0.9535301170277642
Ni 4.5446412465404435 7.2606950196758016 1.8235314797404698 -0.9884978913522008 -0.4138519639294292 -0.2042666899649966
Ni 5.25313094700688 1.6271563140425123 8.881704212009163 -1.8156495462520148 2.3272139718332694 -2.112823820281026
Ni 3.7907498382584697 8.649578338167245 5.823195162103027 1.3811289982296409 -4.686695802561309 -4.13121642076466
P 4.3692707604050485 6.360179795119939 6.559572757036464 -0.05812852871161602 0.15510591196962964 0.1811193053142558
P 6.422682657977564 1.769607076721891 1.2919922634296224 4.1016181382822525 -1.4175003377698232 -1.162239673255463
P 0.4846225692171237 2.72550587893851 3.471315132641899 0.019034133813315608 -0.9189125269538949 -0.06322522650823305
P 8.437709897765396 4.763396619489132 11.416951376409063 0.5279315540853682 -1.9716728278295914 -0.3698495902065501
P 3.382385408780649 3.653568833681734 0.8000961268560113 0.9506026589683241 -0.1231697253826653 0.5448275585097585
P 8.532333190962941 2.189802903139155 8.586453699618144 0.2620095532024197 -0.09689690772906537 0.2298417102206235
P 2.186131731268707 5.920828816234338 3.0991540342702955 0.30860719845630075 -0.4371605567483826 -0.5595419819017976
P 3.922261438174514 0.65803571662868 4.059189643068019 -0.7993572583953653 0.6613574099784029 -1.1067007596478942
