# total energy = -340886.60512368055 ev
CRYSTAL
PRIMVEC
9.12065893682385 0.00000000000000 0.00000000000000
0.00000000000000 9.12065893682385 0.00000000000000
0.00000000000000 0.00000000000000 13.34900628437755
PRIMCOORD
 96 1
Ni 5.496136261999046 3.3542316649357753 9.306726466743793 0.5804995579900711 -0.9678030820070107 -0.08268719188758662
Ni 4.18733998762879 0.5598752792424138 6.174115862113164 1.6099458667301758 1.10779682092555 -0.002889919953285345
Ni 2.546396687350567 1.9017850168924966 4.7743382815524 0.11551246594772366 0.04025344820340809 1.911442422283624
Ni 3.5859146358590865 2.9188752657907324 3.0623423142249733 1.2656167893922332 1.0420020339179281 -1.4575822933923737
Ni 5.564550322501988 2.9901988164017195 0.6966815106675491 0.2327254595263218 1.4231953312720715 0.05212063195463927
Ni 5.006247444810129 4.969390863222022 2.771894027580224 -0.003958213316799635 -0.5501235168013751 -0.25195988227590155
Ni 5.321001374680354 4.690125416143019 11.916684112131815 0.18018445220481227 -0.648879075005734 -0.696966160320948
Ni 5.9829605378829385 8.425764784333303 12.26692196446394 -0.7859787802059301 0.5261749764055776 2.3801938664644102
Ni 2.5548515379153223 5.361250841284738 11.851500588921255 -0.4862516578480787 -0.1015655168493283 0.796183488653074
Ni 0.6034464897256371 7.591671430506529 11.44439634199777 0.6985247630573196 -0.6175882353122525 0.8278080575368905
Ni 7.952001291630347 0.128443499512704 7.048475099729884 -1.3508151777374477 0.14807060238940306 0.45096532384195887
Ni 8.690209161112708 2.303449702999562 1.7499479400189075 0.1243210653782891 0.1896463689486605 0.15000895706269649
Ni 1.595850763932863 1.3234258108382893 2.749842099106152 -0.3647402940044428 -1.2499891101573053 -0.9773922683573425
Ni 1.8344289527924789 6.598167204866607 0.8977610235703859 1.0414826710793483 -0.4059126544776945 -1.5464828131795236
Ni 7.412924762364058 4.230152359312674 4.357836107960175 1.9662305737680976 1.0198321826891081 -0.532103940295503
Ni 7.538944902874545 4.250537031386275 12.88922632800585 0.937895495814301 -0.36797114223691463 -0.054214538369190504
Ni 6.781237065207238 1.060750841836189 9.348923193969078 -0.873954988406598 -0.36185474492653164 0.13557272703270845
Ni 6.921604001767735 1.001110854950608 0.6655481423797481 2.1903482370207503 -0.4828408323943168 -1.503565187880391
Ni 1.940940004459372 6.799496623816341 9.594103827622467 0.7565748731225164 0.9922455313200913 -0.23033639046885493
Ni 9.077581775121638 4.675441155723109 1.5874634062420876 1.0999117617505187 1.129260647226281 0.4802095654190569
Ni 6.203452460647722 2.105431083138291 7.153651799036881 0.3420004292047658 0.6385761504178292 -0.25149579815528944
Ni 3.621074774939055 4.3465866875863135 0.5781631118933204 -0.7230857402261353 0.16724846086943454 0.3345316316315465
Ni 5.869034390736923 5.865668867696584 4.810715116495733 -1.1382345685901172 1.1676384756735312 1.2587331748985224
Ni 6.654961546254666 2.2066247908146215 11.575456558475985 0.5691694776892327 0.21327223589771657 0.15415537513090224
P 0.32330819561422025 5.750000674749201 12.683264526529863 -0.32790512745396433 0.27383122842769614 0.5874749608666399
P 4.277926369299931 6.290043993831956 12.894579242565134 -0.9141814400268127 -0.39716216197857407 0.36176372787462213
P 2.5045602261417947 8.571065997221234 1.6125461295841945 -1.8165039238325105 1.0569691967507218 1.7213839054982096
P 6.253351584099476 7.767317074709392 5.974014083817169 -0.8957381457199606 0.7075079403925364 0.21006144226990273
P 4.912140488901668 1.3218114542579638 12.851381979086394 -0.29943324526651655 -0.8336593741113448 -0.6307265724664234
P 3.713877476661151 6.760095378466026 8.378529805272018 1.7619679975681588 -1.1780085060539456 0.330201893907941
P 4.79666382978585 1.2591798913365255 3.8966016640391015 -0.148432356604196 -0.10607651734580441 0.09805750369606983
P 0.08757930051558561 5.626744093808424 3.8852418836956253 1.0892681659937433 -0.5256602415526882 -0.19257228434620383
Ni 0.0452019842491114 0.13845889477177364 5.1195843974076185 0.9758560342184742 0.1580030310117666 -1.4834123670816
Ni 1.7107163389194064 6.5955769378111695 5.066295125137183 0.3858328530086839 1.385716103379691 -0.5803486342345038
Ni 8.103322139224577 7.956734913467573 9.016238961266867 0.5509262152083286 -0.8287331404543211 0.609791364975653
Ni 0.01231106504024426 2.6065200691443806 10.32137146705906 -0.9234592657843128 0.14981021078832907 0.5588261867816957
Ni 3.420137544311094 4.866710488186409 5.037153708697647 0.31088930962225814 -0.9645444658603969 0.48371192214536046
Ni 1.4716638758102034 1.2146254738512736 6.891931762995008 -1.0750268255833808 2.3202647942089456 2.4137747877436495
Ni 1.3856013408274321 1.188093477850332 11.771607267446573 0.8779533109327138 0.12453318138909522 -1.6990304775036738
Ni 4.3463221884855825 6.963869133932864 1.5575485579493797 -1.174610793226306 1.069055181380978 1.1164275000173547
Ni 5.445215624778951 8.155692961169372 8.22839373123589 0.7962246263036545 -0.2626582425300122 -0.2388966213340402
Ni 6.594336528235326 0.6897361291086915 5.0797371518495185 -0.13394239051813708 0.5724298936080593 0.5664711049214632
Ni 0.7363463430527308 7.864625381802566 7.044337056902236 0.7060997471911 -0.7643622303774191 0.5691257689354908
Ni 5.025592361798096 4.725267313905696 7.255931777157938 0.06801313481517963 1.5573513804629115 0.2750098221168296
Ni 0.8890699479467019 0.29371165830825446 9.370948672533078 0.6154647612113464 -0.9580945964699952 0.15914434370506142
Ni 4.4962840579415735 0.22358382604574592 10.487419442168838 0.2794408613049897 0.5101953131478697 -0.30629346272145963
Ni 8.136676387892658 7.013932429240244 5.128528115275794 0.5007807047021893 0.9385287585229256 0.17805017947062884
Ni 7.286430347603984 6.389139950019728 7.325360054902306 -0.22855410175745156 -0.8980475105794276 0.33580792724080877
Ni 2.148106644942487 5.258889689301732 2.821619858517705 0.3552570371043559 -0.30948317330335084 0.16482879568434838
Ni 3.6911670366328444 4.74700184345889 9.815403840743278 -0.13350941674577652 0.06358800916429048 -1.3649886410243526
Ni 0.8004536285430768 3.5061179933660527 4.063703987288344 -0.31623231910172633 -0.1846913389362303 -0.2772986181510063
Ni 0.34965869050810805 0.2305118783531763 0.3918572418651225 0.6718500819796106 -0.044843381566935674 0.9785052989158634
Ni 2.4351064105532187 5.465335797751821 7.333997318639979 0.6243561501637054 0.01252615749146875 0.23110000810775685
Ni 5.066389067921235 3.061057213421765 5.080057286967991 0.07908867590305088 0.4316290854071921 0.9587538273205487
Ni 3.8203702870107525 7.303121152925993 6.17188586107424 0.7997316110156485 -0.43472006562769006 -0.35732291849444914
Ni 0.7847916335163265 7.475401274088516 2.8950785553176983 0.09425638478242478 1.0809781580708093 0.2986259188738728
P 9.414617474063812 6.057467198361346 8.415546910452292 -0.8364881018093917 0.13469006731743902 0.31428676533958133
P 8.638531509225002 1.5897672846160436 8.431886570416435 0.28479569785899983 1.4316678875194568 -1.326690259664786
P 2.0548843929226788 3.4980006071711958 10.400077278778046 -0.07394029893289202 0.7025968762441642 1.6659892307779889
P 3.7381566699765534 6.598121601573378 3.773190031901344 0.5653938126968844 -0.6439109323671814 0.404096170094246
P 7.294046097573316 4.1188894444912645 10.485951016126846 -0.6820506766616964 0.4127281347376311 0.4711068317868403
P 6.432855266909556 8.118179692158758 10.317326454949601 0.1498829730077935 -0.878131745492107 -1.187982843657838
P 2.2592509912015006 8.995888035630255 5.64606894534737 -1.3550934933978276 -2.5868869064827127 0.23305584628254702
P 6.982274623080303 4.5781510899472275 1.8847330334881103 -0.8453368104492731 -0.9345175804810035 -0.48609764876871764
Ni 2.711672142673034 1.6362005577823524 0.15086390259607074 0.9142608871144965 1.5666824280558502 1.9409329755435736
Ni 1.0716135462834635 3.6637412160846043 8.294044232169124 1.9150334820689923 -0.9259313814738893 -0.02951780695345884
Ni 8.264429453545866 0.1765230515645988 11.229050294841008 -0.9549537368481684 0.6671971565886315 0.19756356691320814
Ni 2.7308893704399586 1.8981549947514258 9.323813108651034 0.5011689412795433 -0.8805146439019866 0.1632794489193575
Ni 6.37835021084162 2.7925085402517014 3.089414253217752 -0.8108470042025197 -1.9865582295818558 -1.9606440808192558
Ni 4.221551578209585 6.833507559906925 10.844078238187679 0.1935153649857635 1.7142197836496027 -0.46530539461371473
Ni 7.462367852883516 6.53419490512422 11.605905877365341 0.44342324982864273 -0.6389808420554156 -0.27282438442973656
Ni 8.03340317004506 4.005884483868486 8.327883699877166 -2.561927151213581 0.2059314792619292 0.012654455539216916
Ni 3.2662081883441343 8.529731172237987 13.072147521610555 1.4855821210394091 -1.020959354315016 -1.8531704260156086
Ni 0.5938196345248831 5.125016661697121 10.545381227863572 -2.099513476325365 -0.5902463529641899 -0.5928241409936952
Ni 8.309376059352893 2.5923465656086426 5.928733661903703 0.8954314131128192 -0.13732621938870543 1.0310558193190695
Ni 4.227206386570047 2.525683671565714 11.305780571897285 -1.4835370655849223 1.121264516394682 -0.2595268959898821
Ni 0.9507465779079137 3.6584877167045624 12.889719755638595 0.7149016617534462 -0.8600437776421446 -0.2022537733000259
Ni 3.0653348023266953 8.807965984890004 8.308247833878394 -0.5178152915869727 -0.0016398495962681437 -0.2449572257058233
Ni 5.792694477870688 8.276806187328361 3.544187622554065 -1.244681581901463 -1.0876010627039656 -0.6223656020962378
Ni 3.2783660263191274 8.753178188404044 3.8355160527581442 -0.015872191145566213 -0.4863843267712011 -1.3100125418987891
Ni 3.5623742158940024 3.0290710635505715 7.3032679955301925 -0.47432611005508635 -0.8327926552356755 -0.38182630295245207
Ni 6.027159249681 5.754196177726318 9.60529031545167 0.46820534186932916 0.7627079826034477 -0.5367913184688433
Ni 7.944467627588828 9.195083220456848 2.822780918363329 0.25014056967897563 -1.9029035315746778 -1.4655717393557532
Ni 4.9303179615829595 0.8044977285866716 1.600866214122247 -2.2852360847395867 -0.9613431853142798 1.9892260062220064
Ni 6.287344278872768 6.118128699015269 0.43717961880835987 0.46715093246288575 0.14554603619533643 -0.040455536911885165
Ni 8.727266397191025 7.2331474597945995 0.8024957440138951 -1.7220793889033374 -0.35762605155716476 -0.6912691099361707
Ni 0.3327097705464205 5.256682489909423 6.464056128071337 -2.077825192718654 -1.157746670481116 -1.4489323310268596
Ni 7.516207100870301 6.544610697297845 2.856406962659056 -0.7406854555857696 -0.25230389587888163 -0.96022012745343
P 8.167467731481237 1.7430125911845604 3.9273574370589617 1.358775570235105 2.193227101230442 0.20827041180775102
P 1.9059440372350298 3.2520346848083963 1.7846684633521435 -1.0389876725716365 0.41234555458723177 -1.2890878759309798
P 4.634151934033093 1.2590065988222532 8.297341350269619 -0.007314531383542241 0.25567101257890157 0.8813317404866434
P 8.674512507583104 1.9091545090783888 12.644138725070654 -1.4358904102412369 0.42066435886557224 0.6440109482801554
P 6.270726438819926 8.09286986441637 1.3078577585955917 1.7670389843331633 0.3837646576257455 0.9680344812915262
P 1.790631549974837 3.590976601407564 6.1370048141488365 0.03838914130115969 -0.74640487456805 -0.41752864145006796
P 6.84924981672976 4.313031784428024 6.363617610930888 0.27901585795242917 -0.32948378479499385 0.7555446320857891
P 2.5121759761111266 8.583324162441333 10.969812902082548 -0.5673568499605262 -0.10352418323759591 -1.2548382107194906
