# total energy = -340874.30112938414 ev
CRYSTAL
PRIMVEC
9.22345120955756 0.00000000000000 0.00000000000000

0.00000000000000 9.22345120955756 0.00000000000000

0.00000000000000 0.00000000000000 13.49945316592375

PRIMCOORD
 96 1
Ni 1.1298820099833626 8.094288737848421 8.238149675100471 -3.090147697294278 -1.0574710760878046 -0.7295281534173694
Ni 8.354980365918149 2.9745722737091485 7.017124286221814 0.32302208833005014 0.7471250405635262 0.4813120544546162
Ni 6.569357084436863 4.482182285544322 10.57574209963892 -0.9590546463904194 0.009393011179125757 -0.12482834403201082
Ni 4.689018181364576 1.1711938484395017 0.9760117833603354 -0.4718545085861422 1.96082842891592 -1.846209421316743
Ni 7.664909408612288 4.030334628896009 12.570083783354592 1.4692049652329664 -1.2439907264820254 -1.1668761435862098
Ni 6.713888566599778 0.4218631387565818 1.9579201191486704 -1.2587162056176582 -0.7923723424370999 0.6830114979130688
Ni 6.275756182062267 8.694975228425449 8.21509196914903 -0.08062619559349984 0.6394107305039827 1.2283183100520911
Ni 1.4349384388956958 3.6569232022613165 7.162188883870946 1.2760307856367057 2.0231720241501474 -0.8611364964856912
Ni 0.48047263781567756 5.820403613912875 6.338047682887758 0.3013811130215068 0.32829593513447974 -0.3585897010220147
Ni 1.1697088727772023 7.609236656453044 1.4701176045700786 1.7125459954916056 -0.04422708813917545 0.6169341466680214
Ni 4.680468041992207 5.645434742398484 9.38804657444526 1.4389726487109862 2.411205998575208 -0.051695628602078714
Ni 6.121401724245011 0.27501841500295443 11.553250849148268 -0.46289987049601566 -0.14878254085476314 0.12295272427585277
Ni 5.234363964029829 5.778086419263005 4.835328867286854 0.9737446443024262 -1.6497069486781977 0.40416790387244583
Ni 1.381912817264898 0.2665725006304859 10.288230519824882 -0.9150674421761917 -0.9123078771531836 -0.01950156036803738
Ni 6.00435612701161 7.744184972695904 3.629463142995495 0.2549888989102124 1.0076760069425486 -0.14706632949460477
Ni 7.0499634622966605 6.028789049554658 0.06147707007405741 -0.606352257387117 -1.859811328370894 1.7531164607148002
Ni 2.4945469732824246 1.5425484454301395 6.633941535260166 -0.022906215174212163 0.4237106018910638 -1.1948217209565422
Ni 8.614629743988873 5.718742733478946 11.102733214180104 0.8125961256831424 0.3540527323836096 0.21852319988401075
Ni 5.567487355304751 7.518016722911804 1.178672222768646 0.09651278491676928 -0.026568237406831664 -0.5992323585128841
Ni 7.978488306543034 0.7767391176213574 6.550690663658221 -0.09367325858544513 -1.9792717232227717 0.5664214826304503
Ni 3.7108250517673844 0.6020635518588989 10.649812870143434 1.3761318021253655 0.5165166273802073 0.15025141209080575
Ni 0.7588308645411075 1.8585900048629598 12.827639437975986 0.84648995021711 0.9387845832874736 0.06316531980457508
Ni 4.170983038053781 6.158802819342052 2.7592886188261625 0.4120149107206904 0.003244217968910542 -1.0981060760003476
Ni 7.034634086205099 1.7669642394637 13.399219483226817 0.8806653105472382 -0.8791537589987181 -0.4795436497002838
P 2.898294331304087 2.4638605507453457 8.680431690386234 -0.9822647659582953 -0.19025546328756912 0.10716332265207995
P 2.4542589379226536 8.507656155595415 6.3529509355283995 0.32945678821180036 0.7769292684091523 0.10297422427139687
P 8.949238110926093 7.967586187084415 5.722350947634794 -0.408780977164425 0.5563124192209065 1.1744351868803902
P 3.4470251206032785 7.217341433375819 0.6346380148809008 -2.1290225415280752 -2.040494060368363 2.8050884613612466
P 4.933900813874174 6.383449199658577 6.895642208904151 -0.08609287513502592 -0.08915942987549161 0.6969767018439094
P 6.706103973686855 2.2304703385787596 11.13591458029887 -0.24972122275336994 1.30250852021226 1.0378319617006384
P 4.2562999627511 3.420516921513539 1.6995675583333467 -0.4058802585778622 -0.3726178969803067 -0.4380624997373617
P 8.988410108676309 5.764527945824621 1.4752338530165219 0.7026580684994028 0.3309079188360301 0.06626555599645362
Ni 7.823663452708529 6.848043666029236 7.372442990749883 0.4239605131183409 1.5452862217682612 -0.013289518020054533
Ni 7.430892001756035 2.5087879821183874 4.951964020936577 -2.079948923929876 -0.7476672862202414 -1.015714818086625
Ni 1.0277507335321845 4.739295214502422 3.9588224437872834 0.4195911804060516 0.8160709716056204 -0.22292004340012575
Ni 2.5514187741130905 5.113195484057002 10.322410785721457 -1.7605158385026647 0.1255621368742418 -0.7380364479986967
Ni 2.2069782080702116 0.806671061840572 1.5159341766502357 0.3525509510271025 -0.15165163487244207 -0.9826614871760819
Ni 8.066489255574073 7.829059171729927 9.716717805768678 0.7702168893859833 -0.32609867037284485 0.3013124645671004
Ni 2.9641866675243724 5.663429695921129 5.7362553004976276 -0.83670073204083 -0.4861369866470853 -0.8455846647940212
Ni 0.04744174420249977 3.7465843725297088 0.888729341187018 0.5194538556316602 -0.235015284001763 -0.2821724013035399
Ni 8.608108763906602 0.13648955495820278 11.820593507963858 -0.534509464413202 -1.1469225832824184 -0.08066450503060302
Ni 7.983339841936633 2.133070692654038 2.402996840183978 1.2433237823219876 0.5596599955369007 0.5628782453638821
Ni 4.4499094293804395 5.199167273797942 0.2517900752021193 0.8801505756943486 0.5451456039708096 0.9989023745149764
Ni 5.631083052146697 3.3476147622910957 3.429549447389872 1.6012197997110875 0.18834513363873367 -2.8540031847840783
Ni 3.245953881857168 7.482737021618048 10.947206455700249 -0.9178401198253225 -0.8359844227000958 -1.9548835241863947
Ni 0.41897896552924657 7.482432647724533 3.712295269907574 0.4128777729416179 -0.24900517052295185 0.4189193511500076
Ni 2.198695548786083 2.5726511590485743 10.950972390873646 0.5323564226259412 -0.0027320542191823917 -0.7597100763173884
Ni 8.164174828489672 9.307292491115268 4.152148750461142 -1.0218404713683884 0.5061640805012896 -0.26091426325571193
Ni 0.5677384777766215 2.195052285515225 4.558427945869767 0.3192726485899469 0.4312418772711024 0.07654148400116496
Ni 4.153200223911465 8.400193724282067 12.761627196888558 1.9031560139051158 2.614344231362717 -1.0469547499375131
Ni 2.3958652676244134 5.727283649399998 12.577480991312132 -0.7781672545813115 1.1729753145054123 -0.16832832419717464
Ni 8.013131589695805 4.428391117454078 3.125244729760007 0.541685413336351 -0.32426984469422215 -0.37361857033067913
Ni 4.866468161283677 1.5803830427391554 8.48560749521823 0.8068949615333072 -0.16978433991741082 -0.3605691933458887
Ni 8.913165192818933 2.165583358552205 10.74352682492123 0.4633102185605569 0.5269967009759247 0.8484218771325001
Ni 4.082022850085606 7.778302519123512 4.944282730678422 -2.5924911400433674 0.9246057206839301 -0.07186361890952139
Ni 3.769744458790786 1.665349476286365 3.3338791985873937 -0.0479022229979175 2.1096780755631923 0.9638736650456174
P 0.9685915167744984 7.316373630183938 11.169258279160845 -0.24131011587153925 0.5158491689995374 0.27634319621627246
P 6.296167679830392 5.565356738050148 2.862842151470673 -0.5033970592791137 1.172041489837233 -0.3798681507848167
P 1.350922020834305 5.715311609588417 8.35732220020795 -0.7192830786505935 -1.0470254552744485 -0.10014575368366624
P 5.967702131471379 2.699390603617854 6.909978219288696 0.0802379590161457 -0.4888430727243387 0.028270050589286798
P 7.645300351108883 5.565015470351358 9.028448188505346 -1.1409565955069705 0.6089786392663705 0.5947247004505177
P 3.1170745965819657 1.19481510726651 12.68249367395525 -0.29655875193219894 0.8536851824139685 0.5092931130485745
P 2.3470455397949106 6.623046794562601 3.6524120122213755 0.07792036662656258 -0.1405642667100289 0.7048676745562119
P 0.7992194355202517 3.9447963413670446 11.885337524494977 -0.7726288412615856 0.6818899827141159 0.4132696090633979
Ni 6.1426986733397255 7.996704622897327 6.067788568765216 1.0012238235593014 -0.24559923016519639 -0.9626061111871035
Ni 9.141749986848515 0.3395060195874123 0.6790950502366923 -1.6839373306159773 -0.3166987172151836 2.0797139251009344
Ni 1.9948941684496582 0.2019483889665123 4.2343868871083 0.6512210928753495 -0.7114687248124972 0.36052445615088236
Ni 6.711020073239684 3.7141086004368162 1.0488493784235482 -1.1154098573861175 1.0749165252577615 2.2732154061296272
Ni 2.525528546261699 3.5349430585724493 13.440892880974646 0.07077501383103295 -1.5387383933474146 -0.401666734717147
Ni -0.020714949316508715 4.184403159722387 9.199985013784074 0.783369110497225 0.38676282102212095 0.5403399550520501
Ni 6.723250369688186 7.227634805047408 11.748075044316273 -0.621976079967303 0.5858212273133008 -1.179109452427608
Ni 3.0423277470957966 6.857018084162261 8.091437769045832 1.8715016202246284 -0.5402620506262631 -0.4438135432885259
Ni 4.062367675325608 8.896028020268922 2.466525205831298 -0.12614346329900858 -3.0402312720798093 0.758675721515603
Ni 3.9906368944206303 4.394375028990974 7.429775041801349 0.6626524746407426 -0.9425057408928026 0.8332330852072037
Ni 5.124890820329023 3.129240328871237 12.837359110975557 -0.4100169064540551 -0.4473369830607522 -1.2957730012606392
Ni 7.744904401898757 6.348372414293832 4.798529141215789 -0.4092005812003469 -0.48723896146201257 -0.03476594272627561
Ni 2.225766378406259 5.367080205053582 1.4752476881935 -0.8711206042815965 0.5594247395976429 1.0761370279284241
Ni 7.828385859783666 7.556017342344555 2.1851158614096655 0.7134741852783002 -0.9252361551790774 -0.5611507211498142
Ni 4.503488458090355 3.405150651616703 5.1941035990240145 -0.8006217269300856 -0.645907651082236 2.7017342280426115
Ni 4.868912375883115 0.7745577713845017 5.946900481712475 -0.7886928367029837 0.7223825435115236 2.373383014190164
Ni 7.364750632350146 2.507413687871912 9.159783678866699 -1.6075940786685476 -0.20072962334601557 -2.064350812381303
Ni 8.903923294597668 7.251099265202002 13.296164939298643 0.3289312547256335 0.288515055692116 -1.8936956398231646
Ni 6.8060585156268365 4.752521643693336 6.973466924095347 -1.5288334755288768 0.3843321000934413 -0.2284114055320002
Ni 0.6401739303623419 2.098851688261925 8.544100778790712 2.0560770024082853 -1.616634591604261 0.5220802375109138
Ni 2.9942366719204654 -0.022353034270697212 8.375627984040031 1.907605307925721 1.4044345057248007 0.6211330152407173
Ni 4.307729927303774 3.526282237784257 9.930427017511574 0.5500602676636076 -1.987425719788474 0.48852888391802957
Ni 1.6257716466781285 8.697373325768291 12.800654386453074 1.1148835525690026 -0.313574312653589 -0.5781313148682107
Ni 2.0250179604563003 3.0518002316000286 2.2342408854778153 0.010140687978427695 0.18803094483242458 0.9896250629781086
P 8.513282460899777 4.302657029078528 5.301789237859271 0.26865559776402764 0.365094592020068 0.03583629297231893
P 0.49906988270942904 0.8130739817459642 2.7761085046508147 -0.35676421777750167 0.08056706022079028 -0.04280835341477788
P 5.640269609660051 0.7904534673870267 4.110003112005798 1.402024096511095 -0.4011237177294834 -2.4338502183372857
P 2.3898700242673048 3.4585821051055206 5.046622457129401 0.2813578758220445 -0.7216281818440023 0.41940863208160034
P 7.110091141442802 8.689229018253943 13.511872872942286 -0.2026216981624059 -0.49955223161172674 -0.47085023569134393
P 5.20658292865812 8.106712726774614 10.089909714261987 0.27449097349888213 0.09738516021939357 -0.31613256029906844
P 8.713348343452157 0.42142318012868324 8.672980064065914 -1.5389888187953238 -1.1669949285522612 0.14431319222949984
P 4.4177933718889735 5.0178618912276525 11.597002290478185 0.025992567409019753 0.02051534634453241 -0.6601934715772888
