# total energy = -340893.25283822784 ev
CRYSTAL
PRIMVEC
9.06349566318482 0.00000000000000 0.00000000000000

0.00000000000000 9.06349566318482 0.00000000000000

0.00000000000000 0.00000000000000 13.26534205525577

PRIMCOORD
 96 1
Ni 6.495580899411145 2.0353439490372396 11.64230152823182 0.6785963995645087 -0.0065910229539563915 -0.501958012839742
Ni 4.442608450915498 0.6437746732293356 6.1088496879763055 -0.7913963516770758 -1.19972378624385 -0.23805998436535772
Ni 2.5090022429685566 1.6112720409861034 4.482160640522976 0.5530352911315315 -0.11760817213448778 1.109971974199998
Ni 3.5875219969802474 4.11749179072395 4.863180943212962 -0.5187154348037389 0.8350164023598716 -0.32813575540753165
Ni 4.792994137580074 4.555367402978251 2.628023164324788 0.9485817718835534 -0.2635311320532688 -0.164532090379536
Ni 7.261781649393383 6.184730181711904 2.654659872323922 0.4970708599507697 0.12306045349831066 -0.6375888468038955
Ni 5.372568444195688 4.361662369340667 11.868647835879436 -0.29326285478974656 1.1026576999267719 -1.8082720228410212
Ni 5.830193413940925 8.147520846345772 12.469461538706275 -1.0076693220743291 -0.47052242003827993 0.47374118408589383
Ni 1.9060441170199387 6.587937922280646 0.3354164168931078 -0.2932263451248563 -0.5213873252089473 -0.6740018382152909
Ni 2.8419044461085727 1.537730835533392 0.44244180147134277 -0.28755577710264024 -0.7036124619928721 -1.5435437851558578
Ni 0.4306474743015605 9.042260094692608 4.645589066221839 0.1816201562100743 -0.17886676183465325 0.48933621031067337
Ni 8.55664704971469 2.4905670923781185 1.458776004000214 0.9737449014127424 0.3910311093801717 0.4997077833529846
Ni 6.855637336164216 0.6334676657310826 4.791415276600302 0.07265320469035229 -0.35887149392849166 -0.32789792836511267
Ni 0.7536740923465223 7.613055558652778 2.6513435391867337 0.8813739065784887 -1.3980080333731666 -0.3952857708914676
Ni 7.5124870085291295 4.119757664690327 3.7328406515902435 1.1073556196230736 -1.3992326498088872 1.1708675241337898
Ni 7.7670534169035825 3.831547559663117 12.701884013982125 0.3205738838998737 0.3875724614076099 0.1871472566758906
Ni 7.902135759283076 8.796929388605106 6.9639334228627945 -0.2382098796796607 0.4678348459037879 0.4677422861899816
Ni 7.1504819201649745 0.894584262567536 0.449089875688691 -0.8682767070748983 -0.6731736858870406 -0.22367543350891156
Ni 1.7579737850651753 6.512022080911173 9.19530991127588 0.4036811940440145 -0.3084881563799332 0.00599144169674452
Ni 0.3416847306336914 4.987949933647097 1.4313308321698768 -1.5233336287565702 -0.5515800467422437 -0.5210034595069672
Ni 6.411652927696564 1.6935957739324898 6.938052610418843 0.9152913852615397 1.6712944450409863 0.6663625765024782
Ni 3.5453132967345886 4.353396461111327 0.3332665556738099 -1.1138301716038237 0.7827049945506649 0.18561153675765454
Ni 5.847314357630865 5.3505260222507784 4.869534453814682 -0.5363282627894956 1.3925274698745695 0.4846740289483137
Ni 5.649621385812459 2.8874031953534107 9.511701143997707 -2.583333384803499 -0.48665532104440057 -1.9174940277943426
P 0.23705664071188257 5.632799537486081 12.486428402966501 0.08836932987402844 -0.601039586924952 0.3280997599632736
P 4.1199751885910985 6.218428259339853 12.461767537066047 -0.30038455343619236 -0.08950627169194908 0.7192254859397806
P 2.4208959996599777 8.48421159075757 1.34729409850491 1.0971794504210202 0.1735252950170818 0.7914691138965402
P 6.177977877292102 7.873032874058938 5.874039887889482 -0.0806393082196224 -0.5064047357571859 0.329056210339272
P 4.738123733610303 1.205680601004733 12.598320884824513 0.2689047376603562 -1.4196839756847035 1.2967646757499474
P 3.975738715387444 6.05833973186743 8.114476246769726 -0.03974565532905413 1.499235964377418 -0.5472292259727156
P 4.620189525408347 0.972839392219897 3.9054096128694678 0.07224979860434654 -1.0089577018684495 -1.8305853416262408
P 0.15139119683988436 5.676820936904841 3.618559938571671 -0.29888791428600786 -0.3246148867384668 -0.22051169106894927
Ni 1.4103162106561158 1.0655861454116147 2.4677515542358814 -0.4610319640493415 0.5271124006181825 -0.11995224688663214
Ni 1.751620274463456 6.3633173042458235 4.809429880982582 0.9626683318836066 0.8208197991445153 -0.22687517139313185
Ni 5.792344255206575 5.636542761278535 9.345698685473039 1.1569270027932976 -0.2705967806507985 0.2707003961081983
Ni 8.809246679486328 2.179933898579649 10.162578878936838 -0.7090896830573595 0.8616779708114579 0.4259099235352277
Ni 2.244076258819831 5.337528969179643 6.880958930913265 0.616795307097312 -0.39620802559542084 1.405025345231264
Ni 0.47028395442058907 8.947818467774042 9.021666925736593 0.13871204399263853 -0.15827531083654678 0.08416429065374538
Ni 1.6820035627205083 1.2745812965743057 11.28090006869231 -0.5002837104611126 -1.063366358526317 1.6368884567572908
Ni 3.9483397673860208 6.817316875644859 1.5817060111232382 1.2175536153364195 0.6263731805937341 -0.18816952729281786
Ni 5.36786448984149 8.084710819997818 8.234302006558814 0.04413529975631754 -0.31832519707501306 -0.727661789632592
Ni 5.365072933114915 2.6682569288213536 4.868434145416609 -0.27004039392669626 0.813053010714903 -0.009096562984629495
Ni 0.6293383370147584 7.391987830997235 6.802109235932127 0.9023206840334846 -0.5334334577402039 0.9763990512061377
Ni 5.292293061314906 4.4376416551812 7.316433623112793 0.6838208811882416 -0.28418891751293635 -0.6731960544845438
Ni 8.094372506590448 6.956287457750655 9.331319449282415 0.12945710105327382 0.37365790820904676 -0.6371908400345284
Ni 4.985203694399849 0.4266568170719784 10.53241664042796 -1.6013576108405325 0.3138998143138078 -0.4678376741172652
Ni 8.136535889356779 7.051644497751638 5.066525004703511 -0.7926417940484026 -0.1671741559880734 -1.1466711293932446
Ni 7.081517780124344 6.2675070894515645 7.19847766252076 0.1601802411687435 -0.2001603811061069 -0.4942166783314263
Ni 2.333723296425546 5.341734431261238 2.559601021336914 0.04230981651180455 -0.7941628586786194 0.5219380555060947
Ni 2.4349172277639144 5.21634096596197 11.355398379308419 -1.2404688293716961 0.25766593152174333 1.6820527119987547
Ni 0.9160384636307741 3.443122380851014 3.7441827103163368 0.36151124554418385 0.29413960096774505 -0.6793813573596493
Ni 3.740160330851225 2.3389348065482114 2.333426920110744 0.517351978797309 0.9743362551398382 1.6562154392206767
Ni 1.0351690532869782 3.1828006526019657 8.023966364357614 0.6259659178529864 1.2784897887001594 0.5129165687337747
Ni 3.5321712277296053 2.9517630794943654 7.314403400038921 -0.18309751208654917 -0.2930152575553147 -0.17029933188061638
Ni 4.0073249984787305 7.014855768033551 6.068390242432689 0.8851763110437143 -0.09526194322880367 -0.9017429571531438
Ni 0.4217425896137013 7.347078208983654 11.187910413811395 1.2170931307602328 0.0369089572112074 0.5103364667114244
P 9.216397040756565 5.509255025343376 8.088489391424147 0.39005177618603787 0.5835465723465112 -0.5284920545745285
P 8.615006899592679 1.6271875397259312 8.066548480632932 -0.6512835706821687 -0.8047902564854785 -1.6175277928424916
P 1.7708711396817898 3.2364112306464303 10.249227712110242 1.0437305865732605 0.6080520136870431 0.48733949159561873
P 3.891330378391991 6.130748000336952 3.9046537173142846 0.44739020489619075 0.1855508587230482 -0.2369821779201467
P 7.018762134751584 3.9512310225671174 10.47471208130105 1.9233535718989134 1.5675931127955778 0.7667317590508601
P 6.299990658633537 7.750938521254714 10.237647283442886 0.8145051697803972 0.0039623270818576915 0.2402446507215024
P 2.2867562608504963 8.500090835513936 5.716553490080044 -0.17709090088115306 0.224264216132846 0.14675111224703113
P 7.024861867469069 4.067687880942997 1.7116140037131147 -0.9448495585346308 -0.38204536094179364 -1.2962887645547934
Ni 5.395807247594844 3.061068839632361 0.4920435952944947 0.952233766813844 -1.6162841502433778 1.0753037333938513
Ni 1.7482577174973535 1.160190915255761 6.980647415588374 -0.6831989313335266 -0.027434956282501137 -0.8751541509210218
Ni 6.870755247267879 0.7969405025596857 9.176777781279682 0.9875908061568991 -0.536627024976837 0.18587867437611214
Ni 2.7143357418015834 1.535129612219992 9.240159714216746 0.7064206208656285 -0.731998726445049 -0.8662432215846372
Ni 6.313567775440064 1.8377506756733546 2.597128425968039 0.7424410048242955 0.8273540007186073 0.36503494242672613
Ni 4.235978872173703 7.067605313970794 10.432767128785075 -1.768190581439103 0.3080832076320307 -0.02310573277952795
Ni 8.090438949384819 7.313352940868109 0.1333149606857202 -0.23155612180856894 -0.17857905539090535 0.871501641770099
Ni 7.8256489176740756 3.8805901357913672 8.083953111743462 -1.7471430167401847 -0.4267745855283683 0.02415525708996485
Ni 2.977449026777208 8.469619362414106 12.380332026714482 1.0854379936143759 -0.36548668525216405 -0.3842323412907834
Ni 9.148783361599893 4.717196121656851 10.409380590403313 -0.06515972452678455 0.025246433271614584 -0.5128836586133103
Ni 8.768234360694915 2.2836927992479557 5.684623700495456 -0.0583270178756673 0.2092428030233493 0.8231841856116339
Ni 3.864248652745861 2.6675046586645164 11.398351192564634 -1.443384918846069 0.5651243610855816 -0.7392158130187785
Ni 1.125532107066068 3.2864054738405586 12.68076516226591 0.251025029166458 0.788301771912152 -0.8383678353306078
Ni 2.8907204348401856 8.297866115762776 7.857751820029696 0.37362345542668557 -0.19732111188509888 1.012677573922198
Ni 5.718277366993663 7.747412821363032 3.5331573360797726 -1.3108021276796198 0.4625093199258164 1.3037377646336707
Ni 3.0137483277185573 8.290533747607583 3.5961812609301513 0.7369121045862663 -0.08168163344120771 0.14735660704151396
Ni 3.4954550059784424 4.61505958674847 9.509141612765285 0.525557911646869 -1.9621638598978919 -0.8442597753350105
Ni 7.23206244645039 6.062771781345662 11.475264018479313 -0.15712551350281972 -0.24640372834436275 -0.04598289448801759
Ni 0.6660028968394877 8.979513512815714 0.3220323525485158 -0.8898099531609838 0.763168210069318 -1.0397078385671126
Ni 4.805320491957161 0.17783122697873696 1.6186506329702115 -1.3363848612447307 0.8904249610371633 -0.642188550359436
Ni 6.02661749633816 5.542518055169781 0.5022499979886403 -0.26659511569057315 1.8129203202463098 0.1648064270868452
Ni 7.889881912872912 9.029698089423018 11.465354898449558 -0.07991091469403012 -0.625425214858168 -1.102769800024604
Ni 0.1134749682361287 4.814828099120076 5.9610866085313825 -1.2865355418227713 -0.4247218167643976 -0.8359227162242249
Ni 7.969640676489361 8.807316154866975 2.4607472846310188 -0.9803636922808405 0.6982987630894426 0.3463939302867712
P 8.554752779078798 1.660659029957243 3.584029832023268 -0.6694098479692343 -0.20120039233484704 -0.5872407333686468
P 1.9154610892241988 3.315698692477872 1.4216863662193926 -0.34118307550979304 0.016260170612604256 1.6075817373733732
P 4.6659239255456875 1.227233594172905 8.249438044654207 0.25372725858896944 -0.3120663606494948 0.5397018072474189
P 8.760303801812597 1.622202616999903 12.401185318001836 -0.056814952106515056 0.7386278017257925 1.0092022137790877
P 6.272528266161055 7.798340604631307 1.4129709085951225 1.2939801710262746 -1.3224188859829418 -0.6679255501142238
P 1.8953038744193145 3.3410130364302293 5.857750066770408 -0.8833737106173367 -0.8630311424052426 0.38052146809809945
P 6.919199632669007 3.7021480291912954 5.864129861510137 0.8337457631775641 0.48498461821019695 1.579824364754447
P 2.2293571415342504 8.381322785692351 10.244995965890638 0.47731244637691994 0.7005726467252837 0.04031309779674992
