# total energy = -340874.80876509723 ev
CRYSTAL
PRIMVEC
9.14280901309800 0.00000000000000 0.00000000000000
0.00000000000000 9.14280901309800 0.00000000000000
0.00000000000000 0.00000000000000 13.38142515996631
PRIMCOORD
 96 1
Ni 4.3985779552500945 3.8652230526057845 0.5574416328112124 -1.67374547768464 0.1806981586164372 0.593215462894843
Ni 6.049558966200477 4.3563747491576965 12.464436235155144 1.461530222296528 0.41931735791937463 -1.4487942627870982
Ni 2.866261461603272 0.5844394333463603 13.176006426888591 0.6215875862796326 0.8112342123386094 -1.744996145600511
Ni 4.381032904883693 8.644717856951974 7.026706729339937 0.40530304591815364 0.5236213567457885 1.9559345911587283
Ni 0.18459239832861957 2.6759904646386063 7.136179980810592 0.9400919892449874 2.1264432108366735 -0.021707823990736806
Ni 5.598855056423429 8.118183489781003 3.2035533978159463 2.680081425659526 -1.1726153600628322 0.04945825463112773
Ni 8.049402138084055 2.3294140059417834 2.3648862760885097 2.0458455544882637 0.3834540683638622 -0.10749756606304713
Ni 6.455097399786788 5.116398171178682 9.554846087678285 0.22280382953723565 -1.9923123584568139 0.345107864485496
Ni 2.890416762837266 4.881226839482697 9.995001024494023 0.24126486445590062 -0.8787668079729447 0.6265932670243402
Ni 8.688959909439218 7.303166071952876 7.184741096243687 0.16229780173237854 -0.7239460313439017 0.0781985599886137
Ni 4.859722952842897 3.510235209679108 5.226851531768294 -0.6305275690817399 0.48549446796707996 1.2106679439601795
Ni 5.091356017476975 2.120509964346202 7.746640762696722 0.03073368163843094 -0.4493295880107488 -1.6712365952198576
Ni 0.6470649317803072 0.2510240481265754 12.116947324125562 -1.1310969291040713 -2.1451348737089053 0.304684723473443
Ni 0.0975793713134632 8.292207715249528 9.537115438290288 1.6478997202661299 0.7841525256304689 -0.3933792978973741
Ni 3.293056925987855 2.360051558718132 9.759594722608139 1.323451183902198 2.0248540398382615 -1.332752663808782
Ni 5.16436134690674 5.964311415592696 1.8775745592937052 -0.9755505871629134 0.583606479050169 0.04189586890283752
Ni 0.23688012268789696 1.3041576964120316 5.314339070567722 1.3386294343045333 -0.022929355102663737 -2.658424509511383
Ni 7.772119028385128 0.7022216695866804 13.204803532224213 -0.2056437728181813 0.31308914548705435 0.480539695064966
Ni 0.9721365895564347 3.1787718141691856 3.3836137057502844 -0.8238827543405552 -0.18116532806084285 1.419399868785381
Ni 5.450832979595889 6.476391001820842 7.939493688907595 -0.7551970189383833 0.8319968988072574 -0.16016789987356933
Ni 0.3827993534579735 2.7655442782597155 12.033902276192748 1.5459145993808796 -0.7572235624501088 0.7696013672891714
Ni 8.817014091529801 0.02586592078769571 2.040226044714929 -0.389530099354613 -1.5913920149873884 0.5566898571649832
Ni 6.846354765800237 9.049351152452683 7.7581351021029965 -0.7156858482176384 1.3902574428934704 -0.06057673314179245
Ni 2.9700140575167326 7.075336415840122 9.272792260271597 0.1895484099182155 1.30386400579889 0.7316256593763464
P 5.505497834280995 0.3577379998574812 12.754291621435021 0.5259412631282168 -1.600806880543385 0.04301841254305494
P 6.666588856313943 6.582182444129147 12.412797650230997 -1.5194497203211317 0.43572305297090763 -1.194265077122124
P 7.950495230911707 8.946887692600535 5.852807546255246 -1.0668008381291627 -0.3405624112066587 -0.9959672031460525
P 5.2295952887328365 3.498568985464658 10.440414905015208 0.2684869333966473 -0.2869243141662285 -1.1716769074089626
P 3.906319978815778 1.3984749134937429 5.876265251166699 0.18603319767610543 0.9475481884127165 -0.5181487636669915
P 7.1923369419156025 5.843077768975452 2.7671854124654316 1.3949124251669784 2.952955432380276 -0.4778652335565964
P 5.010305016175175 5.680527768733522 5.875020914869217 0.36675809576542 -1.8751641566778803 -0.36091577805203
P 4.793785014727997 8.199024206477057 9.174720091555972 1.4604292759228654 1.37045454923493 0.48371037948346374
Ni 0.2065479397303277 6.575407622700537 2.072314561270928 -0.14028144536228745 -0.6745363705625221 -0.08302580617392798
Ni 7.965772864659627 3.105144773731127 8.804348558297608 -1.8825648200173255 0.7667703255982795 0.9137063001626071
Ni 4.391784848203593 4.3504227805341795 8.057169868564147 -0.3156543351110693 -0.9480762930020447 0.7298063467794205
Ni 3.0525919079124297 2.559090509461526 3.8898866940171484 1.6980863684228495 -0.21708209656211 1.1064919860711975
Ni 0.903809635464078 1.592668175496025 0.8767834922211991 0.5003328185314931 1.2561111638946432 -0.10539851744217331
Ni 2.148368103203121 1.5957127308748744 7.29050785296784 2.8562750115373903 1.1462795503817809 -0.8944137704815821
Ni 7.020625847110289 8.962046469832165 11.012711773801058 -0.4347347209157094 -0.1039972662192725 -0.3598703675066512
Ni 6.722131420657817 7.8786693238359105 0.9101026308612612 0.4848810027527971 -0.3728657513250546 0.42161540992493196
Ni 6.630538760641862 4.1719094358734194 1.7054895236025207 1.1196814881782782 0.2706461458314952 -0.16155963801477338
Ni 5.189878926673613 1.2393717522242647 9.887802503889004 2.0605674340794704 -1.534438737530796 -0.06998542805020205
Ni 3.4451292671782485 1.8917843129567908 1.6551748174136807 -0.9909484097752224 1.6270478165177849 -0.044003659274459705
Ni 2.3566138625546267 7.2792850549872465 12.079947290604045 -0.18875291060011365 -0.39783450545525034 -0.1574967807993094
Ni 5.737368611947655 0.2843569009800557 5.127200399947782 0.7288789498691447 0.9139243297106842 0.6301377898424889
Ni 2.502112524113211 8.816648379171982 5.645034470126221 -1.9687232582829644 0.9924360500643424 0.6955847065923891
Ni 7.01129103917694 4.931960286321241 4.6120817440261535 -0.8938825805684605 -0.3370106892996583 0.6879194767376475
Ni 6.301809065006643 2.429975761533267 3.8686506916794503 -0.12139746397359094 -0.4026702362809968 -0.10538103394067656
Ni 8.85617274224335 4.822978003690958 6.216287230130497 0.8404650841792686 0.4717835461388908 -0.5169303178788582
Ni 8.464878804994118 7.123391019657636 11.286068047057896 0.13807183930547834 -1.298607642495957 1.8597719904925263
Ni 3.6573064343763164 0.20435732270698742 3.512235656276382 -1.4653444538362959 1.682466916718038 1.2793511082591902
Ni 7.37041143174698 2.204258094286923 11.230869252330375 -0.7372000681403303 0.48353734424070915 -0.4132886352267915
Ni 6.63261417827249 7.041846306672779 5.8580134616688095 0.5124931080431109 0.6493357029271785 -0.2881219340187554
Ni 0.22091403542638163 0.4465411888641652 7.452209400539627 -0.3383008688659916 -1.5770300898387615 1.039810682693564
Ni 1.1010227672610569 5.463504912794344 12.77378774723039 0.3140412249876785 -1.092696732059318 -0.6381822574135203
Ni 1.3211907494774862 5.804833399156452 8.338889069163429 -1.9018830607299635 -1.2132812132133104 0.06192244853640949
P 2.0389195373166182 1.322187315652545 11.139862646367826 0.9561467287150051 0.6408824299535028 -0.20306315657519863
P 1.7583541592062586 7.8038262898081 7.619557546916151 -0.2856639593965661 2.257962593735615 -0.4083996825656064
P 4.795622719326041 3.6296494373161985 2.7002646223888918 -1.4770195761813787 -0.42976966360095015 0.8435858891964375
P 1.915290474755655 3.5782394226156886 0.6059314343345319 0.8477379636915982 -1.2813737951161739 -0.805890688638509
P 3.879238978719226 5.305032605342104 12.377028238793542 -0.7840339977747336 0.6952021264419899 -0.5463825617017041
P 8.372253007567323 1.1165015428057774 9.313980614571046 -0.8548365224095923 -0.5109848989287007 0.7441703288105764
P 1.4375787073536186 5.408620630694545 3.8461694387633765 -2.443350187407921 0.21744976431417387 0.029686728431155326
P 3.6042964281103456 7.381108518213207 2.672457683262068 -0.266872794831992 -1.2375290300170816 -1.0589561452737635
Ni 4.25630670524927 7.5252631868568045 5.036099623053095 -0.016094077348385187 -1.8646560580577047 -1.180112696881142
Ni 6.59075839892002 4.37941462770034 6.992904850387553 -0.17261975248367692 0.3231714694237209 0.47985218207963815
Ni 3.664876680183185 8.769544627484798 11.09001696627789 1.5110843790755717 0.9228386014811785 -0.5140686800603469
Ni 4.906214136330731 6.497986316550098 10.617812826984618 0.5024411231237476 -0.03885091142892664 0.8864456646744411
Ni 2.402629619977296 3.841726033615866 6.041539808474385 0.08829991008867373 0.4607357729651614 -2.7832407693585357
Ni 2.2806645486444124 0.39463471963791485 9.20540335837705 -0.33316946117669716 -1.8046547378034081 -0.3183704484906517
Ni 1.6386016476381846 7.7639819284236395 3.5602079748133866 -0.02554673812085278 0.38697416570197873 0.3693088872117317
Ni 8.20516817408843 7.573619503369519 3.919164711103302 -0.6622354417079821 -0.010282869983246807 1.082239541281736
Ni 2.0266864589475477 8.065072912616632 1.0443784944392516 -0.6435347799746852 -0.9626071396283681 0.7644856433291608
Ni 3.446107547735416 5.174409293937837 3.774471531012816 2.027528501346631 -0.016060653007288466 0.2501536823050982
Ni 8.375379848226682 4.422129831093686 10.845885681815322 0.4010270442506191 1.5226155196436229 0.2481536211559339
Ni 1.4315353106406474 6.577053328310726 5.844163020397281 -1.2772070653329939 -0.33030165271059886 -2.4945516499824003
Ni 4.596053485663809 7.271815380078778 13.04117559480761 0.23801627561161584 0.6140917921232198 0.17542662580485271
Ni 4.477087255665047 9.058274533983484 1.365066175326015 1.2463366010063825 -0.3946208836139591 -1.3750018022859802
Ni 7.215120821807773 2.186786186392085 6.2813876869459895 -0.8645360090855433 -0.8725604220519165 -0.28720096486638286
Ni 4.784477635221485 2.1715359810710018 12.126997099718448 0.5107483574378623 0.27619792888765976 0.19982845168798488
Ni 2.5324300785764673 5.475161994199847 1.3231299392548252 0.6418049417677721 1.17198723956053 0.7913631844462952
Ni 2.827578236954889 3.259703958954695 11.910043729127255 -1.5216230738233665 1.1863005708594085 1.3842755142784224
Ni 3.260490240524007 6.140237345321881 6.944170021584495 0.7339969878220005 0.16417393570916888 0.42857075819684254
Ni 0.1578771105898875 4.243982198790745 1.6109894503418996 -0.05272586963880597 -0.07746091049164078 -0.6504680167594088
Ni 6.146143599900671 2.127028787124339 1.0184613739214612 -2.107466669734171 -1.1851695425787587 -2.2262866027885724
Ni 1.1200398098676834 3.0575473103608877 9.812652271480626 -1.2472128329637489 0.007510449444432227 -0.7399298083666677
Ni 7.239934405285842 7.290411853473912 9.101911332518535 -0.40382491871073034 -0.8315685530205873 1.2860853416592302
Ni 8.096688745950148 5.474348284203698 0.12144850262746314 -1.4098371647976105 0.8990456128266388 -0.25163849438074076
P 6.738067336649812 0.6969947257125418 2.3853725680926767 -0.663515079751354 -2.477536860591959 1.2289842257708643
P 8.95343394380551 7.751657421965114 0.28247531089907313 0.5845382468358191 0.48270867769182674 -0.8985272784293237
P 7.948374099236353 3.218698460834156 13.301136738678405 -1.3071766151118906 -0.2068020547923406 0.9703281624217094
P 8.32949209012925 5.356707761502033 8.306747524315545 -1.8812766973335213 -0.47918652347118124 0.2978005947591
P 2.193103867373421 3.793186860924241 7.997261612948801 0.2052776477280142 -0.721861380900731 2.4169621843326956
P 1.377748165614309 1.0395922339562857 2.9777287597049398 1.2262915094300493 -0.49451595473939997 0.8083617758868207
P 1.1234226491775159 6.106792950199267 10.597379563272334 -0.1659387409190755 0.02446713190342883 0.01987539876768835
P 8.31606130378832 3.182182081905855 4.646900303333276 0.09950323500366089 0.03333512381702001 0.07571436011417927
