# total energy = -381167.0976190556 ev
CRYSTAL
PRIMVEC
9.30498603519898 0.00000000000000 0.00000000000000

0.00000000000000 9.30498603519898 0.00000000000000

0.00000000000000 0.00000000000000 13.61878762492175

PRIMCOORD
 96 1
Ni 4.279279263425893 5.524956333760715 2.023819541909518 -0.0635746394278518 -1.474532548093467 -0.3344789240167401
Ni 2.508214775092424 5.174521260363143 8.072018494422496 -1.7824020970527947 -3.3886121508896223 -2.940743720805432
Ni 8.992059209240624 4.551273305816813 5.2656766240824275 1.172403244052026 0.2826177163710745 -0.30338117417067106
Ni 2.5995339065632765 2.371133723041416 0.5457578930970778 0.12963270739918964 -1.2314637976596081 -0.16114697595738697
Ni 0.5379221644837087 2.861580919043625 3.730607979248367 0.203615686644559 0.025512285338491546 0.17506255759721465
Ni 6.15192628266086 6.359148318309513 0.6553241018875082 -0.11962263146135527 -0.35768107316481623 -0.7642676137810838
Ni 5.59206389196 1.797369683429057 3.6983857436288012 -0.813657219957805 -0.43744543497865307 0.9892910766774574
Ni 1.4060391970689423 3.9848881200108917 1.8800733284694158 0.4872914119665027 -0.2853412859498247 -0.29342869094364954
Ni 2.656592080007261 8.719758102315517 1.2634458713799341 -0.9304140998355911 -0.381944059477239 -0.4545342721401398
Ni 6.8766823282216105 4.001683619532482 6.036513751239174 -1.3770715403308154 1.1479476821128232 1.4182868382268607
Ni 2.4010120327166664 5.958168561587132 12.164573675604784 -0.8215728752604561 1.0071820980252655 -0.3793786127429079
Ni 8.334215317175584 2.5341291607808616 12.210427715545196 0.4090851386684051 -0.6215101960744781 0.7506183984287653
Ni 7.0056308226095325 8.803167995784511 1.8907238153128576 0.3629808881111749 0.491626806117063 0.5473783499560703
Ni 0.057555990188807485 4.834721785831598 7.6434903964903524 0.06788277988490245 0.3275292321717843 0.5172882154389091
Ni 8.186749900877432 3.7807553396759053 10.295762171551424 0.5953394512163811 -0.8879117076970062 1.810340732444592
Ni 6.898735144767965 8.13060361605013 9.974808084931832 -2.5748523439156816 -0.22948818353594672 1.2653594219657884
Ni 8.239955810165219 1.195365011657126 3.2122225631278334 -0.40176752196106935 -0.18759925661164467 0.9072996253053149
Ni 1.37137812464904 0.0009100276195077798 9.336849878200637 0.5559321530633523 3.037777411222678 1.3894526876039879
Ni 6.604613845943615 6.584673261193051 2.835771679695683 1.3691057485165194 -1.077792561253976 1.9162616980491383
Ni 3.8420845016408927 0.030449635808560926 7.250656224411298 -1.9634697231935088 -1.0234363551005987 0.23608229181369664
Ni 5.848965247246199 2.2935673607079106 9.897698597405258 -0.6519029494337225 1.0358707242092096 -0.6660794980444207
Ni 8.103870391603856 1.2821991399316313 9.801046778523977 -0.07452316801955554 1.00098085431056 0.545084411715571
Ni 4.939719246552721 4.212060045395993 4.117041251537449 0.33124190513668117 0.43100070779457383 -0.3792330883039791
Ni 4.059355922044846 7.098736511370217 -0.11747544679228752 -0.9879654158874985 0.004090625129605858 0.16728059965895062
P 5.474486090322982 6.036032683468943 6.165960062371919 1.9973193247531023 -1.2285034294797037 0.24326878225980683
Ni 7.555294948780939 6.350383021606278 7.579536298007337 -1.3282239227004933 -0.8366593372799332 0.09204677872561567
P 3.6061938044819795 0.24786249199795946 13.156538209316036 0.5362045927274378 0.3109613005107741 0.038110690828792426
Ni 3.848160657423496 4.452677675384252 6.198536817953685 -0.09328296512556192 1.0148391003498909 -1.2386299763907442
P 8.59137721206655 4.357050335448859 -0.041197825003790337 -0.6054053200928154 -0.8991973079131546 -0.09940141931847396
P 1.0896417620370096 8.81679980010536 3.0334077188860853 -0.4353186184436374 -1.1412779834021314 0.2882602593688326
P 9.098303538070276 4.8850896744246 3.0788942118840588 -0.5593015837562174 0.9383657505825 -0.14672797231857956
Ni 5.0140195588407535 6.838085246772549 11.38202436271517 -0.09594842777286701 0.3713837674628894 -0.0761326785985205
Ni 1.999334402052946 9.46047219866825 4.97866061247951 0.8809797564638635 -0.971908619534952 -0.0054592233423583405
Ni 7.892265707603586 8.566895794204331 6.724944062405278 2.4210427821599723 0.26861214612060186 0.33460105141690116
Ni 6.529410950024782 5.566847380212903 10.06426994122013 -0.779362046220361 0.26219955772603876 -0.6522482485882831
Ni 0.7242610203116937 7.627873838680333 13.390495330408141 -0.3258564724550517 0.722281242046969 -1.0516989494907178
Ni 6.688982152958718 5.074967216384475 12.329673901151311 -0.6988032135296868 -1.985216113731665 0.7347184393690572
Ni 3.3224382599330045 2.5752851133481713 7.396744502798538 -2.706480741588661 0.2808408269763099 0.47850363847154365
Ni 5.07696778834965 3.5448832524887615 0.3232598621217794 -1.0550562959987249 0.35853725051752444 -0.743815773684635
Ni 5.707501546843573 8.889313555103561 13.49890120745877 0.5385252704408144 0.32601408107883856 -0.7785161532802979
Ni 0.9834439581367818 2.8413611847165248 8.692394930324856 0.03108669410247549 -0.9775686460342067 0.26295391939356005
Ni 3.99136439018653 7.044386088818633 5.102823552627014 -1.2343051237631453 -0.21877645354539743 0.4584544331301524
Ni 5.4491765287170395 2.343386255133725 7.035383514975342 1.8403421639026887 0.9894713110090636 0.9901693655173528
Ni 8.738423903999898 7.8954666227478665 8.974058714046988 0.9037664153410758 -0.2935503041231783 -1.9064493399444074
Ni 2.9162942360447066 8.293608358775462 11.503748466062337 -0.8267693318597309 -0.22735519635334392 -0.645871398527662
Ni 0.4662895916487726 8.013211914130805 10.957090780830223 0.5091316477700457 -1.5781256368957854 1.6014159748822936
Ni 0.8638693065289424 9.180466563430743 7.161194368122999 1.7057767950885718 -0.9512634324807746 -0.9602954607760559
Ni 3.618699705510798 1.108465748481429 9.24929461352008 0.147750500045823 0.5159458424784017 1.496058852201017
Ni 1.3989394928390404 4.954393209292635 10.308291335044952 -0.16734024925229243 -0.4233845860102127 -1.1672533244199703
Ni 7.575663562882192 6.317322406758516 5.130401669791608 -1.0134730732403 0.6600155512385277 0.3596502810760451
Ni 7.279020612883134 3.3850887298935963 3.9628902028812565 0.9376666676329463 -0.08239100080340649 -1.981906846852774
Ni 0.2965703711091601 0.7184202806719695 1.2616648970816335 1.269751123275581 -1.3987731936739651 0.10728879248635072
Ni 2.8684479986264138 7.121459286900257 2.9774484642750645 -0.099519432953577 1.2042414716085452 0.4664670190219838
Ni 7.4936121973523395 3.299045525419277 8.332505060770005 -0.5453134970072415 -0.9320395512541562 -2.231314395020467
Ni 1.412608517103426 0.806715291730347 12.721131865818043 -0.8671356514919195 -0.5053780942648844 -0.8384148865184594
Ni 6.207644538137471 0.39316636007513367 8.192694856359063 0.8279605239543547 1.0272022499009341 1.8196314137178986
P 4.260073772560207 8.285633985872414 9.558073126109754 -0.874878528662132 1.5958798755554129 1.9854603685319874
Ni 4.935420343074064 7.720095553781985 1.9828133996149493 -1.9338094771249146 1.3849594277193247 -0.5090892245678845
P 2.8938320001194326 4.477847662201926 -0.03744791569232168 2.6515396094660915 0.34031969906823323 1.9433415849850662
Ni 8.68183097985014 2.6640453737007754 1.511508420574411 -0.03073188186621804 1.8150134553299129 -0.8156099728088019
P 1.259280959698015 3.63455540145805 6.358721219457412 2.313582239982448 -1.1251353122039978 -0.20904997028625288
P 2.7141434177031263 7.225582078948233 7.032374282540283 -0.4815905049269835 0.30744865937182536 -1.0415806301097934
P 8.566095565418262 5.662186265585875 9.537754758932277 1.2521246684430694 1.8734813696588184 -0.31691931786642197
Ni 7.219226773589094 7.286678616266107 12.531504627978462 1.0961492093842928 0.8877389295645678 -1.0358804944012223
Ni 1.6691190629824748 7.143698203164302 8.895424139333937 -0.5531072820200474 -0.16609223577780427 0.36246435348607253
Ni 4.974668773535043 0.2167028857664083 11.201153116592936 -0.004273173454057156 -1.8238063710311945 -0.9212835982892327
Ni 6.405989617252275 2.0406857593238312 1.5480751541034672 1.6437841554358594 0.3965448401095493 -0.46057199369378743
Ni 7.0048026788658095 4.355403352947295 1.4564070856619447 0.19685419955100936 0.6893991466069675 0.8001553288166284
Ni 5.169785022547913 7.231611709801413 8.12266739358921 1.6111031202630706 -1.3599017134197482 -0.8465812243793356
Ni 5.3585180512439905 8.603808673208293 3.976862569685478 -0.09828890298058555 1.0657425720679776 0.4187560860992659
Ni 5.205125358937386 4.682669011492369 8.161902797069951 0.5640601814871254 -0.5507156418594193 0.061227993572546165
Ni 7.671523527464699 8.52858716731769 4.268809293308611 0.5087403258688981 -0.5064782693075986 -0.04515011417407708
Ni 9.130359214442509 7.237790220428747 1.9043695771125317 -0.7566016125953938 0.16412328497689155 0.9002159789856562
Ni 2.2102039921683376 1.2622120302516444 2.8138044690194666 0.2991853909217686 1.112595013645142 -0.24171737861228693
Ni 3.7104003414029165 6.136721935725525 9.399768331754702 1.465699008962237 0.6254229008653228 4.654976617081157
Ni 0.41320743867325077 1.6542869154825217 5.6918635875660195 -0.3835435427538749 0.7289218872919382 0.7696432762707004
Ni 5.912918415230626 1.8470024781371805 12.13865649842058 1.4142571482421773 2.197276588709468 2.0824544639605493
Ni 3.362040279857597 1.9892850172976455 11.865490958306799 0.019728845887495055 0.6635659875939475 -1.0618272961739712
Ni 1.8442016773859349 6.111300714288968 1.1253366183886844 1.0093523662037067 0.3529666984082824 -0.6019207039783246
Ni 8.071442515796242 0.05162685318318011 11.600442157380098 -0.4786725599492402 0.1836443857289547 2.0182553035748207
Ni 7.2975747547369005 1.3390060787567335 5.646662757634701 -0.384273478941364 0.4481471376668733 0.12879812731303625
Ni 8.962785723647869 5.576375685758669 11.86925017260415 0.9287038020127037 1.180763185980947 0.04631122436171379
Ni 4.180320738543835 4.395200777575463 11.65607480698657 0.6650981079677578 -0.10212113224248219 -0.5628427641402565
Ni 5.810098321206485 8.485635352474665 6.431077720194165 -1.1623000941797532 -1.0889061546686343 -4.131799032741006
Ni 2.86319068160165 2.759533138847901 4.666204769468267 0.1458867073642068 -0.44911181557298785 0.6377533974062177
Ni 3.820990098640646 2.96010210958911 2.3192249287859346 0.7471368676380681 1.29004818296172 1.5281511047498715
Ni 0.484483630548809 6.959366432791612 6.52108391815671 0.19534239089217328 -0.2986796549299437 -0.1019216146371664
Ni 4.609420162609288 0.8516602345498406 1.5898982741586982 -1.6292520232579555 -0.7082779857893415 0.09473255308789492
P 4.712686895955886 1.03630558294684 5.645614085725514 0.05512496599860183 -0.2577024411866336 -2.6491369135618696
Ni 0.8466811366030245 6.933591621891443 4.179456305355162 -1.3009656012051725 0.2908095081532475 0.11637687083054796
P 8.707205676357274 1.1354129876030503 7.890453096353277 -0.9052134322002475 0.6825844376779793 -2.1626461431197916
Ni 1.2858839143419083 3.7021095989797934 12.595539679838675 -1.886124769454442 -0.8086767360240782 -1.251141992814826
P 3.7039612911708164 3.5691227407179817 9.575246408058256 0.15247130256026 -0.30199997755242824 -0.41466211853555035
P 8.14977188697228 9.04821479905381 13.73236795579476 -0.11792981713996463 -0.9570892951339321 -0.8555389477932556
P 0.9911112665056406 2.1139718281504494 10.873157947154517 -0.5274980660923754 -0.10972157029755941 0.2927080107275411
Ni 2.3275119492147036 5.156013643438797 3.9955209273811527 0.3410064407226127 -1.4699014770793588 0.18921056696282254
