# total energy = -340867.98875949613 ev
CRYSTAL
PRIMVEC
9.22883151620501 0.00000000000000 0.00000000000000
0.00000000000000 9.22883151620501 0.00000000000000
0.00000000000000 0.00000000000000 13.50732778855127
PRIMCOORD
 96 1
Ni 2.460452612274765 8.49035882727542 5.488796754228351 1.1920593277200566 2.074363716532614 -0.1495656988776908
Ni 7.702198162646138 1.2020829845900305 3.8626498867825436 -0.025728258004039557 0.40967932060897827 -0.36173904528427375
Ni 7.540029136172921 3.1922528031576354 1.840116402039416 0.8142701709514557 -1.1246714851937019 -0.26552759365800727
Ni -0.2475292573267762 6.269726629406131 1.9049793982129712 1.2242559670572595 -0.44998804753035404 0.10098059088013578
Ni 2.1536585679400755 4.549094062555849 12.442963980097103 0.5546815684857028 -1.8261525026658678 1.9973357798133344
Ni 8.344026475593235 3.436373853025013 4.261129603055743 2.0510386686534288 -2.72943169395788 1.9120882833977393
Ni 7.961279148315535 3.4148153027267294 7.91807621958636 -0.3045014038180433 0.7650913952339599 0.30141967956892607
Ni 4.305369852441394 2.551088966075896 5.002452102242452 -0.03558329642124839 0.6439798379319038 0.36688022316558105
Ni 5.683197474587166 1.7627898689746657 3.3411590759349354 -0.8112372976624029 -0.585665932682359 -1.389243399806659
Ni 8.931127817962928 3.9465344274851195 13.373496904827665 0.22491727633581263 1.463353905768828 -0.25011974374336926
Ni 9.179078832887576 0.6352979918036616 11.827556888746305 0.10581760725746293 -2.2111037244005467 0.4026859200102807
Ni 2.197541661548097 1.7328423108762365 10.170423296779301 -1.6217009503835749 -0.3608507291420495 -0.6263369280391601
Ni 3.3642228486448844 1.3336307482679977 6.82942664827812 1.4374636682656274 -1.3124028965078365 1.8462729275648269
Ni 5.785480613694988 1.99534719301852 12.415395614749913 0.23003788539182962 -0.6591390621708455 0.4972608644743888
Ni 5.34741567062623 4.244551853098206 -0.05859292807738512 0.6249487894423817 -1.5468386538570456 1.7617512535716626
Ni 1.132165357424022 0.10306482113276531 7.407499424827258 -0.4711212299645434 -0.17375875118412654 0.5362678418652055
Ni 1.0922322036822958 6.987646657768188 6.356413043340967 -2.656614452885838 -0.2538648126080983 0.3758271479462237
Ni 2.373443189238714 5.44829602735163 7.7276909637972295 0.25021564589128525 0.14138856238353711 -1.3427714814973648
Ni 3.3069394917521424 0.6532536062986704 1.3405883643081844 0.15424356396933436 -0.28497207553586407 0.9939311465526303
Ni 6.190275619338527 4.2272201076101155 11.469585282414995 1.3699853229079952 1.5023385145621417 -2.670066207515369
Ni 2.4494149298446515 8.538736361806071 11.174490627726339 -1.1975820573104987 0.5200896894434462 1.0996939893127575
Ni 0.9524707800019859 2.6292387109071735 11.831622189005891 -1.9710110258758766 2.556704983582694 -0.8752174000587896
Ni 5.669261939077573 8.966788022737143 1.5401323124414996 0.4316316565103534 0.2516552065512892 0.0888760943071179
Ni 7.88025923689917 5.55319092576357 9.535457542908318 0.35812304579824134 -1.3661890890903567 0.4029481725327318
P 5.933049628793255 6.32462894778134 10.05080287488451 -0.47272328434434074 -0.39987313315183387 -0.17732178594503656
P 1.0616847715387523 7.512370328277393 3.5487939406121316 0.4679875694315683 -1.145760444653517 0.1355444448979343
P 7.935235385926085 1.9769725895750772 13.276973479436089 0.5133760248686965 -0.06968512320096386 0.15502620777162976
P 8.1722040914094 5.6246959119412665 11.708989476521479 -1.293230951565076 -1.9910774576084482 0.4426416344676118
P 6.6888816968065745 2.027980341072771 5.619629283467912 -0.1542546197129279 1.4201876547939993 -1.089117242238176
P 3.2494438717357443 4.46103255273298 5.89423316365859 0.7188171947577685 -0.7051558952205921 0.4716128248889813
P 6.063886772448548 8.250132344285557 3.7402192857071763 0.4126867399767344 0.5914097771446718 -0.4584179234652621
P 0.8481443776081866 -0.24566780202062732 9.746455393770743 0.03065449166106334 1.197940211980866 -0.130589157775188
Ni 1.143553735449742 -0.03906933511676072 2.182027995858279 -0.20150712494198844 0.3154902987293792 0.15769526996336067
Ni 6.428942429811091 5.355537042313939 7.6037200707506365 -0.5269748465990537 -0.48341495973023196 0.3451250908766766
Ni 3.364988841656339 3.0531650841741467 1.0043737281516203 0.25893965602784436 0.3421179286192366 -0.07046853833420767
Ni 4.370377741268923 1.2251735209112227 10.694575702620925 0.017255187536021895 0.0625611105616729 1.7373465994750532
Ni 2.7980894113598254 6.166649810792463 2.6282964472147703 -1.6140262074471363 0.088248488025448 -1.2884831524674456
Ni 4.376025786124466 5.14398453868057 9.065091689717988 0.29525597396037534 -0.8831909051825692 -0.693107191586174
Ni 5.378526061489035 6.47940568025245 2.3170338026855473 0.9049676347380285 -0.525615761467998 0.09445230284331475
Ni 6.6251658443839085 8.853947100435297 12.14768013436345 1.2696552211276648 0.45252726901244 0.1122232536734906
Ni 1.5218435371306656 3.820773141134645 2.3644579989260395 -1.023096969483309 -0.20113380076296972 0.865203210355897
Ni 2.3906826464121704 7.096343834743009 13.22239047862951 -1.0319060831345066 1.118669501973996 -0.9796869779287902
Ni 1.9798242984972387 4.323910574851176 9.653186977236276 0.6535852222321518 -1.7686294687487347 0.8095051454626445
Ni 7.735412727082578 2.449138064900752 11.127836116029886 0.4404775369367575 -0.047126778284473675 -0.7831184279389997
Ni 2.7445806465355753 6.388907758923269 4.958148173919704 1.773408892415249 -1.4918049620206697 -0.1837811684171351
Ni 4.427808759465077 8.997640006318974 12.886260747722408 -1.0630177169376467 0.10832289017781989 0.30817242491172736
Ni 1.0339336753285902 2.0357510171648747 0.8865556970416136 -0.8675989642815832 -0.6200683214216289 -0.0724256620605785
Ni 9.070760038002751 2.0322440612088184 6.505169809048561 -1.1577137603606513 -2.4295647035880545 -1.01288197662352
Ni 3.9215242942195596 7.976405203083894 3.447812989623781 -0.5360958350637155 2.0425542853315015 0.01606733787550781
Ni 5.047626309372189 3.348090851247025 7.058321971997334 -0.3754229705292696 1.4496373275136842 0.6431390871981633
Ni 6.104927385965872 7.997087014393164 8.236957264488542 -1.0585488825330156 0.7485491746045625 1.0152427635462127
Ni 3.7687779046703778 5.552295729111629 0.5524323140946348 0.11489642963027953 -0.023576758878675524 0.700251258830123
Ni 1.9449208579030144 1.5487086655203501 5.186044015191442 -0.7869876810864188 1.2106720577252377 -1.3048585085016753
Ni 7.077009432827383 5.365827189395526 0.8114108597347887 0.27378520568110915 -0.06675175160425278 0.3836193902971329
Ni 9.122570697837752 6.887329259762049 13.117411597851255 0.06219627102308643 0.35136155870469166 0.3073635558571868
Ni 2.5661227325296223 1.5371633973597538 12.659310861675658 1.8964526337430114 -1.5458426084923635 -0.001164966842378639
P 0.008055846984320035 2.9942943682697165 9.63365600121048 1.0385397864009405 -0.30969040421815053 0.06381426624248364
P 2.6613181290736265 6.683058304153228 9.911704081303267 1.7221930316630663 -1.0496829475019536 0.12135812609522326
P 8.053364428656407 8.979126970403582 6.5184067220163815 0.7128195824134368 -0.24639627214519497 0.5351450411146719
P 7.024091313216784 7.406044960988641 0.358508724322473 1.550222482727614 2.226839389968249 1.9560127526948314
P 5.451839898633541 2.0891213495171748 1.0362067365180025 -0.2141263563678957 -0.032527540314060105 1.342937574761584
P 3.925437318760001 2.675890453954187 9.2542615084034 -1.5558660541666365 1.8932014737955651 -2.3808119596643835
P 0.09478102201130163 5.319424624798022 7.657195611781619 0.6523456933980958 -1.73018222051613 -0.38502604083667236
P 1.4917298600658975 5.27805177334802 0.8452308355152208 -0.3302360895799861 0.6511380462432398 -0.3353441002305128
Ni 8.082841316350205 6.967583178166961 7.65911428584284 0.10086154880376823 2.4736773776365526 -1.2965947258309862
Ni 0.8464453497357919 7.038359086659057 8.883431371194268 0.31210338453501735 0.0026153261356600117 0.3660106760764341
Ni 4.6832351278750055 8.007358703811825 10.787478657429446 0.8219567409624361 -1.1447852252244413 -1.1574682200087485
Ni 8.375616765692135 0.81607603403949 8.947281041673152 -1.16761662129666 0.296610945326373 0.021588010583420886
Ni 5.7365862646023915 1.1680009099960404 7.211197565187002 1.2339258860468556 -1.5236904978753565 2.117513255336895
Ni 5.727209771835672 6.5916374996777165 12.536934710705925 -0.9989846498161375 -0.8733386949788379 -1.2526586865696685
Ni 3.4123327470631 4.2742594615785885 3.719121254098912 -0.31329123419553145 0.026526585535618836 0.10424923432907852
Ni 0.1687888672818472 9.261501526686365 4.358153231112627 1.2985467073510346 -1.8210912860928767 2.311670367671715
Ni 5.391649459829857 3.9076533605302104 2.46347966899473 -0.32786861778907406 1.2295128445808245 -0.0466323551465584
Ni 8.404263058554237 7.555764293817859 10.78553321975698 -0.05290636108072823 1.4520652202288864 -0.5283442161427546
Ni 5.543832890659777 5.084716983023218 4.849063386023423 0.23975639823117414 -0.2953019967069624 -0.12493761591636549
Ni 0.7745536755197826 5.455309939263743 4.131391613227729 -1.0514459529396474 -0.19332690312404124 -0.1033056394688866
Ni 7.7679905021480495 6.996552480130279 3.6973070651690945 0.6763317719000482 -1.4595697561360477 1.9301561966430436
Ni 6.006575729061416 2.5751485297007357 9.241997314271813 0.990549631674907 -0.12309824871478156 0.4568747473478583
Ni 1.7929496901967503 2.5716231160817524 7.8829706675830895 -0.6162872571126419 0.3212729668494273 0.4102727312186031
Ni 4.577998762698924 6.419132181965596 6.721435476910241 -1.1296023468364158 -2.628470129241138 -0.30596179041365373
Ni 7.958547414202397 8.646732147589681 2.249348629850513 0.1078518640786723 0.6930642541633806 -1.3085917502918625
Ni 4.999165715358369 0.13171480552745327 5.294183770745879 -0.19966004443092064 -0.13068428859215558 -1.2744251317124824
Ni 3.322084004183428 9.158018639488311 9.06155243285181 -0.22904209713746362 -0.9327406910862387 -2.3740923815523627
Ni 0.9163962006950681 3.9421599613715124 6.042516490312116 1.5906566794832604 1.0855488081606273 0.010330692502046724
Ni 3.956104725712568 5.392000155425462 11.334768666632726 0.17196360695691676 0.3264658239042765 0.16556438829879228
Ni 6.562852774343664 7.184894472633433 5.734832786624363 0.0917809266587387 0.9972368138870955 0.4738175458497839
Ni 8.095604790263957 5.176063956847022 5.830775718516896 -0.7539076107029984 0.8594238846699587 -0.4213780971031453
Ni 1.002158808600427 5.686824405352245 11.11917854923416 -1.4530427536508073 2.307266325066749 -0.5109411901749588
P 3.5319845469848654 1.1985483421395842 3.4951153652889575 -0.5399429767239475 -0.783343142355296 0.491442972241031
P 4.161575429411618 8.31140255637045 7.0247290254709 -0.8472885348590053 3.0326593732698224 0.9155035012723458
P 0.6842726317299891 1.9979404946597088 3.416719210657609 -0.614703971785922 -0.13441264528633626 -0.9830363540169974
P 3.94290749672004 7.673939480705495 1.1049403046072686 -0.024652251331041413 0.04556149067988283 0.38323346771262384
P 7.351668686006841 4.874631863592514 3.437776635407435 -2.0951228034568365 2.4402918601975716 -2.0293624692315757
P 0.9397165349196966 8.793036812777476 0.07373559474237804 0.30464230027128175 0.7693763957625588 -0.5568852610052409
P 3.940175762606901 3.240473447553411 12.263815749497693 -0.8370264908113649 -0.3475403851863886 -0.8199523089378975
P 6.17718913632356 0.34666813355505105 10.122877279963493 1.8656719009167289 0.08392466383911353 -1.190186536177376
