# total energy = -340891.0023075277 ev
CRYSTAL
PRIMVEC
9.08931925235910 0.00000000000000 0.00000000000000
0.00000000000000 9.08931925235910 0.00000000000000
0.00000000000000 0.00000000000000 13.30313748830076
PRIMCOORD
 96 1
Ni 6.320058129639056 1.8433502878113917 11.277162849371827 0.9898076113025599 0.19526602912828306 0.3451873115731797
Ni 4.659530407896571 0.3434753737158828 6.180251675540803 -0.4867491663097875 -0.4714333618883235 -1.2742304992031732
Ni 2.7666342412126723 1.8248807912293088 4.882051484433934 -0.13939030100658573 -1.2453546967090874 -0.20794825258164187
Ni 3.435408168140083 4.345476251447688 5.077620911726616 -0.20662901954958607 0.6338036687298504 -0.28048627185036856
Ni 5.337093706475002 4.654485835749397 2.7278619323690743 -0.4926873861710935 -0.09862288928123661 -0.3194924779102368
Ni 7.427773458604828 6.300297949732832 2.6251080879247883 -1.534630798936944 -0.10184962374865039 -0.8787768352752736
Ni 5.136265199102403 4.732972106904066 11.367118932404907 -1.3458997427137014 -1.577823018053702 0.08070589979149971
Ni 5.767891078524413 7.963961486593831 12.655021833808112 -0.5801465455260266 0.17839779261803468 -0.5205519737918454
Ni 1.4116530731627552 6.7114533030254115 0.3640108725485107 2.535574886472298 1.9755137988422362 0.8614386011071423
Ni 2.995476030310656 1.861310782519165 0.19311622004489426 -0.8218744656612749 -0.38777660699861605 1.12238500315237
Ni 0.7347860164338257 -0.12005627244313112 4.834506164713846 -0.3274760103363457 0.5350856486316462 -0.19169013885156666
Ni 8.51995514108498 2.4870740510674336 1.6323081124716234 1.3943830350260698 -0.9098079935494653 -0.19852773059869036
Ni 6.856018924648458 0.8945880638051715 4.59040704443344 -0.5827238193348996 -1.0762905227871529 0.4022678586362556
Ni 0.762143958246036 7.785492704414108 2.6787068942214836 -0.15599988453880878 -1.3586706692261246 -0.12676387049182683
Ni 7.536227215109461 4.031622060020855 3.6384481068701735 0.23430180287450617 -0.8639613675289959 0.6912616537370031
Ni 7.914651930020111 4.093511234345365 12.676147229455788 -1.4138249458007652 -1.8909581862873435 -0.6866123278904498
Ni 7.963834236125255 8.854223943399292 6.657022824023371 -0.7045609419490705 -0.5264351720454998 -0.6977043240385532
Ni 6.740011943901842 1.0620324107465051 0.5270187227960872 0.21646297492087238 -1.1535969099788004 -0.494554007066187
Ni 1.9593118219620875 6.45529810977922 9.403708736422708 -0.2612400220262469 -0.836656509066456 0.7038682867574201
Ni -0.15924668996919755 5.07525768873875 1.313661123039017 0.2946551071515829 -1.2302366101207265 -0.04630428238317832
Ni 6.537465555203447 1.8886423653057416 7.146551740912737 -0.3815547944586203 0.7249299925237258 -0.9099432335757489
Ni 3.7369736000300176 4.3989578055269085 0.6676395798932353 -0.994288787002365 0.4806070579677916 0.037436547579903265
Ni 5.79300486743007 5.609064315101521 4.866553286293132 0.6584253239332726 0.08504206527300837 0.8724853458396069
Ni 5.238610933115322 2.962245479373601 9.225247225698332 0.9207349248746143 0.04124615113398058 0.3575154941212294
P 0.22960438297752894 5.7086650747208445 12.432353510299967 -0.9299546437006693 -1.3029474075218916 -1.4414141682729433
P 4.094192933284172 6.2291194912021774 12.627244874381516 -0.4549088818707391 -0.5633878380104491 0.7600795438416652
P 2.3480529141466864 8.615592957540036 1.3502419970273296 0.2407665846632434 -0.1151046889863437 -0.9582784303460271
P 6.313931928508976 7.598998053394827 5.765433326617034 -0.96367491877125 0.6423248188269841 -0.07337877000246718
P 4.73981636424969 0.8797642931478294 12.67585455337806 0.9111040866530695 1.0100187961431122 -0.6979128405049335
P 4.178923566718314 5.853212517705522 8.474670335045976 0.6161800421108161 1.1899528229000151 0.2876948737836658
P 4.6543585852808205 1.0087508216893348 3.7449658383885933 -0.11774264082982303 -0.40043517630289105 1.1869605730409105
P 0.0565928280359365 5.5141354655428225 3.4980862953697716 2.6242100684132033 0.38230709924361256 1.235842129232962
Ni 1.7643277468248615 1.1880739998723635 2.6049806995235265 -0.6487065539836118 1.0340236436981418 -0.40553264543045636
Ni 1.7294429397963014 6.577840311019202 4.83724659444785 0.7758555757289993 -0.8209262428153925 -0.8254984355671073
Ni 6.26669473670923 5.629269871647765 9.352118669665698 -0.23297845607739232 1.4579178223549214 -0.6037420734577795
Ni 8.536297736977984 2.259813803507483 10.168532225964217 0.6988824035070544 0.24103397939201715 -0.009411780232203145
Ni 2.5243857063181476 5.4365853942641165 7.228844618941705 -2.423275271034917 -1.7309959746666768 -0.1788240815221759
Ni 0.64169048255456 0.04588924576474513 9.30368259666557 0.6027524558510007 0.7997794335344485 -0.3546507709789247
Ni 1.3813674616413476 0.8857650616731696 11.63541654714913 0.2682534772296025 0.8710013050949129 -0.3124342855118748
Ni 3.9665152667051764 7.059565138457102 1.6354748312753624 0.27851500705661064 -0.8352922817290775 -0.8187042954634094
Ni 5.73107024650964 7.901063397839887 7.8344968598632425 -0.42311204907511646 -0.5234722327624339 0.9046539601523517
Ni 5.281248929407917 2.868361901521074 4.956682066390709 0.8156824779179501 0.06233048260810555 0.35176213657722
Ni 0.6559070866904043 7.434535912077795 6.821156840917858 0.46852210177879955 -0.7425127386024953 1.0440082657146794
Ni 5.419851957646196 4.43051592173409 7.318281701849371 -1.1799684579937937 -0.020524088095280783 -0.7949910110068695
Ni 8.349012315189688 7.3165020131531255 9.085976132500022 -1.0065987147179696 -0.5122197997770662 0.42068775590434
Ni 4.691197595933961 0.2222774827832292 10.316875368640172 0.07995822299219778 -0.3012430447817457 0.14389255975231346
Ni 8.09483859352563 7.165219384653033 4.654980294713012 0.775917025094554 0.5064096208531924 0.7237773669765212
Ni 7.416448166901445 6.006603868256325 6.906562810767379 0.19736842018326653 1.3857276733439168 0.610187057752175
Ni 2.1014051487670593 5.532350461187751 2.268650439618261 0.0006823707790052765 -0.6564836268258694 1.8581280271312
Ni 2.3775295762607094 4.9886546555526845 11.733047651301261 -0.5225309518950872 0.3238425273488164 0.3596505381863612
Ni 1.0093507167554852 3.261165919380964 3.671838629824868 -0.16734950522367306 0.9298721112891921 0.33841399740508815
Ni 3.7408274713640743 2.8395942063034108 2.7996448306254718 -0.37611536861060385 0.15100397398611412 -0.05425490468882269
Ni 1.1039250828660034 3.34776895256703 8.333590467330032 -0.40297928288098345 0.18097815175070123 0.26046097776837723
Ni 3.6712032864138995 2.588538121119497 6.972853033440827 2.436458859604726 -0.11930304333840745 1.0812242126433445
Ni 3.9668970181109087 6.845020848435701 6.281329449527543 1.6706385566245419 0.4285447900549136 -1.7330225181784025
Ni 0.8078705051973858 7.465512311857195 11.266520165539168 0.03852978064408204 -0.24797415815527613 0.5789101020157643
P 0.3131788550114542 5.727734466369077 8.206040051219613 -0.11291770863735393 -1.798809848986857 -1.047586984204873
P 8.574509234827923 1.4453108221014623 7.763338397834792 1.274326144240773 1.3491470460064057 1.8702818888849144
P 1.714909118420932 2.9714984063030103 10.702187969628529 -0.20327758657884992 0.055811450542665175 -0.1270549193696844
P 3.9373021948474918 6.044769919510343 3.7833327635965803 -1.324486567145248 0.9428988625661632 -0.5750421344199257
P 7.05053035518811 3.951327014348552 10.487648224266723 -0.8165242570929551 -1.053045436216283 0.10813314276451699
P 6.500108453356813 7.720604054758847 10.425535452690283 0.00421069564723791 -0.04085817166694254 -0.6824695093666697
P 2.4682773389947235 8.454130291553756 5.977445332313745 0.5658856647316383 0.20969557429005173 -0.209200122710872
P 6.907119077101445 3.770431383946675 1.3251600207388168 -1.0648511706019597 0.9926417383172453 0.5750153949470485
Ni 5.401536979490243 2.955737526837788 -0.04568564501502139 0.2374352062971653 0.5455952899137184 0.30480556532202346
Ni 1.6144266948407513 1.0060422045724742 7.196997462384469 -0.1946142544768971 0.4514957424241321 -0.5805221836978905
Ni 7.199295242274209 0.30413043776368676 8.984965619475245 -1.2458743166579833 0.8747674570055644 1.197976207425124
Ni 3.058337761787863 1.813837268420632 9.169679672866362 -1.1993296361292247 -1.1140173479139652 0.5435857156828574
Ni 6.10225986334975 2.18655389088367 2.674822119202201 0.9194113209671844 0.10873735200741917 -0.8341450554985117
Ni 4.2463481364259374 6.922098275116835 10.534528205822534 0.04694731528381592 -0.34658702013418374 -0.9209768656820913
Ni 8.051982453572617 7.218982707626961 0.19430419406225558 -0.13923089261058602 0.7402640517776348 0.48247959240015614
Ni 7.656215317658711 3.9434647532543092 8.186218972874856 1.226430863221391 -0.7761322264291537 0.7227622954484456
Ni 3.2197913384549595 8.330097441967585 12.357311182184153 -0.3113279398215735 -0.1845363014156048 1.0399142981509637
Ni -0.04083013070687734 4.865821596098812 10.323633277453547 0.7005513065690452 -0.039114706613274576 0.10522908174384459
Ni 8.68800756347973 2.0788091012753966 5.633839072401611 0.46218844625128785 1.1297717825347446 0.334032837618257
Ni 3.876594632016915 2.586574828175732 11.373863207239504 -0.4922505557439909 -0.1469017788922825 -0.26413379863427416
Ni 0.9382449727783027 3.1691274733228085 12.964493155524375 1.033680144315794 -0.17502527660137598 -0.3847316495247052
Ni 3.0485303863882236 8.044401961373081 8.142531160216498 0.7595054165057501 1.2432767311341362 -0.04776338342720807
Ni 5.606446591176501 7.762187690026086 3.5102587116211126 -0.6818650430134515 0.7048311648913216 1.4518510473355513
Ni 2.9431579090869993 8.428943788094626 3.484716815781885 1.647448234551008 -0.3910804745608684 1.5017628445643296
Ni 3.1946139243150133 4.264672203901076 9.612341333246773 0.4182277243996217 0.17981858422496128 -0.7491068468802453
Ni 6.997239676811756 5.983380657740959 11.747880511277787 1.2442846035733603 1.4790420059280462 -1.583983381228143
Ni 0.34460972075005797 9.16857804738125 0.5670580827339482 0.524457993714471 -0.026949789115966488 0.12187620338222234
Ni 4.509474837486331 0.437692529582466 1.6168235483095976 -0.15128165312753303 -0.7166168446723401 -0.1841074414083023
Ni 5.896595838171211 5.581587303207999 0.5191282848123735 0.33613162912881467 0.7415377762837358 0.23003839961246186
Ni 8.13643131811205 8.996880807993676 11.278040877605008 -0.746370678896005 0.06038801416975407 0.4262112568257305
Ni 9.17048680440991 4.676318380429596 5.777605742868374 1.1550920064670882 0.029808084500368016 -0.041097541371258255
Ni 7.825213029248607 8.867430724173783 2.40597914530693 -0.6259684889561478 0.522068924657004 0.3448610385820125
P 8.781709354948575 1.387102822046512 3.5396053964708036 -0.1157073555673491 0.18393209217270257 0.17945425890700709
P 1.969519127405827 3.36958331860886 1.6511584515275197 -0.3424300605430167 -0.02939208000887196 -0.6594501656533611
P 4.869557306283475 0.991617455027314 8.265212428039996 0.689635945208122 -0.04311097225686124 -0.13964689710208208
P 8.499567798155052 1.57678782409941 12.632792085879569 -0.5310384751454661 0.6752675923015918 -0.5824579672680227
P 6.250115818517439 7.678329631233616 1.4753710185071045 -0.44910873024919423 0.5853890248718887 -1.0384366851641729
P 1.9276173659671452 3.3210099968890514 6.312937556990236 -2.269859859393833 0.5950095786807882 -1.3948129234746365
P 7.113573873049001 4.0648798789154625 6.022263856278603 -0.8356401519867995 -1.6245242787649827 -1.3672273005468838
P 2.5081976288512724 8.528971745715603 10.238439997672936 0.1430533516804698 0.2808426267485228 0.34843332931430315
