# total energy = -340871.1006732193 ev
CRYSTAL
PRIMVEC
9.25511682556208 0.00000000000000 0.00000000000000

0.00000000000000 9.25511682556208 0.00000000000000

0.00000000000000 0.00000000000000 13.54579899575445

PRIMCOORD
 96 1
Ni 1.2635270494349244 -0.42017026896164206 1.1295351711230108 -0.002396011036002325 1.088947035208899 0.7186757840838978
Ni 5.952095155874452 4.779740261579237 4.631173425403755 -0.17244311769649656 -0.9735633815295555 0.38033763422206757
Ni 0.5336296707556949 2.4725784816581613 13.10898716680051 1.2311035861067121 0.002054825646499687 0.1327591688433133
Ni 5.407820249828767 0.4424510370342577 9.352046516871722 0.07155431519921872 -1.745724282015787 -1.13963633403365
Ni 1.4088601478166989 6.493130771056377 11.12939080862791 -0.49952472080790095 0.12752671679978037 -0.29328625182851426
Ni 1.7839515196065834 6.957654336036295 4.48355061113714 -1.0527507877939999 0.5189838579737772 -0.2539092926927885
Ni 2.0775053127972556 9.085220575353771 3.2797764464868053 -0.2841565216131042 -0.7541078996392626 0.37551450180181134
Ni 9.18541646932824 3.741575305094463 1.3989016421898257 -0.22075620297958753 0.6817118052650388 0.9485195511870503
Ni 2.9787223066790163 5.168075705443522 12.100665334287719 -0.34504770067152185 -0.49838495077650297 -0.5624848665802055
Ni 1.797130805863709 1.833975425659789 6.6420872476471855 -0.4549309933579262 0.2840179391527109 -0.5165171416008395
Ni 8.112933539921118 5.343034432553569 3.238231152891572 -0.6421854650356423 -0.48425493913302403 -0.23314583489319202
Ni 6.991944543608382 8.201125547466168 13.470240288020413 -1.1977013564971826 -0.5154074534764286 1.1751535531036537
Ni 1.7030432889466156 2.0747102675376685 3.7321249053773626 1.3891899208609042 0.5310952965253305 -0.6941549161243981
Ni 6.47388012820889 7.421900247513603 9.321839666811323 0.5692553525348195 -0.16846433555440665 -1.6538178855227774
Ni 8.732036064919656 0.3514297402976318 4.275650146966006 0.6645538054285135 -1.3271237476577789 -0.6835653135340098
Ni 6.12687803576618 0.9900476044828098 4.208719919139 1.093310197273601 0.5882457775943933 0.43017281257663975
Ni 3.272211314052413 3.6267840919995673 8.103665466004063 1.0128716922108751 0.8225439809244737 -0.17671037761328276
Ni 1.9621032619966219 4.330774547862121 6.150889510671719 -1.0385960935601728 -0.2663032954817672 0.5172542768771801
Ni 0.12799178612055492 5.391586775042953 8.60868016678098 -0.02296920720166367 -0.5613926619572912 -0.25302200499182875
Ni 8.445358823476909 4.135537859944937 6.459937294819593 1.413158772971676 0.14066839638806097 1.0787857784051809
Ni 0.7931505486200305 3.9532305701325323 10.748402076442632 1.4274947299783738 -0.17200114506307154 -0.1757187031239748
Ni 1.8122814319893517 8.817405261854859 10.634156915236199 0.05617886118441292 1.2997186161719487 0.33335972281063236
Ni 9.203436181647497 7.644439529853906 9.264472751125812 -1.741407142697672 0.293403751242985 0.9316644273029245
Ni 9.110709166893184 6.942540730377666 0.67749860966705 0.49417682623242626 1.2736070066865615 0.5699744900890312
P 4.084514401282343 4.709244037267069 5.8540612571736235 0.0694023018532224 0.4706679444772088 -0.27602463653458914
P 1.8558545216652986 1.8618888577886454 11.266257326203492 -0.9421475862224356 -0.6748896401368828 -0.1313275786031093
P 6.819725331057399 2.8353327828154975 6.104346454029542 -0.3107278443437294 -1.6416329134208114 -0.8513364796761337
P 2.733156293855758 5.286374607788033 9.683512044820164 0.9981765520925454 -0.41846529433172447 0.8114527561073185
P 0.9894275116603186 5.138496352299018 13.547424259698731 -0.4843968640275271 0.05093946716234453 -0.10765337491462106
P 1.7306883226896177 1.8624441647938614 1.4282690531606723 0.04695734258614494 -0.30563654586375105 -0.0984501111487982
P 7.196140184543049 8.357999776439682 5.176893055174677 -0.07470340235116167 0.6211299299169238 -0.6163973003279448
P 0.04419873556849024 7.7602025302079305 2.8663855505471747 0.7979827466453417 0.56470938503535 -0.6031923716018966
Ni 7.134806525816945 1.97744824557409 8.177327865757638 0.5594113698612043 -0.6134860402184208 0.7058709190097456
Ni 9.287787315739806 1.9306358650343833 9.65853433572555 0.7220411010117048 0.47029513451882227 -0.8357805342194057
Ni 3.8714616136144797 7.335540753085766 10.33790988307023 0.7642408743082064 -0.1721484692742132 0.6691799913466152
Ni 4.047493934267944 6.988603446460331 4.403373534700707 2.020597321444436 -0.7394898926157716 -0.013182045907912783
Ni 6.271665082259492 4.073001036040865 7.881596343594843 -2.5625077063073998 0.5743132266737012 -1.5307700304299572
Ni 5.618855422044344 7.685745115925221 6.468552883005518 0.144915344589873 -1.074976946182052 -0.4545353005814043
Ni 3.8508227032539524 2.4898392744036246 5.558761948963222 0.6236542390006743 1.1935446540163315 -0.9538558757982991
Ni 6.093809503605568 1.3280629785577744 1.6212289823564705 -0.0031118061561043182 0.5406551722996238 0.7388936537926694
Ni 1.233558981386769 -0.08561075548247164 8.179725866508495 -0.4079489681814329 0.9994785587334207 -1.7032905383316084
Ni 1.0889107616447606 5.813860732042689 2.4107866946527534 -0.07769950886500812 -0.08322146712450183 0.12892051182351347
Ni 8.881274822571449 1.3306729214822892 1.8278161454602684 -0.1558949835298283 0.49810418631129055 1.0465189479516752
Ni 7.856899990049539 8.334575075936321 7.273024290438552 0.1827774097429691 -0.765365731941269 0.6818393319818387
Ni 0.7459124327096581 6.684359993419252 6.558415439124594 -0.27223380203358927 0.3019002187497704 0.6187611725744311
Ni 5.063048640523675 5.022178044939778 2.4515055063218902 -0.5538719281002138 0.8162843731680071 -0.39439102699134015
Ni 3.760094793718416 0.20836969859054133 4.930413562327838 -0.07633091065225564 0.3544386549681186 -0.6843957798551052
Ni 8.950632667522925 2.599466132350012 4.612628947964567 -1.2390922607391437 1.6869627477058622 0.053912690858055536
Ni 8.757256258073214 1.1691618790152227 6.598212441165072 0.00177174718844211 0.09911011333030027 -0.3341937886761535
Ni 3.725128962623317 0.41569264347625057 1.047289576092148 -0.721423522032364 0.43634783103910013 -1.068364840182173
Ni 4.3532274611063535 0.44545432242080085 11.417347107206005 -1.2463782528775955 0.020059232643720292 0.4848439788672747
Ni 7.664254734823364 6.148312886167517 5.541139281152694 0.1836706109811998 1.5405597628268692 -0.6331282399293806
Ni 6.149664133213542 6.808369302800733 11.418553048918998 0.2097588234278194 -0.5158106024521181 1.5858258337535205
Ni 4.8599543584826845 8.801412420104638 2.735099868374014 -0.2542787602170653 -0.6036567128328248 1.0158292321773021
Ni 2.6127657351249343 1.6202747798191743 9.193791424478572 -0.34161270684804396 -0.34732261274862763 0.9375710225953465
Ni 7.427786501768894 8.640854654663192 2.20391539946462 0.5290191307225921 0.4380385884779617 0.028873488501240597
P 4.64100606144278 8.305449223512744 13.053178812776306 0.14354494660490763 0.4313691468775861 -0.17499030959838252
P 6.581859575373136 6.124064480273086 1.2671226622936977 0.20040926389211938 0.9456342592194552 0.5735562939030187
P 8.612071241559498 5.492624884642 10.993716350090192 -0.407263254968318 0.5007606500975311 0.032620871358814786
P 3.1827513555121194 6.646802729633145 2.502816799115522 0.31300275642083514 -0.32062993394878975 -0.5286753742299282
P 4.872763440069667 2.431420977454904 9.106325943598678 -0.2542535634060847 1.3476234102730276 -0.4951996110699859
P 7.353773333090357 3.172256053113537 2.99661522389875 0.08816209895922882 -0.07296405106255176 -0.36800945167401783
P 7.722737817589358 1.6023476186674521 0.05811750565422868 0.3634074341256322 -0.31523318841325065 -0.7480074431684796
P 4.450267360267845 4.003421068287302 13.312675627337082 0.22550400207721805 -2.5070904058793597 0.08310988124730202
Ni 8.867706821410673 0.8192064788164395 11.758647122216821 0.26936059425085224 -1.2024560975733485 -0.20427646015700948
Ni 5.808677866660672 1.8702277179836388 12.747341628630258 -1.0260246846530652 0.859474535402236 0.33330110165855503
Ni 3.058705025663624 2.1061684093831534 12.999293672013499 0.7682667076381479 0.8245445562942704 0.5517769932443982
Ni 7.839611431953815 5.491375443880264 13.164267979169761 -0.2862015770675909 -1.2880146974714592 -0.9438231741526454
Ni 4.785228545814122 6.09740974402272 13.219588588541052 1.5785280145405265 1.0898055265544522 0.7852200476630348
Ni 3.201057976450739 7.805108356696396 6.495833265148429 -1.4122267480757096 -0.2512574568922383 0.6756190621037396
Ni 5.684131760507483 0.7663838254569452 6.743451137355959 5.703930142616254 0.4759338208618384 -2.6310147500398626
Ni 2.8813399681976413 4.963722727524043 0.9534769361426364 0.033463421864768174 1.4205116137923213 0.7523636632546461
Ni 2.631479581200713 7.118017744025916 0.1532906477665194 0.16495246574640626 1.1079217765391887 0.10858951357564524
Ni 6.710866647801561 9.11489247966581 11.44675524069057 -0.6994537026294921 0.575966446006408 -1.7288892127363193
Ni 3.512520420559627 3.1596135636281204 1.8626015017786728 0.6890091102574004 -2.306306018036009 0.297002781448153
Ni 7.44492697799656 4.322148779047766 9.720993416648891 0.5462735469276656 -0.24800012629720514 0.7120672776284447
Ni 8.522065231130743 7.463761140590135 11.73877546103517 0.0029901929765754954 0.9238513590164089 0.0006697723735149756
Ni 2.091517559562205 7.149670243323226 8.780806828164424 1.21268086062515 -1.0118370802987735 -0.9808827980091042
Ni 6.592567745457051 3.6987703901090647 0.8631340394640492 -0.0939653359045672 0.033912336476728686 0.12579276482780916
Ni 6.532076302355524 2.15123157285643 10.516484584295906 -0.8076554938484154 -0.33771799977932804 -0.738225166970735
Ni 6.342244602622443 7.118193591244234 3.412755815025875 -0.049538730160075976 -1.5477434250595021 0.8958921547993216
Ni 2.6952751009832747 4.585086646017531 3.8371862142291993 0.702752427985422 0.2562613378647329 0.054638256170170416
Ni 3.569772572797394 3.303734241715173 10.819395300524468 0.546885983700684 -0.5208548497442449 -0.5909819455786338
Ni 5.17516512487678 5.139523670258668 9.94677476638798 -1.1610855050463615 0.08387761265126199 -0.6502026789131641
Ni 4.285294904134933 5.986746312999929 7.658983945832188 -0.10012004265205338 -2.120794240081012 0.32000515588059725
Ni 7.925961671264899 3.17223754288003 11.823680976621016 2.067694789152871 0.22771437946497558 1.4580263229083277
Ni 6.120186586353327 4.4129970051011 11.918582943812426 -1.806048275716825 0.029852307474742133 0.09717510109111652
Ni 3.8377729886313774 0.8452401967326397 7.286664481510007 -4.665972196860712 -0.5512476031034894 2.522133159145095
P 1.084699683521873 3.330592590534119 8.208063182984667 -0.6664885605573811 -0.04924870972348293 -0.4569328542793034
P 7.219657436213946 5.962442376404977 7.588884766028749 0.7779672227553635 0.8495570191782078 1.51459573466294
P 7.947239184681424 9.531937295699763 9.44409050400962 -0.9009927092506805 -1.1166164760997093 0.10335500464958329
P 4.469851187318461 7.960825696075708 8.337831951521913 -0.5713112066225838 1.7973196375945757 0.3393470507423188
P 1.4443072449829852 8.972585804462463 5.7529546597106 -0.2557131786707467 0.23366879727619758 0.11089887843511224
P 4.295984563985339 1.861555673585516 3.2811175129044017 0.0015999974972682124 -1.6649415062397648 1.219334875606558
P 0.5006361050407877 5.127288405910409 4.726725101791268 -0.25090470153850986 -0.16920738436801827 0.03024414359652211
P 1.1123354621481214 8.329771670341202 12.668247400853993 -0.863165611100578 -0.32063199083131877 -1.6314513449021193
