# total energy = -340878.53279073705 ev
CRYSTAL
PRIMVEC
9.17389854254967 0.00000000000000 0.00000000000000

0.00000000000000 9.17389854254967 0.00000000000000

0.00000000000000 0.00000000000000 13.42692782889701

PRIMCOORD
 96 1
Ni 5.203416958349928 7.3842728376139215 0.866570134684039 -1.1334787990726867 1.1309151521105685 -1.7537162990823283
Ni 0.8413428308258335 8.266517495506852 11.787822160869842 -0.09213728155689292 -0.006932208343459029 0.25433301049376844
Ni 7.963870579516379 0.7397272251980653 1.729401905674046 0.5837000672052399 -0.10449554601192973 0.03273579967012427
Ni 8.02850986930325 5.722934838087439 6.111279728182944 1.5479480848711404 0.3097978763302922 -0.3810575431072276
Ni 4.3206677360320365 2.8987593169976833 6.068917416453049 -0.2405750374777276 0.22272566800113253 1.1168309061033603
Ni 6.45610364315087 5.349502120224202 0.3243762122989005 -0.201440276259795 0.3934528314477869 -1.184693631383605
Ni 9.148899761879317 1.2595762826763233 4.304780378374798 0.4776276636244936 -0.2112644614390684 -0.5244590221557355
Ni 5.978565523570146 6.933238111191624 6.81558928291831 -0.38333811161128817 -1.838355215379647 0.890830166895382
Ni 6.783254042397194 8.90269984419407 8.194628991018082 0.6110548050691088 -0.562667929125289 0.19423347409871064
Ni 6.838517607778419 4.8947519648544615 11.278390982682241 0.021808354124343083 -0.7425145383747084 -0.9730175363284146
Ni 8.278452737631847 3.3965809264618545 5.235588903475329 0.3883916148747956 -0.411794052959136 -0.29624970533221234
Ni 3.166875678523526 7.531146954770862 11.85750801229619 0.4245732070016753 1.639778890931208 0.6418903023927268
Ni 8.441995828609786 2.7579674946361865 10.938125577946376 0.7590948113308926 0.9780936652997414 -0.003593630888529295
Ni 8.867132639183609 5.709238207424396 1.001331036082452 0.016741224014080847 0.523608244119666 0.6808666836559242
Ni 3.2611833564981265 5.740713853643351 4.276503670610099 0.47679796863434654 -1.5423474508549115 0.19367220227860193
Ni 6.923770647799621 0.48657807929630426 4.099563018064641 0.5911015018756336 0.8464418705879938 -0.5284259772232835
Ni 1.0406228439389904 6.379519937340367 7.610248895756853 -0.987340637819306 1.5355885348645233 -0.3378982341109342
Ni 6.778190050350308 7.377933673656679 4.469031694327408 0.746398961030779 -1.6914318392208096 -1.40740850075146
Ni 5.203875653281711 3.5511152489795723 1.3433238859314134 0.0699309206631828 -0.49540092844751454 0.20134694521504032
Ni 1.583717643170151 4.238588864938773 0.1506445894961974 -0.7100744155681319 0.08279749221320579 0.7617034525983334
Ni 0.35401983096031353 8.393328296347601 0.8566999371419308 0.482231223834776 -0.9476224932940776 0.14223214133075504
Ni 5.291578124238635 8.920717381114509 2.666521155646049 -0.5481311689616947 -1.1202322184754254 0.3007954157213658
Ni 8.130138318389108 1.6781262340297431 8.927953752358318 -0.402612643570184 0.6464828068594156 -0.8109452203432808
Ni 3.863587410408839 3.273549771858998 10.229050182869782 -0.7628218824734927 0.1816499810067452 0.07194049489404385
P 6.085478138270146 2.346692444900846 4.676424186004081 -0.15345320685755506 0.9162378083352091 0.23346388035424306
P 3.035954971094001 0.5310843311373524 12.801461816751761 0.23107686817930523 1.1860869121867057 -0.4671990120920019
P 0.6357300754844796 0.6474442266523557 10.147884114690768 -0.5139051578992891 -0.6141208455889423 1.4533345738596133
P 7.023371665286998 4.954712566337145 2.256220373945816 0.6348922738083389 -0.5559226399816555 1.297597713174204
P 6.239361113984731 8.78426481280768 5.904424826966321 -1.2324305324482516 1.3537094685661073 1.8178910339880243
P 9.181146015583668 1.5535997339492742 6.3934596763172555 2.533736547711978 0.5424287192602788 0.9292236790719158
P 3.1467756666127915 2.908336867173314 8.03441877741448 1.6038371827292766 0.43410351508961365 -0.9431621435298788
P 5.209655209422178 3.499879025099403 12.100790630215297 -0.21890526581377784 1.1160986559230262 1.151672439262578
Ni 6.462442807108112 6.4467646143397666 9.151579457670794 -0.4586770906639197 -0.13041432276022055 1.529208085259476
Ni 3.4752471072626516 6.747815271967634 7.780367837276833 1.0340768655335804 -1.13546497626478 0.9521946860457923
Ni 0.3109502116456099 5.659671633095917 12.053474413222148 -0.8099000669082183 1.5879073988728976 0.5583477044833803
Ni 7.166713831469209 1.63051370011066 6.627343635084127 -1.6968218998881293 -0.2846558298470259 -1.1052272604261608
Ni 4.1086130690687215 1.0032208592013983 4.424293342850879 0.11977869742324532 0.049571126059908176 0.38890789238958184
Ni 3.4232769714916294 2.869549623741737 13.200160368847472 1.6614838867084676 -0.2980911294163254 0.37846098602464495
Ni 3.299374296518385 5.17258348503547 11.733792484855114 0.21239368994750518 -1.0189940030585287 -0.2837592861746855
Ni 8.782017207641942 7.585548173680334 9.832190080060657 -0.21444157361546937 0.33724800212144496 0.003502099615987517
Ni 1.4115602613733271 7.064360644391134 5.056124511415202 0.0599493839704387 0.4852193599288225 0.4958148760564816
Ni 5.988014639164878 2.2032677136309142 10.619733499727516 1.6125673635134228 1.485969843396131 0.17871223853465998
Ni 1.564067152292564 1.3878457334001422 0.9302287347067577 0.3311370041277007 0.28655330398005485 -0.43105804339507053
Ni 0.7986530109146462 3.915254807524884 2.718388543752352 0.6697042392812015 -0.49590409333617813 0.2785895690482879
Ni 7.215418059325936 7.438352970071146 1.731845832270586 1.7650942019019666 -0.19813383759438133 1.883915420507949
Ni 5.605169501301452 1.9223078940151452 8.335947395161265 -1.0629920059060338 1.569694989629929 -0.4166842911719017
Ni 5.310880006968067 6.182978332969956 2.8332163981952 -0.8268084126277825 0.004678122201959685 0.27885670666674556
Ni 5.421517224514145 0.1643302114808772 12.053984481986289 -1.0922694147139125 -0.7732309936219587 0.9096982074444784
Ni 4.6940178888075526 4.849267775418852 8.514028363307135 0.36468398684521064 -0.7580851391194556 -0.0835647093965335
Ni 3.576710426173068 0.9548560655941909 10.729807439897366 -1.028671378247293 -0.1891159503664872 -0.007983275315792704
Ni 1.4695484746493435 9.123423845368086 2.9599932556109967 1.3960370256897248 -0.3845336745812862 -0.2158114573798025
Ni 4.257670574100949 7.78546577274867 5.310444246782873 -0.560020464200113 0.2930599947503211 -0.4537516283378444
Ni 8.567494761945634 8.159403055036867 6.194768627496508 -0.36449526787317227 1.2298848832082625 -1.30300397179144
Ni 0.5042653558658596 0.1370231848019672 8.047080592311419 0.4977547733916718 -0.8081689431497242 -1.1662943029408106
Ni 6.533448782548132 4.204480309811384 6.805774128768016 -0.9082946422287324 -1.2064191959861545 1.5473644444535286
Ni 8.826464746531721 5.175308132930262 9.478940856585739 0.1135129190191916 -0.1621965002678239 0.5121079567895503
P 2.5582425474392 8.284856118879539 6.8124609834835494 -1.9016200368765641 -0.16934828082125672 -0.45352639970091574
P 0.7248600050691123 4.896091354055268 5.117929066523653 0.5065890838538502 -0.03028810946058009 0.5049985994382786
P 4.691109762940048 5.179968473437177 6.0317117531462605 -0.19230926049280428 1.006191709087538 0.018220122552452492
P 1.693932861378988 6.827242886355191 0.11523150598281691 -0.560064430064171 -1.7808563498322298 -0.38401688284586766
P 1.3108950716442136 4.242010729129875 10.886513224222142 0.5716984147586736 -0.5315233852016846 -0.7212965095361965
P 5.398995303363595 0.3479412057243242 9.869006770065294 0.5551402532896762 -1.4898694355608533 -1.7569620597131355
P 2.400249665135838 1.9407015607796465 3.4320839141818644 -0.9711462874476307 0.44233490186047036 0.07941623444579872
P 9.056353472442764 2.689245819956446 1.0564248843389172 -0.7286969157653257 -0.28152833996163773 0.1433801388922692
Ni 2.463879826072786 4.825057856919341 6.411505652323465 0.7751593209929231 -0.17048856507328702 0.72898950730508
Ni 2.1648566000433993 4.759262655904377 8.851070977452293 0.4220054462744991 -1.1422202927107425 0.1381001214402525
Ni 8.677324676411773 5.832351927114973 3.658032450628889 -1.4173923514370492 0.0394458647004482 -0.4589033477421129
Ni 1.7141521339719858 2.882640777094826 5.294251398301068 -0.720745522128733 0.5131662228507355 -1.2868235053768353
Ni 4.35836328552597 3.6237358305794687 3.7677165001067214 -0.6586315264068077 -2.532484420472432 0.019666625190991938
Ni 8.186557794998427 3.917713412359241 12.994835673923278 0.8385254439543947 -0.1213198166581201 0.3137635458462596
Ni 6.2000784800268285 4.581078022703924 4.406851926764759 2.3098986204832737 1.1379157517981178 0.3705126777118458
Ni 6.8432513394744205 2.0590173314837728 12.890656881016707 -0.9670165815499733 -0.1281142138721342 0.6393762777216214
Ni 1.6199361949837423 2.4221477611791618 9.385314799279767 -1.0479649363695822 -0.5064553864894632 0.08555422902273653
Ni 1.6786674940492472 6.509477385413148 10.276554464784963 0.6508531680129693 -0.4394696644975335 -0.6324463833710076
Ni 3.7102456947137563 5.420434704475136 0.7714762535963626 -0.21857822149166226 0.7790504285172132 -0.5908492766555116
Ni 1.7366740551225348 2.2806312008254475 11.796254808495743 -0.5625558290274569 -0.018402156656271536 -0.27235721498533094
Ni 7.531504736817653 0.20214410426721033 10.777499786734579 -0.048516459543148704 0.1531333616242911 0.036037867460163735
Ni 7.4727734377521475 2.6617241240494613 2.8412591551290842 -0.5947239291195693 1.887430375639743 0.3208181387001959
Ni 2.3585726436340275 1.1984505960669107 6.60245026113626 0.3259796282964773 -0.07785840304037558 1.0787333279006905
Ni 3.7404645168196256 1.3601497334190802 1.895707257531181 0.790165050373136 0.35107616625378896 -0.5976279901402417
Ni 0.025436468747098626 3.6311942101702614 7.692247036542122 -0.2528191449524033 -0.32032063023848706 -1.0979176141386253
Ni 2.985911354036468 8.306185433207451 0.9519561962354584 0.03883394214806215 -0.5302216356711256 1.4101205003659842
Ni 7.473764218804799 8.619932766547075 13.09661182277717 0.7567111415900645 -1.639888419925879 -1.114482203365526
Ni 4.369096746929694 9.094948064002992 7.57787604225133 1.1930787701235066 0.25395634388064003 0.09475183636160456
Ni 5.401343821414325 6.670286654597659 12.09584956841013 0.19123273959917386 0.38084105622104736 -0.9704472044980771
Ni 1.488180662778372 6.544035461573685 2.525860520035042 0.5728137593100393 0.008482326439398296 -1.0212025806740734
Ni 9.053766433027507 1.1144268584628871 12.585677042603185 -0.05835041491443499 0.24967031491077646 0.8343345458014986
Ni 2.4638064348837005 8.530322124673933 9.319980127976315 0.013922523618363119 0.1262751037808664 -0.12119151861037193
P 9.015199363163187 8.056884737783351 3.7384196548137365 -1.6292628218912328 0.09550028449185488 0.06850421551898525
P 4.337868795973902 6.557732092236728 10.153160941185998 -0.918472611202999 -0.6091012808871639 -1.0051092746566368
P 3.2701737771610744 7.573512018670347 3.262179641889959 1.153484295660336 1.853537322436724 -0.41471585459162125
P 7.6054188381251775 6.9504758667280315 11.706602884078741 0.10509307038661256 -0.10153466361139286 -0.8368670824153652
P 6.069955901778606 0.45451071661534953 0.7824996101969736 -1.9459797939388614 0.5529987814666412 1.1576078309104063
P 3.0076259721070784 4.3397494451942125 2.448225485440893 -1.5112954666451135 0.8278327401272388 -1.5316169518112848
P 8.078195704313993 6.98046534136801 7.898712964456593 0.3269563903874498 -0.39727400496609 0.11782131658655837
P 7.2016939069669865 3.776985807288194 9.036805729229897 -0.6270792055218233 -0.32154576089483977 -0.07565805295494711
