# total energy = -340888.2113473152 ev
CRYSTAL
PRIMVEC
9.07262063146553 0.00000000000000 0.00000000000000
0.00000000000000 9.07262063146553 0.00000000000000
0.00000000000000 0.00000000000000 13.27869736869789
PRIMCOORD
 96 1
Ni 6.52034716850254 1.9185416872886965 11.571839805004352 0.6074192651990507 1.0402356860461246 -0.28396291754505937
Ni 4.873575827336053 0.3390746738028297 5.926973293812939 -0.431520841964102 -0.07786560212922719 -0.06923595147868722
Ni 2.8660770963575457 1.6474971508039364 4.7307745956921075 0.49555262353403046 -0.38675510771263716 0.38408218886616435
Ni 3.487025386435871 4.163552549501832 4.376286446976008 -0.2811377893914384 0.9328476489777483 1.9689718839586603
Ni 3.7898603850408854 2.805344974944023 2.5259663292972583 0.43222892377472016 -0.8166571831263936 -0.30984981261415023
Ni 5.371172769529966 4.679703000553028 2.728891816783361 0.5804923589012196 -0.5789358130473771 -0.6855903143838387
Ni 5.088288463334323 4.408785480754822 11.67951729376806 0.5455801204050669 0.9505818330327177 0.1631902316396609
Ni 5.797141373128157 7.950972399636796 12.200241252797229 -2.2763462384491246 0.8021111669914186 -0.587083381855176
Ni 2.056499954126764 6.6100300218297985 0.1647869128243129 -0.6137886590605042 -0.012763727423571566 0.19905480674675394
Ni 2.2759666432503236 1.4921285252875676 0.12811900994040304 -0.1383595457492262 -1.9949698506843192 1.4669573068493704
Ni 8.45735163844384 9.028146482574456 6.479805256678747 -1.0482058487357948 1.1825135930131505 0.9352359467042668
Ni 0.16584205858475398 2.6498221148796963 1.1404211347449429 -1.842296973636214 -0.08431264330615157 1.154005715381445
Ni 7.047248674808445 0.5399325110842508 4.599794081256063 -0.23869736083904053 1.1532027598641754 0.1747267715243507
Ni 0.858996613182619 7.529204419315339 2.3561323177065363 0.4586048426650876 -0.32495890034144675 0.22957431549184976
Ni 7.747228561784469 3.6822591062891106 3.757419416033067 0.058521907495292756 0.7038292059893685 -0.4915324466310438
Ni 7.932173930026874 3.9548732061148537 12.407083390539416 -1.628565795824208 0.5175481539685151 0.03698583319572985
Ni 8.18333128244554 7.289015865042618 8.462301660171239 -0.29453169419984115 1.334148001494412 2.1188132050952415
Ni 6.968425748181513 0.7953957291770803 0.4883546637230504 0.16457065692695527 0.057529718785352534 -1.2492170078779712
Ni 2.0130693199459255 6.643353756809163 9.120699005755776 1.1666318887858877 -0.6889648872830263 -2.567397430299533
Ni 0.04804043264068464 5.383947019149063 1.1152990486687486 0.43245132419817134 -1.1994286236009344 -0.39845362709648796
Ni 6.697018306878029 1.8799013967150198 6.725872869014804 0.39467976187635256 0.47222063367630934 0.6751655195060888
Ni 3.877538189244692 4.655270433632411 0.6215017199268795 0.03351381548672938 0.6066551333395165 -0.7327718571656477
Ni 6.391987734119732 5.92456632760275 4.651912656797163 -0.5182968592090815 -0.9354177236977695 0.9211398736225168
Ni 5.258708566207285 2.825930750786163 9.56322514170827 -0.7461984149841988 0.25589032767855924 -0.18132679333937157
P 0.22402386638469102 5.905386807933167 12.301716698208937 -0.29315821089108224 -0.24957235588033147 -0.9203155779490085
P 3.9155161785241965 6.544806953284563 12.347116998293401 1.201795324060898 -2.0536948753293536 1.185323808768436
P 2.35980672899612 8.502723813404852 1.1150069102896754 0.17871609518940187 1.479195243676459 0.7513578476979511
P 6.567506649695772 7.875488197342127 5.818725137221788 -0.19813332337374912 -0.8552065041545013 0.6695731130199759
P 4.840215801874815 1.0510358633690382 12.489955427681265 -0.32777708651653226 0.47757392756842276 0.4791369011801684
P 3.9785255276752145 6.3296225410219495 8.079105018507901 -0.05407029948184235 -0.6605822223752752 -0.7772645402613839
P 4.826488927106566 0.9870466712074644 3.6714136957815335 0.4485297178172727 0.3289975891871947 0.13906839889079275
P 0.21946215281332573 5.76013415423874 3.4831486557098477 1.079929919311953 -1.5688388122772208 -0.788015608130301
Ni 0.9378367777884405 0.1505873545296753 4.412205858671299 -0.911612907968688 -0.824179973866 0.9644539630291196
Ni 2.001401930023937 6.759265555909725 4.495144125942565 -0.028255395301267465 0.008682872485978594 0.06304164974251725
Ni 5.957781191136497 5.680295094119379 8.857740895894242 0.5822599923246036 0.10896797996098653 2.1734267786750636
Ni 8.981495068127439 2.592210974907204 10.33589849292297 -1.213282498764891 0.0699157511545312 -0.5497548206080468
Ni 2.243332427426535 5.534126105757673 6.486245002687012 2.2414635676393266 -1.6188696515823668 1.8048090039930855
Ni 0.7362268202702131 9.044123367218797 8.989279376489076 0.10161205381654759 0.6151695985684308 -0.09534113320617128
Ni 1.678634384250487 1.2547161928780879 11.173691484809572 -0.8627881731565012 -0.21604517065716342 -0.5452391921258802
Ni 4.12316124317781 7.204159645804393 1.4640161035050845 0.737129362803395 -1.0632324040516141 -0.20661102182745708
Ni 5.596046740452518 8.101686770853025 8.156346587387242 0.873252820133251 -0.3190204233698247 -1.2435487538486003
Ni 5.3123731162761505 2.811323831832507 4.71887676121023 1.7067098484258025 -0.14917823363128502 -0.11687772172636646
Ni 0.9869831628641875 7.569486854193744 6.8736776508469095 0.46599033649588134 -0.6091539885019702 0.308401767313714
Ni 5.293710735973249 4.797701502361256 6.9081227617161325 -0.3887716239220337 0.4603202826942976 -1.329472964616246
Ni 0.6969895512697347 7.3978691654189905 10.672633337907074 -1.7880155865848304 0.8661756015714954 2.2150884200799075
Ni 4.584821535697543 0.3535418744012765 10.17640817592794 0.5902257841388997 0.354185401306732 0.5614569395363234
Ni 8.456408085915156 7.310844589888888 4.708771676532851 -0.3032575041086132 1.0523635796579103 0.20113431498360201
Ni 7.424079965951358 5.831898582141483 7.001325791785018 -0.11647637252288971 0.8088171182566846 -1.5443454551215465
Ni 2.3592623717680334 5.421317142857205 2.3313803945454405 -0.10272996947107471 0.054672708952531644 0.3311580871736233
Ni 2.2120228141910907 5.618029699846747 11.25598015245532 0.10421195333323988 -1.2329542661622055 0.20912196117476886
Ni 1.412271319927271 3.570783818597454 3.519558896172463 -1.8028133137192954 -0.4689900425541536 0.2067282641316117
Ni 1.7164853568434382 1.2226535521437902 2.5472788220388933 0.9783610600285151 0.17254750448484477 -1.6227761857256247
Ni 1.1533387317674366 3.556739402112821 7.864401455130099 -0.13913190513887652 -0.006524945602711343 1.2582086698536201
Ni 4.190970008556458 2.934194330832109 6.809249343854679 -2.0021005481918293 -1.3913123665205458 0.10422429462841404
Ni 4.192893404095697 6.975574973110383 5.865254071292486 0.43774856804136864 0.2613086704806532 -0.256673485701487
Ni 0.16182470224147527 0.0156883753134543 0.7494456282922481 1.0611629231170951 0.6744985753460513 0.1329669139787452
P 0.41130452713558685 5.604339115560371 7.84019388919709 -0.2728688645144268 0.2719430102660478 0.673812090801988
P 8.741905306805613 1.743830234934319 8.221717539646109 -0.28174276996528896 -0.35760831094535184 -0.9407674180454573
P 1.9589239209922502 3.5221817907497934 10.359959989666441 -0.2383692880756604 -0.47343008060337816 -0.1135309167413206
P 4.042369557909298 6.079245433963543 3.6999625106085325 0.4576296232360118 2.0056849231089777 -0.2193366969242416
P 6.791600375258066 4.00781194654627 10.379399893543459 1.5536451352559177 0.6525534385335278 0.05491207865684737
P 6.542792831540641 7.834298500416913 10.04768492946436 0.2502799234703173 1.09888692003043 -0.683833479593732
P 2.5628610476928704 8.626556010174074 5.879900002514155 0.38444162908811214 0.38115550213767263 -1.6196129575062943
P 7.190342044831463 4.061775893090584 1.3000212304476375 -0.3416618149184245 -0.35446205200688635 0.7864176675155617
Ni 5.403262628125668 2.773327697312066 0.5752785331659571 0.15591246703132502 0.5882943714441417 -0.7611434663298053
Ni 1.673825895402389 1.257882537421458 7.159687474793816 -0.7319380484104427 0.10839642372823269 -1.5685500773922083
Ni 6.795755635432461 1.1217660125384168 9.238494280865519 0.3220905776547162 -0.34979832798262983 -1.8298903724417452
Ni 2.9577649988082566 1.906202923452068 9.026791940338567 -0.1218962579868804 0.4406690841222733 0.6319077372587182
Ni 6.569829240535607 1.811421257421732 2.48056693647484 0.6508251429885114 1.2356528960402913 1.2878074665566595
Ni 4.200886382728101 6.97760724009524 10.249334806512648 0.6116934670943724 0.2225860570994747 -0.013661299537176473
Ni 8.055180518333497 7.713324179095146 12.626832238159533 0.7064285912854285 -0.5210731364026381 0.9156677947643521
Ni 7.701919895166732 3.7731304728976918 8.226232982853086 -0.15711317220764554 -0.4881208498463336 0.5918689761692774
Ni 3.208151178487132 8.674014887842754 12.228857205015693 0.6449655988839409 -0.7236264432209537 0.7525582957639556
Ni 9.033190859554725 5.0372005374784 10.069355790714486 0.2836908948305953 -0.05074072088797713 -0.16943621254937272
Ni 8.917524021206802 2.2184280842415753 5.446350317252811 0.23268020811068316 0.6232562322313072 0.19735402200556335
Ni 3.460469826325715 2.727674271116541 11.952062441678246 0.72505057726199 0.8769233270063027 -1.0698673928696283
Ni 1.0772557365218733 3.4812189093362806 12.442524675136037 1.6553777738107296 0.6453952302221917 -0.695272574668609
Ni 3.3153532619383097 8.627163875745437 7.931963445232014 -0.6423942386123388 -0.1616272580279152 0.5606221023398539
Ni 5.564238133091327 7.904493364978673 3.5345368853032646 -0.3123134436632944 -0.12420896528045704 -0.2293431733176502
Ni 3.1781843130809677 8.578035635910627 3.404538028401869 0.3130631773451254 -0.39269409890489143 -0.012307613722759448
Ni 3.6704374818191643 4.505209291089885 9.56167100182208 -0.10802001422542042 0.751087881866016 -0.980046675261054
Ni 7.039428075964936 6.195266104509722 11.164516343730172 0.4073725268526726 -2.4398192914365273 0.05893354111141464
Ni 7.8668873531383605 8.565134369604975 2.715453451345998 -0.5278320523930264 1.1994162823057604 -1.2957889421002393
Ni 4.721881613109267 0.5128262429116812 1.5177287384624312 -0.8805694083993222 -0.18253495471485984 -0.7613021033948567
Ni 6.25630669501916 5.785591927272254 0.34777350230765264 -0.584691998804864 0.3473645217301566 -0.4878511411247147
Ni 8.098801677544166 0.25669709447649236 10.834633141723584 1.1328897593384362 -0.9425376225720025 0.44704516285194623
Ni 0.20295179808546074 5.254072457148081 5.592668096590194 -0.8875288704362909 -2.081276384492048 -0.6068268830306904
Ni 7.445191953780648 6.218056527125612 2.4665043747492708 -0.971666421617159 0.004481432810121314 0.37903537047087626
P 8.859413887108563 1.742832246682827 3.2025697023751514 -1.6049936649312229 -0.2735165254007547 1.0117961997585092
P 2.2283081679313463 3.2915557784504594 1.1657128788238904 -0.018543053109510002 1.72261186436804 0.6672264671646702
P 4.866653417918885 1.2724894563751137 8.029628390047115 0.5005017400091897 -0.3385965457295394 0.019574322587501775
P 8.73121775989418 1.4959662437455779 12.512343933210417 0.18503818075268777 0.7956073044346298 -0.7168916956002814
P 6.331464282976976 7.919417825648712 1.0363237020179523 0.6597394147590058 -1.1888475056509784 2.269162319106176
P 1.9786568705103877 3.2067177044531707 5.936746320581186 0.4379514280807941 0.8535537990424267 -0.9917307964672017
P 7.213223193652034 3.9492028183222856 5.957593387892807 -0.6392832037871828 -0.5419504940722796 -1.106415110086675
P 2.5313246189457232 8.625784837434285 10.179887525877458 -0.5168673258514066 -0.25336987524955074 -1.066221825697241
