# total energy = -381166.95348525327 ev
CRYSTAL
PRIMVEC
9.28454473279029 0.00000000000000 0.00000000000000
0.00000000000000 9.28454473279029 0.00000000000000
0.00000000000000 0.00000000000000 13.58886971260096
PRIMCOORD
 96 1
Ni 5.6003260253095455 2.3607440750667403 10.55470584098289 0.002855210060607986 -1.278032646558083 1.3305119474037213
Ni 8.329657245476593 5.064366390606901 1.4648662747690702 -1.0302050412830002 -1.1385415583075746 0.69775368921925
Ni 3.7854946170003516 8.028921553974438 12.820676996270143 -0.2989074546700336 -1.587806611628975 -0.752359292379272
Ni 1.4147696562442278 1.187883234298683 12.278739971607662 -0.4876809340954375 0.09140143183213291 0.13875343875353524
Ni 1.0521524734678966 4.408580420362692 5.806877437174265 0.45629239248182707 -0.34458233099932917 -0.1752970422055239
Ni 4.93989778265167 0.6142255622336166 3.1832470460484776 -0.03138751317234595 0.12141546169571994 -0.34721822596027946
Ni 3.796376103537986 4.672428615265852 1.093012826798508 0.1572934065392517 -1.1085936057952326 0.7303077118958713
Ni 8.497336125058233 5.776193873428894 6.074822901709727 -1.09417228816358 1.4020294958277337 -2.631110137967146
Ni 6.535326112146151 3.749071347642723 13.330504351101776 -0.8445531382057132 -0.1403362098596228 0.2580703660490136
Ni 0.16182033179559288 3.3877632856870457 7.982061527776404 1.189790586290538 -0.3626718415111883 0.34356545969904057
Ni 1.201308686119007 7.3482715726826315 10.000239323075922 0.5183508523754685 1.1824092062248022 -2.441849177382362
Ni 5.694146350789749 6.082119625489528 12.730175895565711 -0.7241584044650238 -0.6402018589467103 -0.3663451765977175
Ni 2.475101813705005 4.074996009261432 10.725368773272036 0.01727472792004767 -1.0556869876041883 0.3118586155140629
Ni 5.077318330641032 7.302025254897684 3.3945679285909987 -0.11723021996977875 -0.410306412670016 1.0655885629886162
Ni 1.5012273376763559 4.978020123712701 0.5468569049664859 -1.2377563155365394 0.774247350701615 -1.5069531305160175
Ni 4.137731678659724 0.8710277160673123 12.268534399933456 -0.653235552202217 1.961886180756473 -0.31538848304419237
Ni 0.08400099087081571 1.5304922229721105 4.333463810437151 -0.3178480003282784 0.2335860077544042 0.5820818148755266
Ni 0.9484719613810652 5.883253959832875 11.447046229701346 0.15417440129429577 -2.86850292106215 2.2867466078468426
Ni 7.1479668025777405 7.580357339731482 13.600556478858557 -0.24516188551746165 0.864837342376046 -0.00112100097832065
Ni 7.612073344861653 6.509626492064092 3.6984687214247907 -0.4787964871216141 0.2989187675239433 -0.2147382789202818
Ni 8.24339453948584 7.220246984058531 10.902255135958942 -1.0909123864653856 3.2124735866194096 2.450111674501471
Ni 4.987685334877955 8.292946155229316 10.817854909660552 0.1845483856004628 -0.7509647260245905 -0.5650644543819235
Ni -0.01752736372503989 6.976249145996211 0.5931450032031562 -0.35875810827907895 -0.8590351338719722 2.2277431327294406
Ni 8.336193565035035 5.395722510949601 9.954879679321985 0.6100497608433623 -2.6457661973174242 -1.2534683269551574
P 1.5946669968186387 2.12496305917661 1.4494975677163855 2.8483611560069524 -0.3799743373453779 -1.8061593473733928
Ni 6.861789277364846 0.2744316475518363 10.180441196720668 0.9473741247286974 0.19716427459226044 -1.3885427741952086
P 6.167713844252714 1.1178499126661074 8.195488145085765 1.828169790206213 1.0785628637610973 1.5011308674072856
Ni 7.466064592907009 1.4902622902352753 0.715468881303273 0.529266727957024 -0.5280248851301228 -2.4278523488826376
P 0.23200870532678475 7.588490601000226 2.7383882936461106 0.04178891101132803 0.7393063158500558 -0.1552298391420036
P 6.69287555332117 2.0619117152541895 4.083931455203258 1.8752266344846995 -0.4127260778551021 0.47614902219643807
P 2.2427839330354704 7.094014312586108 0.4829188870130548 1.0071005940550526 -0.23540712012354295 0.3509195860712666
Ni 5.143303590728889 3.870123243101495 8.817124631000558 -0.6463287977800546 0.0008957723413920057 0.3532808872145916
Ni 3.471974107270959 2.2849729047308727 2.2424079089699633 0.6122210574630682 1.8360805604128572 0.24788854042000533
Ni 3.6255311941702253 0.10494692400127974 1.1649114134868945 -0.9582362642541818 -1.1204821297027026 0.495293970556005
Ni 4.422015156727844 5.554720341117685 10.58288907680626 -0.8314978476836519 1.1156083465501692 -1.1399242975877142
Ni 4.063566734578985 4.449488124871923 3.498753519916437 0.2904130440457773 0.8584527790059409 0.1679837963735623
Ni 3.5858211959437205 4.111948497674219 6.309353289411615 0.9085162713212354 0.8083538054670208 -1.1307164058362011
Ni 5.53098904453902 5.723336959726885 7.467260442280769 -0.32158818409700096 0.6674113294819667 -0.15081216969028222
Ni 3.227057099270733 5.271411740256434 12.552337867034002 -0.3453215231581988 2.569553043189955 0.5023534485059478
Ni 5.583725259158275 8.373721695227117 8.059286657832232 -0.11913926406703351 -0.9059857915898979 0.9881968151720143
Ni 2.8179707696335985 3.5706688187855122 8.371015250409949 -0.9661007546039232 -0.11821803780434478 0.6438150302192653
Ni 3.5953935616607016 1.7413349514560235 9.950966243677264 -1.935277834140325 0.32936577115989085 0.33212790728606023
Ni 8.928064728687882 0.628157950201513 8.361748346217787 -1.1009731131354974 0.8033298698898682 0.9296736221251408
Ni 8.047082123656702 5.408256646466501 12.543831367063202 0.5227515525463255 0.38345818212892024 0.45049584040470797
Ni 1.6328914678727702 2.287396170930807 6.732931865069734 0.9622664684594977 -0.7701826937139381 -0.5268200661887443
Ni 8.232930857465435 0.6720979870513508 6.35052746035739 -0.8643827713371307 0.4142345440798285 -1.3631611008973104
Ni 7.691196235880188 2.2682514394968454 11.700981316092363 0.8421874661870141 -0.03251288502604077 -0.26515555503056915
Ni 6.30013930712497 7.363033998958091 5.907774442721863 2.878305508974869 -0.785598514048376 -1.1096194759565858
Ni 7.4632328067346725 2.8559445579773914 9.147035147713641 0.02162966245463372 -1.4685735022965547 0.3532063252229143
Ni 2.3809472446110176 6.407180824439296 6.732293088385614 -0.045877993479037114 -0.5235879324046918 -0.4907752567500451
Ni 7.708140530190071 4.655967117286989 7.795065224227014 -2.7129362674060182 0.7611678918098376 -0.20063860629410607
Ni 6.775331595932718 8.845720100614262 4.0041372915937075 1.1006216433333496 0.7655783621727072 0.38683018392494667
Ni 5.013004288622093 1.7678701805725423 0.6449100544334705 1.4993496071371468 0.6643697144421655 -0.8900871180817703
Ni 0.9192655687177227 9.349165259331587 1.011979176454508 1.131798068936154 0.19412857308973017 -0.30063369333252093
Ni 7.969908987051908 7.6975654336317385 8.60864389072072 -0.5332701926894623 -0.4591730564637318 -0.06270972032439523
Ni 4.804724094510524 2.5012749455732575 4.816452331536412 -0.5552654660136308 0.14005878782852008 0.40587923013659777
P 4.072108515820132 6.162338092797688 5.123180268270127 -0.13765352082113713 -2.814146972019089 -1.0223742323846714
Ni 9.458908579190666 2.957898144726339 13.57755030523091 -0.8104461692196753 0.28258532047124235 -0.618732890439657
P 3.4545841548093636 0.8142945048998919 5.638375018466441 -0.1464682908992897 0.23501914065650492 -0.45134096201382273
Ni 9.011987729382147 8.451498327245687 4.798542444564486 -0.3277164084819259 -1.9755091708565462 -1.7832685588181483
P 9.251296872306666 7.8291552874695345 6.896215441130114 0.5386319712220078 0.0498313216998303 -0.3072925934099353
P 5.8066193268280655 4.872696247191431 1.6539692415397822 1.1107384200523773 1.2629199592863605 0.028223256511751393
P 4.51986497466311 3.6470434845351565 12.023622034205644 1.189888288210667 -0.30117696743050065 -0.42224121643438894
Ni 1.7884633009995676 0.3863224826294786 8.498669385695438 1.8736508053571472 0.054201939963700194 0.6038775705943793
Ni 9.151060926350773 2.364560022990774 2.243617685160965 -3.1343570448216407 0.7687711580783921 1.6722172139655715
Ni 8.201233421424918 9.087006851587 1.9703865292553027 -0.41734326491213936 -0.7352804825201142 1.7549653409980808
Ni 8.300680181070486 4.182093233844722 3.858736677325253 0.3961360347069049 -0.6444747752904514 -0.4486796131315756
Ni 3.2026573154645006 7.489721613127054 8.692746083130151 0.9329630915096899 0.22848956706810328 0.36099933890477187
Ni 1.777526107192969 4.350830551536679 2.6410649094025542 -0.4085647473885609 -3.1830827921621183 0.7512233790026159
Ni 6.417774490087282 4.477230344815995 10.781993355264976 0.8335555015436289 0.2854605851365084 0.8956656406108123
Ni 1.379209849555541 9.38156832077898 5.938635341273435 1.2275953158431374 -0.4205206341988564 1.1823513564036734
Ni 4.475531273112593 6.9343665642801104 1.1813237033781718 1.2775803895120126 0.16739321397741494 -0.3367818611183038
Ni 4.24843130663602 7.856461133806722 6.1516812922448745 -2.0224027500842916 3.2163657225849636 1.3849810249858794
Ni 6.609899576199292 2.8912258283212586 2.052694019149613 -0.6071968647755994 1.6207519562067443 2.5052140147922533
Ni 6.1279945614813816 4.752591375305047 4.734212618819342 -0.1340676032420917 0.33606426622598895 1.0120173146303797
Ni 2.6977080604851498 9.069134102794385 10.89562411404326 -0.7880181792334623 -0.9088924237137314 -1.1182964349052933
Ni 6.379039369067648 0.36623072762312925 12.483129941436578 -1.4977041011139238 -0.623481717978552 0.26631023746030263
Ni 0.7636157454143756 2.5993383080395525 10.077057790068313 -0.21565050632190602 -1.1705080839118422 -0.04446054430622021
Ni 5.988215739105879 2.956115512119491 6.946983332245974 0.38755754900927447 0.4030720997051058 -0.6765158628863962
Ni 5.8689279071642995 0.6149506851846313 6.131094670999228 -0.6144969979814384 -0.6170081944390664 -1.3976118263760124
Ni 0.9694457481460111 7.931749507811568 12.571701713725888 0.5091594156841877 2.1248393566846633 -2.8079467567456478
Ni 4.132337358115043 1.3653573086731596 7.766908913583643 -1.4913509052023863 0.1789750052777434 -1.1765283219639933
Ni 0.2294248165013379 0.020059259099453695 10.499875033050591 -0.8746198756841067 1.1185825986871445 0.9971789640659665
Ni 2.499817272035367 0.6387302613963974 3.524952648510206 -0.7670076384200661 -0.7129067428106045 0.6173576073586852
Ni 2.4645452862363273 7.644272146322845 4.422389323884385 -0.26458451301844754 0.5084459345569308 1.0401852924241635
Ni 0.681453094419372 5.917393231162979 3.777923070693661 -0.6103624069877747 -0.5161738993288079 1.8700499753797666
Ni 2.6184923240183418 6.411665259590897 2.616781182406664 0.8146874609945324 0.8067998307163396 -1.7209103082959005
Ni 2.5291192955104305 2.823058700198977 4.506028217506935 -1.1932433207258286 -0.013665156191918403 0.22021909952919494
P 6.109629731812917 8.811413707477266 1.5681689058814292 -1.5087418469853242 -0.10556718180955367 0.1613626915126189
Ni 8.214566027796968 3.0846043279849575 5.915968981986467 -0.2611232939427245 -0.30019634868478623 0.056638060209018584
P 2.2849914738205275 5.552139237655686 9.211568304990505 0.2742816857015534 0.6346613887444553 -0.541975176662628
Ni 2.7356911333737703 3.0365103857793705 13.075319564977 -0.20724634141861079 -1.033940339955716 0.836538495431353
P -0.08592103474110825 3.816597842171918 11.624761702241335 0.7427091708840177 0.7158444852826897 -0.9486789595830499
P 5.982505744037068 6.657167193915246 9.512005034149219 0.6079782230263141 0.13658291346477766 -0.22729066166399564
P 8.436670909156437 9.625751849737846 12.579855400993253 2.3026807625785954 -0.8305635087948404 -0.3215251920695495
Ni 0.3999002009849709 5.895268160839445 7.9817486386157235 1.2295544964520373 0.23262801471650904 1.1263082494661765
