# total energy = -381163.82978709607 ev
CRYSTAL
PRIMVEC
9.30547228582092 0.00000000000000 0.00000000000000

0.00000000000000 9.30547228582092 0.00000000000000

0.00000000000000 0.00000000000000 13.61949930185062

PRIMCOORD
 96 1
Ni 7.4303823285273 2.21806165868094 11.219266318771679 1.8600285865880222 0.24602191952491176 -0.6694440436412794
Ni 4.944304459588271 5.1664633028526845 5.5466904801623045 -1.7602759545777167 0.5360588111781929 0.7402787070656541
Ni 2.3793068809346782 6.697604309320517 2.6014201273853192 0.5703467858267854 1.0331582103740529 -1.7379045288610522
Ni 1.6968528553768 0.8512766938227675 10.325296118502687 0.04872446178889673 0.21244125535598896 -0.6332825061190577
Ni 5.165988723770566 7.246803972997421 3.0500462475420007 1.0363962576953765 -1.0645133276465666 -0.4660965230564424
Ni 0.34501340941646497 2.6415257820131695 4.373875291637956 -0.537118877011591 -0.45052746497359186 -0.1440643094434874
Ni 8.963607760767573 5.923258745803516 5.988766478438539 -0.719629920467051 0.6948588841699581 -1.367539432470664
Ni 2.7640044070884064 8.337758922592513 0.7695765090153245 0.06093900157721764 0.7522117110578143 1.2808757724338327
Ni 0.8496221808658934 4.727021683755815 7.4941155076140875 -1.0846815750643255 0.7067499791805892 0.9830481810915392
Ni 2.3452674636329602 4.4908394938884255 1.2872976213395073 -0.7876484545988693 -0.24301732837063308 0.6247850101710078
Ni 2.7941355260667997 1.098185301493244 7.553510475561985 0.7480663214308729 0.42871396864292616 0.7704084365714989
Ni 1.2267962327472213 7.437584764008856 7.103821670480247 -0.24886401695939722 -0.569629962265419 -0.48546644294262203
Ni 5.674774721689853 3.020379471626307 0.21431060801228916 -0.31112122312740614 -0.2478800557795731 0.8499488552999876
Ni 6.237402181749036 7.186830204678784 5.426608014178154 0.5181443927916174 -1.7131185801656237 1.0881348237202484
Ni 8.172298321432905 8.478941546786519 6.818670363716039 0.20069825588744789 0.8779939343626622 -0.8533149435587434
Ni 1.6317331609324521 4.585252814813312 5.368861045356591 -0.8245088179603284 0.7647316979016958 -1.1486189971482348
Ni 1.6309794176843824 7.750397517430005 10.082188796225253 -0.1693559941307406 1.8373103190549003 -2.6704127922215104
Ni 0.3146803616913662 5.862856925763754 1.8680093360690457 0.9941324639301589 1.59525046950153 -1.163599786827783
Ni 6.202869574420803 7.653285609567585 8.076472429828302 -0.008727609680984967 1.3324562156142858 -2.318939133418987
Ni 1.818196212843833 7.340649660118205 4.5986238478151815 -1.0432549324884226 0.4555930524219573 1.573047965262562
Ni 7.96947624939675 4.319097698994901 1.4406434282440306 -0.9239637162245571 0.3497990993135783 -1.960879079648197
Ni 8.930601250879876 7.14512307828559 10.870770801658574 1.4612849390549414 -0.7851616836212737 -0.30807472299159844
Ni 6.605610411167214 6.738036586022531 9.985040597021259 1.6368218651854132 -1.841659082941899 0.24988988712075025
Ni 4.554330730698055 5.443794290781364 1.2809177896002895 0.06683042736098814 0.7214142660609834 -0.002798131570427439
P 5.240814025717836 1.3008212640854304 1.659454162611462 0.5560792201641778 0.0175475219654601 -1.4559871809911118
Ni 9.109070902172839 1.7331814188393226 9.160543191091024 -0.9514966315375032 -0.5738344872650697 -0.017308409371460512
P 5.42894275715273 2.9312144370213136 4.250481938645617 -0.27160645286223545 0.3584673165115375 2.035622848318991
Ni 8.545959557559339 0.819252841799221 3.0961204320379 0.5165389959777104 0.45544418554891886 -0.6884725210276401
P 6.563354261914315 4.224684378070015 10.775680042357644 0.9247599868736074 -0.4496244935433482 0.7170302780606748
P 0.9170896459458956 0.28210376461923514 1.2951923839526231 -1.2108903443836307 -0.1701674342884424 -1.9361116428955298
P 0.10360247472079846 3.913844384754925 13.404406147361925 0.7253431688017444 -0.4355474466249918 -0.011585133734438114
Ni 1.6799448123923215 2.94223211610421 8.596927489884372 -0.7409587638518143 -0.6791479011926046 2.1674787886217444
Ni 8.144716901836869 2.145702306866243 0.03789281333907248 -0.06485993389817861 0.2108613124633788 0.31321384399037666
Ni 8.502456475031856 6.63265211337574 8.391980978545325 1.3564978299445218 0.5506256532487742 1.1366980773409328
Ni 5.242777480351698 7.08059893406194 11.621573520513643 -0.2516060984809086 0.8255915095015458 4.687548123259275
Ni 4.410644934482683 7.811795022994996 9.832870071255394 -2.4741553457142356 -0.12422490612005703 -2.472393625828123
Ni 2.8584549499020864 3.8484548316168237 7.073177819983722 3.2987860339644093 -1.0160822287283726 -1.0128189845960685
Ni 8.131866044730891 5.404441448854364 12.294962155055847 0.2483459396723981 -1.470901121988467 -1.3739455931073243
Ni 7.048057697784163 1.712969933224415 4.840125045591172 1.0864697773129999 1.82791627943451 1.135163642974277
Ni 1.6840671365762092 0.5445915938442597 3.1722810692456402 0.5538811840715945 -0.3251000539050014 0.9833106907243067
Ni 6.328037480961376 0.9625208223128855 12.961881625325729 -0.12202121360051889 -2.2367142258797994 0.7132384151184104
Ni 3.0060490444407835 6.100341881738919 6.5299643665720435 0.28226418968639777 -0.1377748768903498 0.0669335285977557
Ni 5.107364248920696 0.5717719475885432 8.239810452779459 0.7080846388316128 0.10722374357637017 0.9180707477788898
Ni 8.740155456867583 7.483330465336151 3.908769180217922 0.2020869087048584 -0.26210905489476144 -0.025166471963298593
Ni 1.203765189056201 1.7237735864467483 13.164049522666337 -1.3622270191188153 0.14734657973918494 -0.004127134794496118
Ni 8.881868492976897 0.2861823530837904 11.427168248080934 0.016050625704959454 0.2700203393220382 1.371106066776
Ni 7.456809869570734 8.736805486876163 1.622885517966221 -0.3794716866773465 -0.27816842235046935 0.11044996382315171
Ni 6.056736439017254 4.9453001451134995 3.3765194341503895 0.10923768868260543 -0.07227576674627552 -0.2285376466972193
Ni 0.9598873736807405 5.388166177979376 9.752119975159406 -0.04673545638332596 0.1899764985945696 0.2374102665965008
Ni 6.320686157924645 3.046192851504647 8.233191470404742 2.652200382978542 -0.18184898439142874 0.6560863913874507
Ni 9.26006149406395 7.947347836508974 13.577319501205228 -1.1392414125880765 1.3861449633869936 0.6712543573771408
Ni 2.509350854907208 3.747676567708237 10.72640384487828 2.0949369126982758 1.2924164260835806 -1.4685807013854062
Ni 5.264198677352397 2.387114172109129 11.512357984962774 -1.4972878395121116 1.9142801488427355 -0.7571155761173347
Ni 7.303316105658256 6.595774527053513 0.4004703015300025 -0.06551659364557104 0.9121731513475323 0.8271966492051367
Ni 5.689551811540899 0.21408541558508806 10.65856602200478 3.8875174929459693 -0.7521037247250402 0.34211612884702375
Ni 2.8706637294263766 2.495727643608762 4.579270326736966 0.9972933781566439 1.5353381094166139 -0.36995834787027254
P 1.597274997381806 4.068966606302121 3.342633557139945 -0.2083827690158992 -0.2044816341892801 -1.4580546050431018
Ni 8.091396546140084 4.087019222367002 9.302744764490754 0.7824627966328718 1.093544167661278 0.15860981135783006
P 1.1758766888776198 9.127719068458417 8.19704529419731 -0.07478387788010993 1.8458055010101049 1.5712960155684614
Ni 5.864215524704719 5.191522939482954 12.997564389017684 -0.34683770269240916 -0.8712579011904091 -1.2033685820852886
P 3.099522512673632 6.482052351316963 13.529706191607714 1.3696348815471122 -1.1537239224749678 0.483363023446374
P 7.3054005314306965 6.511634447435652 2.5628080010453114 0.26951408910958097 0.6844883395689115 -0.13075679370130383
P 3.8642183015208995 0.9367446643233395 10.337676118715429 -1.1057625641043407 0.5426138386878913 -1.7959032168630231
Ni 4.497464990093681 3.2973661570836468 2.457965106880467 -0.3653383325997579 0.2269096241754931 -0.25782662546932367
Ni 3.8686942336483265 8.020647041015708 7.445671219349259 -0.3234450348000817 0.3439364698852141 -0.47746259880153896
Ni 6.8288952165676315 4.122324183887701 5.639385080372148 0.4955533948649788 -0.14009478327277808 -2.032451392569545
Ni 5.115162234622948 2.287880616585476 6.617551193092189 -1.5352357795107947 0.8860188615496677 -2.51914296616852
Ni 3.5044501353866644 5.140072983698044 3.727466012640549 0.11968382371659388 -0.2853382006260311 0.2994525285402262
Ni 0.5940362203704161 1.829800136675228 6.609597806004224 0.7320840870700037 -1.5660077705863287 -0.13330192872066074
Ni 2.5609869201360858 0.44980233184255847 5.375711733989048 -0.3108653983628582 -1.7722608948537348 0.30473280310255907
Ni 6.954407425579544 2.5971386796268394 2.471163058099447 -0.6277124682304479 -1.252393862944056 0.3919870455355378
Ni 1.0228109766862679 5.986340541836418 13.23116617144446 0.30065451926812736 -1.021703174459576 -0.6320244653422405
Ni 5.480327574632252 0.21006172940650333 5.7072917637399145 -2.425782610837803 0.12136481096344258 2.944312926213929
Ni 4.686635934414793 5.019678784395247 10.84880244289261 -1.2288415295454127 -0.4467320024869016 -1.6329806370624522
Ni 0.4439463981881103 3.409934454267596 10.902122798589398 -2.0884281650454803 -1.1973236614427896 1.5151747470948613
Ni 7.862602901198217 8.829664793943918 9.55439171860465 -0.48215126252645996 0.4003367030518138 -1.5240447958909817
Ni 4.1283634353444585 9.15623103527429 12.372266434796769 -0.3765653116638289 -0.35242959495788984 0.5381622306744409
Ni 2.643796317229577 6.47471963922463 11.447215957385149 1.192163714508405 -1.206814374542044 0.7941394616398516
Ni 4.0263754600500805 9.195732764756464 2.6588935153242486 -0.3104020855731945 0.38476918763085993 0.6117698288582625
Ni 3.446560792840467 4.302208266954819 12.745454022388305 0.4064898671374032 0.14504544240983408 1.2336232672047722
Ni 1.7298593652644967 8.771338094204395 12.4340175483053 0.24202411121942832 0.03542568779746157 -1.8597370234895323
Ni 3.0795715802802794 2.1855204224031626 1.1211465541427765 -0.3160891086556427 -1.5275502379410788 -1.0487334391044907
Ni 5.196920113358021 5.551914572254481 8.154620715897618 -0.9466354467904599 -0.7664265691056155 -0.11663141004351528
Ni 3.054772496871564 1.972145944894032 11.985745036092156 -0.09179146818169998 0.0670775103747877 1.2381376101353578
Ni 8.246658349770255 3.3223699608807262 6.995750708009781 1.679138623675753 -0.8029064091992043 1.016986742820513
Ni 8.676375750419805 4.940461299570335 3.5546485051608903 -0.5647960312118854 -0.9777229122238837 3.2449273362727404
Ni 4.051295514597375 7.899257156187684 4.907827008570575 -0.6271743363387908 -0.3854299611433104 0.2605913326986544
Ni 0.5909133039006358 2.423461346516049 1.7903784342539597 0.05744590082229461 1.2174857382129614 0.485804285898015
P 7.319479710866863 7.662795802154341 11.94485958289408 -1.237422072125572 1.3057781921024674 1.6956340502276153
Ni 4.331771752129111 2.9821525918353124 8.823364989265606 -3.097195348169679 -0.35433015441471233 1.548501643381765
P 3.009752622375743 5.7676805561185995 9.262648415335102 1.076570773031733 0.20767211610211975 -0.3223034649964708
Ni 5.289267619454865 8.188955116668026 0.6429820735867388 -0.26667224878541174 -0.07828726304767808 0.1652903087017992
P 7.477291213879394 1.0310277086374482 7.910313918253813 -0.9227488699808495 0.26314803768223716 -0.1787528619646083
P 7.304609566293833 5.440472237206538 7.287766661614743 -1.8566311308706995 -0.590206757975506 0.03568511210643532
P 9.25427349035655 0.0661963375777019 4.932260386921892 1.0026870383683892 0.41308526096673376 0.7782664991633371
Ni 6.812070922832938 8.949984549469129 4.254118517180749 1.5900205885611585 -1.696087849935582 -3.4907733923414206
