# total energy = -340895.2144007663 ev
CRYSTAL
PRIMVEC
9.04447565628335 0.00000000000000 0.00000000000000

0.00000000000000 9.04447565628335 0.00000000000000

0.00000000000000 0.00000000000000 13.23750435258387

PRIMCOORD
 96 1
Ni 6.522315080644739 1.9608784986286982 11.563581898139827 -0.6550625781086267 0.42915234173192546 -0.25903195863133455
Ni 4.610077772056932 0.19343962739281167 6.033204308702145 -0.6334000055335285 0.684163609239641 -0.9594382549820832
Ni 2.7845046291388535 1.594667679596411 4.784735641316811 0.42818277872980454 -0.4746516117153052 -0.47522779593374936
Ni 3.2804584513575614 4.183802590238934 4.893799355379116 0.3477746126843817 1.63067692862994 -0.6628244814422326
Ni 5.105389436504552 4.389754345244718 2.7749247205313208 -0.10096619270243258 0.7819552608688339 0.049727449132114354
Ni 7.1776777861789345 5.93445129687982 2.6245340838855578 -0.33382843491693476 0.45426173520504354 0.06679726013020754
Ni 4.803005482128004 4.669879845048818 11.205626876480045 0.6380832699418109 -0.20616904919403203 0.020892012957660792
Ni 5.759033691665417 7.872447272116282 12.37436577767582 -0.42921764775222204 0.6725681910925578 0.7353249626048046
Ni 1.9150049181364344 6.412524190740247 0.25824148652352374 0.625863073726535 0.7516427259282217 0.15367535017069017
Ni 2.7460294297275585 1.8583322337191386 0.38830918638574696 -0.13997137032103635 -1.5739740766212569 -0.18482915006567524
Ni 0.5450834139446493 9.257744384911545 4.844635394645707 -0.7008564965142897 -0.9295211557076767 -0.10552424438676021
Ni 8.640504144238333 2.5193477365340238 1.3167372740323493 0.1852544105285519 -0.19940216278384368 1.1124186359682775
Ni 6.785355565947679 0.7017192610261204 4.850380445578019 -0.0077585608994963145 -0.4547430457168362 -0.49333941793279557
Ni 0.5859535905078279 7.2573053497936595 2.296058626156469 0.9170258514541432 1.1566457241074533 -0.10193652703550185
Ni 7.6164162554414 3.7546693541158187 3.789897586769085 0.7215680180300283 0.2392725166162202 0.2557376041507789
Ni 7.6253431529070665 3.957184208374943 12.649004898551171 -1.0829903034048316 -0.22257705823841026 -0.9669487044265154
Ni 8.027623340827986 8.599415091364445 6.813647590225646 -0.7508680525457262 1.1196280092325233 0.5184290139115716
Ni 6.898013554632939 0.689404302982298 0.5200627765089635 -0.0273051155728562 0.14822358302749955 -0.3557509460216389
Ni 2.041102997636265 6.52049714103927 9.242214115774466 -0.030308935396186513 0.7156999892850255 0.3673702754281221
Ni -0.1417613024289519 5.051384872403743 1.093227478448956 0.34733983913980826 -0.30362182942656746 1.2765982281044015
Ni 6.303791504486698 1.893840845117527 6.9988802604144595 0.6420265708602749 -0.004363162064702163 0.3813596477286787
Ni 3.304932802464041 4.257741178670373 0.06486969269808035 -0.24039788846991506 0.5783226049434105 0.27851397861534616
Ni 5.978615471474403 5.403178797251355 5.104553726954575 -0.48693788528182586 1.458566511682514 -1.3018518604648677
Ni 5.340518669954352 2.9206330321335425 9.312505067176621 -0.5764467280769363 -0.6806517394316406 -0.24607334158813748
P 0.0788904388493239 5.836897582528567 12.339379032522382 0.5167783656820262 0.5263282141539902 0.14312122880392772
P 4.040076827698996 6.207169371127303 12.515663098503971 -0.6398619591087883 0.4235599352458124 0.3299589246591995
P 2.349908529723679 8.450108887349009 1.4102842856710487 0.13094294157018094 -0.17473448483383455 -0.9134018815483107
P 6.177593935754727 7.65655563837213 5.790428875538593 1.8366829698835465 -0.6369843804506773 0.1795103089559231
P 4.705569345960189 1.1360313639059132 12.632947336483749 1.3678191684946122 -0.4448041893365694 0.7792805422501482
P 4.051065865612659 6.05682305241222 7.955978431421161 0.2541049536433624 0.36730214119434806 1.7449274971461046
P 4.759465376353209 0.9954621233675135 3.81901989391164 -0.24884627634758433 0.11172651654273016 -0.34621215329326827
P 0.20617696244944717 5.462718580449418 3.3000035632352787 -0.42157761470846106 -0.5400836160668698 2.128270493853399
Ni 1.3569788595379149 1.0037559075377434 2.6545698830686724 0.07820344508462015 0.37887621918519265 -0.42824474231599147
Ni 1.8819473596389533 6.354178278327866 4.649130913462205 -0.007332271995355114 0.34768719517689795 0.14921602884775592
Ni 5.98269452999215 5.624090114980761 8.990622127748166 0.3342382687608437 1.096087245798106 1.6000733448114701
Ni 8.698017964890996 2.246186482979735 10.162034575945816 -0.09511590456924264 0.2425398745135823 0.28093544357264516
Ni 2.2049165405928663 5.286306082913613 7.193802277366159 0.04860979058790338 -1.4997244739780624 -1.5700860544207604
Ni 0.9160878050709625 0.044800001232714944 9.05843760616516 -0.4033094125268925 -0.2530353747282674 -0.17130848987142108
Ni 1.461261663772103 1.1629477234376517 11.546598181765937 0.21396206287588962 0.15932354959540304 -0.17508775440819524
Ni 4.223417393582016 6.761867062686951 1.574561810228449 -0.9694825265919628 0.7762978054727404 0.032951001004723895
Ni 5.652779191739724 8.03406300749015 7.937604579140003 0.14730955585366243 -0.3967356159641167 0.601763352464854
Ni 5.230474534731683 2.9728196566288823 4.818252659177266 0.6979969155783076 -1.0368981370324593 0.42556925236635734
Ni 0.8404922687006078 7.243168834354107 6.91332675635444 0.21357048386442573 0.3151012908210767 -0.1129994697178828
Ni 5.2356117969003755 4.321604221228707 7.26913733283782 0.08244525108010962 -0.08611370107063235 -0.7409567069692853
Ni 8.485563231893504 7.323908868473674 9.236032216668304 -0.9860329747514761 -0.6547077658723692 0.24107923080765578
Ni 4.7927219133149705 0.45381018348413493 10.472560367301687 -0.4341569940353685 -0.680044444864945 -0.46914405163351464
Ni 8.23571863656261 7.150390603145582 4.714272844877323 -0.4256836664570346 -0.20114125696213744 -0.06678311906282046
Ni 7.562692070085712 5.972193893763538 6.9760194437637795 -0.4819684570916925 0.3245467525046926 0.5388068062369753
Ni 2.212414410905975 5.430827759310672 2.36754073500161 0.7460955708577474 -1.4661612933106363 0.5968492029926882
Ni 2.2662471299694515 5.321597626896423 11.302895689848352 0.5702909928881855 0.35039482391604815 0.5582255770832193
Ni 1.1143788892019544 3.2128148179779 3.6898087058933875 -0.570281994027121 0.7399215808365515 -0.058007429752719455
Ni 3.4852977358585058 2.6909666619758035 2.744690847331491 -0.10769528389615002 -0.38349340624222983 -0.32875333438687254
Ni 1.162884412108108 3.1969598521650178 8.21916634167718 -1.0137162995993574 0.5433666576935158 -0.5387785241022012
Ni 3.6871794768221924 2.699061467681753 6.888108949349603 -0.5849228838687475 -0.3256628683870069 0.4337877836214078
Ni 4.038186532288333 6.8615643177670425 5.951912561567984 -0.1479299630464807 -0.27540191534892566 -0.9085977752914481
Ni 0.9851514211275332 7.786515708974129 11.769359094765585 0.486268370018627 -0.5537857961443108 -1.3491629868460056
P 0.2827194554202633 5.480545241953806 8.269402977222573 -0.26742249668787493 -0.2032279642878371 -0.21088625216404325
P 8.538862326893682 1.4513217850337357 8.069675630358503 -0.06222661004038962 0.05163366501589173 -0.5604719499152347
P 1.6591005241206394 3.206474640547877 10.613910146088607 0.6515116275325747 -0.18367009676056753 -0.15144620372985532
P 4.015891899813288 6.0844087031419924 3.715754593187977 -0.7848919748996547 -0.6821766607165993 0.3570156716666755
P 6.815763093079972 3.943879784695109 10.480807120198543 0.5921793083208448 0.665766337679376 0.21468762818800444
P 6.431210077431298 7.70874226286747 10.135573153539227 0.359582146842271 0.9069622965705542 -0.4584562329023653
P 2.318153375719669 8.341520912705848 5.59628739683541 0.5331781471962883 0.40631143257800995 1.0901467119439547
P 6.824662857118692 3.934166017847969 1.4841098181568735 0.37442718227490357 0.05182521220140752 0.4478540319064868
Ni 5.014293477766761 2.8870870719510098 0.7030795501637458 1.0434462225636223 -0.41148320658693655 -0.21289351240205914
Ni 1.7076964917832842 1.1248885699062152 6.838812034824153 -0.7384120861705605 -0.4787496930440787 1.1128204993923867
Ni 6.818015167516599 0.786387310920093 9.349543099407274 0.7745972778418659 -0.3479679596421104 -0.9285474789404976
Ni 2.65398380104661 1.6716542563215981 9.319176272415401 1.1238266206949032 -1.0644873595046378 -0.7757481036168574
Ni 6.33552856953941 2.103989236824497 2.709902176194771 0.14392701253467471 -1.0682041462345924 -0.6761980745356613
Ni 4.313527504474056 7.119983076013289 10.446376610297529 -0.22118943386226422 -1.3573162120807591 -0.7583625611505584
Ni 8.07836284921947 7.34153655151378 0.38277939397388383 -0.28652990694128716 0.06730968099025182 -0.43866696609058
Ni 7.6778553785257735 3.7627008484922246 8.411414811627006 0.15298732296473005 0.03852823798218526 -0.6004034960028498
Ni 3.3468720360489437 8.445695183232246 12.527577386276537 -0.7585281401941453 -0.12051351870674085 0.49300414608056387
Ni 9.148939342852804 4.830600177333425 10.480423634431022 -1.2829133716891519 -0.4495694719356967 -1.3811732212040149
Ni 8.6170699078315 2.221621687116764 5.9272383275496585 0.242535246527892 0.6752421383802951 0.04363419175018292
Ni 3.8384664210047825 2.4327559266694867 11.267128406446398 -0.9795525092334549 1.7809306547135908 0.23338880414193353
Ni 0.8879748614108474 3.5769092297082965 12.664293680188418 1.3485055557676646 -0.48904053344712556 -0.5526128588821322
Ni 3.1513304725152804 8.339983351845499 7.9225672339258 -0.19944612864790165 -0.16387491641151133 0.1593412902072159
Ni 5.510509589779293 7.7125590315913914 3.6186042624506736 0.1268839410094589 0.3365838861748849 0.6733768030367822
Ni 3.0452749510538673 8.460663790431516 3.4538500940265653 0.713851366112061 -0.5641488845461897 0.5462252101882336
Ni 3.138595850801339 4.125655656290834 9.394855017961728 1.1114737555565053 0.8585761919576826 -1.2316700001331433
Ni 7.098737602713539 6.152766850097932 11.476982852694771 0.5563155045447 -1.0215123986050083 -0.7860631123896205
Ni 0.5605983074731251 0.26256565033136114 0.47422537391929614 -0.27531501206207426 -0.45799523410554677 -0.1432284438057533
Ni 4.648634371749068 0.34292400757853486 1.4841098181568735 -0.8843936672414189 -0.1149509370172988 0.6767290073384669
Ni 5.876666141957685 5.567254630001782 0.3741392063862932 0.2941041197441193 0.026445338675722196 -0.23788360668849354
Ni 8.003167078672805 8.900786064468294 11.486129530918712 -0.41957266846329033 -0.40426946244731665 -0.5359001741131415
Ni 0.09611926051330523 4.885283077107918 5.5689522780811185 0.35324514888064973 -0.8254608974609525 -0.18076346463673384
Ni 7.850785752936674 8.635086503324517 2.5924325264641865 -0.4046841813872321 1.0918554671049452 0.6897395606655218
P 8.43768177780714 1.5488393214823928 3.542872154498017 -0.45620343231244664 0.6898004958104442 -0.2273999335483503
P 1.7832178634533162 3.3891187818059167 1.5025759240896526 -0.3906688409447465 0.31627062853882953 0.18583625117395092
P 4.564213236040317 1.0943544201148345 8.078597101138781 0.27667409719312996 -0.022873562164063832 1.0484621877209748
P 8.51399906333429 1.7445436855777405 12.441175510400631 -0.25470453490057426 -0.053211293915656745 0.5338116670152291
P 6.198224384710338 7.718157562018188 1.4905169247066998 0.7498326693026763 -0.11072918562646736 -0.7195252765683866
P 1.7206572253884524 3.243982081064718 5.92343874332947 -0.9023849616125169 -0.39863360431777795 0.9094503530997304
P 7.001229110740533 3.8054269514585997 6.042390782618942 0.5061638233909734 -0.02280439948902524 0.1058803421745983
P 2.7128633375222884 8.581389451395777 10.248767479630478 -1.3044144789857213 0.188177754822934 0.556027798100952
