# total energy = -340856.8780520026 ev
CRYSTAL
PRIMVEC
9.37505380671683 0.00000000000000 0.00000000000000
0.00000000000000 9.37505380671683 0.00000000000000
0.00000000000000 0.00000000000000 13.72133889109000
PRIMCOORD
 96 1
Ni 0.35788330030715965 0.2057627413111413 11.25726074264964 0.07629414387704925 -0.8120353680836659 0.3625263170722595
Ni 8.430788924842098 3.0802770218531115 0.7734156808848905 -0.30547199526142876 1.1229714717834596 0.3741998967554459
Ni 7.996939564326709 8.102399543505083 10.068348306391115 2.0029914354372154 1.5014483986477045 -0.7156552520900191
Ni 7.315982538135832 2.5014518307737292 2.981894270720053 0.6653073957650865 -1.0103332420597373 -1.032366567710693
Ni 6.443886916915291 7.4905272880996465 0.1647112561279017 -1.502499208509722 -0.39038190583194704 -0.06739298473267748
Ni 2.853119470471478 8.440370229733226 2.8908249989857904 -1.2299902984378752 1.2508177767061879 1.1143333364924872
Ni 4.391612659472013 8.346160315006275 13.050653204463645 0.1332546204224931 0.013447126643841355 -1.7573996614711862
Ni 3.9948697615388995 3.4024976178492627 12.78576293691194 1.3846874050048603 -0.5569199708979183 -2.51133683986054
Ni 4.011472981658456 1.9654331349320082 8.529554178166503 -1.358134079996364 -0.8596259733784356 1.6024421021539628
Ni 4.198008425316746 5.6782919058348815 9.490267494576267 0.6566972854985722 1.5236385615914985 0.889638974800758
Ni 5.042888265618554 6.0602597191217935 3.196742376581089 0.360423926017276 -1.9040687555273728 0.10692523849934489
Ni 9.195849557861065 1.019030838009824 8.556777459128202 -2.1988735008829425 -0.3928920738483105 -0.6744823773961351
Ni 2.873275835946943 5.38993400383751 5.931419293497252 1.0793555348657216 -0.07796561804220122 -0.9328317081381483
Ni 4.700698805221129 7.687253415140184 10.63826344642497 0.04555866246640541 0.9336043246381147 -0.4396059329650816
Ni 2.354122861728646 3.5895018141930284 0.25879554513514563 -3.019190135138794 1.387787641196739 2.820537448926465
Ni 0.9803774915654793 0.5255730109985753 4.025950877102066 0.29449132788020893 -1.2142993700651796 -0.17254853292610928
Ni 0.725253217462981 4.719683288982904 1.9549480748632828 -0.17015586432421662 0.3947460963379137 -1.1872439086092843
Ni 7.5998122891915045 6.914205236360707 6.462791712720536 0.7655099708286172 0.34992919713353926 1.5593576122596629
Ni 2.995732787500674 3.645292758818373 2.637406047153054 -2.4997797311505594 -0.729713272844982 -4.029204560406533
Ni 3.029651731821711 8.03197414003918 7.349203978460881 0.7765502878031788 -0.9282926826172142 0.5893312973490882
Ni 2.1617561346630354 3.2739937566528923 10.94645896207168 -0.06376618661336761 -1.0201268311113916 3.5367650285801866
Ni 2.8995916117095613 3.97051337200157 9.177530702912666 1.6361132691541629 -0.14649297348963805 -2.3744114554546787
Ni 4.905206226840566 2.027495990489021 6.3983700936502075 0.37404923011019453 1.0438002634689314 -0.4908205081656837
Ni 6.9229052862031395 4.868615392212315 7.241368360672515 -0.43182860301250797 -1.393708120446232 -0.17273982300130894
P 0.40197511540839614 2.4695110227853996 3.431857473551362 -1.594094758630532 0.8739758143422046 -0.6691787057950347
P 5.898765043921628 7.822385439309183 2.2711967616464706 1.68359048879952 -0.8829196537990536 1.1728256763014255
P 8.972123276137115 3.0164235310375807 7.466453087678975 -1.0717427555154704 1.0613233599543592 0.7990960343141786
P 7.616874886942829 0.0684519546600494 5.030146630121949 1.0413890829242776 1.064690219544063 -0.7106236032033826
P 5.625041600764816 0.09540523407491512 11.650294869335267 0.2602223793950099 0.023617125198307713 -0.39347674270718686
P 5.209182968317994 4.4568630332902615 11.593406105920538 2.1979245067061113 0.4614446261067279 -1.5858075789210753
P 2.132168465155795 1.6245843072150437 13.410632766780253 -0.31282072231701613 -1.3655290869088546 -0.16380935328089852
P 2.601727405250739 5.777236222685139 11.166768974223883 0.3745891617740645 -0.9112264711635468 -0.7150536139502782
Ni 5.799848852232498 4.691239376028224 0.11921037045412453 2.1635879382077707 -0.6024503512295496 0.3598842514637221
Ni 0.3831012572803935 7.620465532513574 3.024032324628226 0.27687952833571666 -0.7907564041002317 0.13488907070212255
Ni 7.4457801567441155 1.7067004026567163 6.631495804223321 -0.5180667454761465 0.4888695550869 -0.03153663715570052
Ni 4.7760179867234 7.9934239191856395 4.163561665471863 -0.9233070564771647 2.196599360136785 0.5507120423149935
Ni 3.7828247967370094 1.1255220730962447 11.990762132366255 -1.086507829639787 0.05349437237371433 -0.3725219948323907
Ni 7.9890645192107135 9.19769644344184 2.5258785332138793 -1.1669571333357902 1.5095226910154067 1.480800897600682
Ni 0.9235693536126519 4.491813233519347 4.189289625366894 -0.7558752759523305 0.6858278843159414 1.263260887565547
Ni 5.053969579103206 7.043505977122386 6.189750773473777 0.10394712970762744 -1.3652532075396486 1.5901925953626483
Ni 0.6108700621638876 4.359296849335303 9.362796764298686 -2.2453755010992236 0.5781655105402559 0.6981228996332106
Ni 2.1241340441267376 7.4537489523972065 12.291863544870974 2.416900734967141 1.2868882971764997 -0.10788374575787227
Ni 2.5742116226133023 8.893044698097327 0.6599334682472817 -0.9457985527114615 0.30591448211548605 -1.5468905901409036
Ni 2.2985944186071676 2.6056180525401893 4.550078254818634 -0.6137536920575107 -2.35323636403896 1.404841254244916
Ni 0.6042522117503385 1.845282446590819 6.04320649642418 0.14702622028528872 -0.8584766902653408 -0.07462858324916824
Ni 6.703669655206049 9.35637860252915 8.181156557202636 3.3143422365314534 1.7759110900118125 1.9048912514286676
Ni 8.205337633235596 3.4735323998062846 4.899314005584133 -0.5481753919360688 0.6192993044660883 0.7250994282220544
Ni 3.9398756964788637 7.105850084290684 1.3459427108822184 -0.18670219871867202 -1.1565559926071243 -0.7637701053193748
Ni 7.086434348058272 7.4532614496043115 4.372317861432453 -1.0915191668114492 1.3040745791477992 -1.9343368103832945
Ni 6.546450004497424 4.447075477217525 9.971118686864326 0.6710566395440378 0.8152209649004992 -0.7961724329094805
Ni 1.4417988850405614 1.1507034673600116 1.7768033042750118 -0.11794575797956462 1.1604435005869884 0.5306849484607893
Ni 6.611503502187773 6.695035230739583 8.90851072420192 -1.0328843878873761 -0.05332827910949525 -0.9244213725872661
Ni 1.5974716518871162 3.793127980763771 7.279102014347957 0.11296116028077965 1.0384585395410437 -0.6570518406245136
Ni 0.22640285955801728 2.307481969523791 12.423094609191443 0.4775371607932163 1.1714408801387568 -0.9005751620972876
Ni 4.379743841475762 2.1482279321602005 0.8306803839533715 0.4599101917400724 -0.4647886028782963 1.5388942021989884
Ni 3.9123130385728793 3.995319764116956 4.431786639628042 3.6171320569750285 1.8841702168312324 4.425637300418249
P 6.000034374091847 2.429742044949622 8.707068007640125 2.6965534551726202 0.5626190781652246 -1.671935935279727
P 2.3947730946131176 0.5884833714109283 10.069733939329382 1.381302033472395 -0.6822069997339025 2.862622808132289
P 7.84562619745508 5.8492928854964985 13.683824644391734 0.0071116713441167845 0.9864582352143526 1.4291986000433579
P 8.469264145265962 5.944768432474236 10.37917727462483 0.12391380263754144 -0.7747299467649883 -0.2774384861629803
P 4.0748670948422205 4.936875158271319 1.357613715245198 -0.27269248683756264 0.2655489338142459 -0.32361832715315236
P 0.680859525632298 2.0015645919284926 10.169021383145408 -1.1723898743155874 1.652653175790715 0.6936522654563667
P 5.953421607048122 3.6586428353007276 5.439755851766004 0.4795675609596837 0.42711628513850314 -0.35024647126364195
P 8.319207035591408 5.839908456733271 4.27709262838876 2.368997483527959 -2.0211642496915 0.8376291573923702
Ni 1.445389530611307 7.849535594851949 9.927690625565724 0.37179668663059195 -0.4502513284940698 -0.8997436673349277
Ni 6.820642200339712 6.829379750396983 11.53644890461373 -0.9986218671600802 -1.1730496193867732 1.0527212201076452
Ni 8.216212695538637 4.393122043119246 12.34672167165222 -1.418147227325203 -0.5916198362729489 -1.9085134215622872
Ni 3.2680312224936388 0.3798162384605782 5.635024157954711 0.16947709308963715 1.4158026383524263 -0.7202603549621983
Ni 4.50031640723388 4.738189645005493 7.406463056497137 0.7948094911236828 -0.9834341036760482 -0.5118662730923895
Ni 7.429945691028738 6.0523190486298315 2.3152838892208525 0.07735420971044743 -0.45721747539925767 -1.133861379223086
Ni 4.349087415845637 5.998281239048167 12.622397000991356 -1.5549080611287414 1.3014901062500746 0.2783034052664369
Ni 1.0294465226810992 4.766455431939692 12.464711410113365 0.9771580408593495 1.3741867625838526 -0.016916059029048285
Ni 6.869233103716146 2.358782263422276 12.574866416189467 -0.7445562513950854 -0.562799826717463 1.590469760283435
Ni 0.10269621334480768 8.429345166570831 5.644135772654993 -0.44152037637897507 0.7359847076759906 0.25698561762526706
Ni 9.294615748690841 5.044847651843844 6.518472969217479 -3.248334047961444 -0.8866233279028859 -0.5684955915506597
Ni 7.732131797247649 2.3219195522364497 10.493380428892701 1.3792965730065923 -0.521642892863179 -1.265978543607026
Ni 5.314652322550077 2.488542381815722 10.625695249421991 -1.2305988785561517 -0.7580540287712042 1.9359920865985303
Ni 5.82338023704339 9.269687480877232 6.16138842348637 -1.0894602273998915 -1.615894885224759 -0.08297541255196678
Ni 8.942976234154221 0.9041104921331752 0.2697062326422833 -0.8526636831279896 -1.4138637694585003 1.115866742417878
Ni 5.654910521883342 1.0423278464779775 4.271233219820312 -0.2701545509070573 1.0661889155767768 -1.7050959669714636
Ni 4.889137384782451 9.32328466293455 1.3215460086139383 0.49728631839568543 1.5295988929399915 0.8974695265887705
Ni 8.498392437141435 7.9401548640081545 0.8206115762693486 2.6247471718635955 -1.1671417385427705 -1.006229504304009
Ni 9.350669194820053 7.250310286900654 12.09964119363249 -2.52970454373445 -0.7173115567465195 0.2467120036134009
Ni 7.5829278174606625 9.164818130082558 12.341466016542665 0.14371669629608153 -0.00205971074250613 -0.12277994614341435
Ni 1.2593978400681693 6.656456884724914 6.493691889747108 -0.44969802709376105 2.982548058435728 -0.2550354358774317
Ni 2.580464783437551 5.914833885979743 3.451438210729062 0.4440871086648868 1.346010814370269 0.011524969920464022
Ni 5.4043997117112985 3.772652863462182 2.7600608123400554 1.3125677042204749 -0.637833872935166 -0.9305056311081329
Ni 2.0228647139565186 0.5841699091991789 8.132692217051279 -0.30297828230529755 -0.37374558282684667 -2.82813737276091
P 1.9624143676375434 5.785101892747425 8.249296322574157 0.7469494342176104 0.5777068257362825 1.0873683778678693
P 5.021635018859076 8.396879355574768 8.22620369027687 -2.8629321118425923 -3.059631273872976 0.27373584050041244
P 6.7098478156006225 1.478511595367036 0.948956999058028 0.3166282689885644 0.4589061759555903 0.5966597126897015
P 2.734150038897688 2.2466472460027256 6.814442477321607 1.2605905398222352 -2.0995103910015716 -1.0922958970764738
P 1.3091606251582932 7.089434365245317 0.4710064483876938 -0.9432886418054142 -0.6262495105316763 1.2931980414446116
P 2.5307113734011364 7.903985906796833 5.053198949688283 -0.9191215576409073 -1.7248266126311715 -0.6914575717978931
P 8.707137383037574 8.309297603820447 7.880919524649934 0.16333755585080256 -0.3291050612993364 0.0647041250466047
P 3.7501339844519186 1.5802403031690213 3.192571415185724 0.3854561863955555 -0.6930179743064775 -0.7915385336818949
