# total energy = -340866.73904308607 ev
CRYSTAL
PRIMVEC
9.29440647674104 0.00000000000000 0.00000000000000
0.00000000000000 9.29440647674104 0.00000000000000
0.00000000000000 0.00000000000000 13.60330337171496
PRIMCOORD
 96 1
Ni 5.020178528293659 1.888920836804128 7.8329996267179745 0.791506909113011 1.6128969789386995 1.5693867143608906
Ni 2.9061657530855274 3.024214010979212 8.426879676360032 -0.42753588917442503 0.30771733965217973 0.2070905325670369
Ni 6.138630237757038 0.25868099432101643 12.3349722342527 0.7149101463938785 0.0024998836037182755 0.8045848253428918
Ni 3.8461183842993045 5.411473045050143 5.270001023709197 2.255421829591632 -0.50067837479637 0.9686949976936607
Ni 0.13360988282017786 6.373267531712322 7.0122170882713375 1.065125507309269 1.5594866816383595 0.12730277371443235
Ni 2.9875382826390435 0.8626352512484047 4.655608218758788 -0.8061310867840891 -1.2472722254467745 0.24210381541742823
Ni 0.47446179621939855 3.3833684698035364 8.278888558248234 -0.6578370555299703 -1.4976395664245756 -1.7352758329889535
Ni 3.498321690308149 1.5298500276389677 0.3174030550542104 -0.17872946492584058 -0.7633700416674789 -0.6137464929686591
Ni 0.32937332128059227 2.1883122613589943 3.1043959270506254 0.028547472620389543 0.5219480828084238 0.4458683689350256
Ni 2.460201536862021 5.508878425943444 9.163062667290735 0.6046496728737135 -0.30285821178766553 -0.6186223330037217
Ni 8.95284642660808 1.0934125781535942 10.074593003201866 0.007867061452902582 0.33075699508046263 -0.5381349769809313
Ni 1.077751503076761 1.5941022602835657 5.987412101682819 -0.13468081134605836 0.6708039001032835 -0.05145291646365332
Ni 2.305022124706053 1.1614755174934452 2.5062181438088467 0.5708430087369137 -1.2745832545569016 -0.6501967653758931
Ni 8.665928095675238 9.15636604735432 3.039222618714565 2.0951513427019273 1.2344820156606418 2.485027255431733
Ni 5.100714561255534 8.580168606218892 0.6472968631029349 -0.3913902924918034 1.553879105643595 0.012349008483656151
Ni 0.004989237448809518 6.554499165494619 2.8687464722194562 -1.5381303274497704 -2.385030111510789 1.1760310706126005
Ni 6.283827457252758 0.6872934829119177 10.12349645283051 0.5309747117870662 2.526655472495481 -1.572164534216344
Ni 2.6700413540784376 3.335790402552315 4.20223728993663 -0.13354464085908616 -0.23614425539988362 -1.4267827915130136
Ni 3.8701537196991205 0.29749536561381346 11.578071081628368 -1.2711500605056365 0.9860088063817598 0.6004461763153272
Ni 3.9575490247124514 5.144286739273453 11.85255814376877 -0.3520174471211357 0.046035859213140067 -0.5392531497457745
Ni 5.169976479043404 7.449550518550425 2.5104759114602992 -1.9676403096314303 0.9116820706437266 1.9052648327180024
Ni 9.286218201596714 5.3340041662576185 9.004107867184493 -0.46126799131954754 1.7057603400283399 2.344803145669942
Ni 5.235845938431841 7.146274032047715 12.469916793856873 -1.069256755868823 -0.17916372424978175 -1.0979669793193219
Ni 7.368391760348105 7.842360023578436 13.203788265872674 1.5641817731211836 -1.807763458635719 0.9829630775769005
P 5.176928695160597 5.284622984131081 9.726838134040294 -2.2607131598975583 -0.39231229008544044 1.481221015857236
P 8.355987519659122 0.21161504887201024 11.876840710383448 -0.01480338356141967 -0.13723571655742817 1.5481715137358563
P 1.4859804286106872 7.987380649349253 3.0859093523753605 0.4653565595666243 1.589525651202611 1.9954303352605056
P 7.180421681799813 1.7293730535584795 8.268577343595272 0.6468795280772021 -0.9464007050718346 0.851082711794115
P 5.324375161047174 2.170559944803059 12.372436128270326 -2.696476579188098 1.5531049464817317 0.4834033897660061
P 3.4222376780951187 5.62084814193787 0.4882203062705773 -0.012616660322746012 -0.38498901695114984 -1.1858490851442869
P 5.142176908981203 8.227771180973713 10.46415039536971 -0.23032327784273235 -1.1770937075491599 0.5556526741497204
P 7.762660487208202 2.7973840185459102 2.3099909144604003 -0.4715153800791686 0.11123080785323425 -2.0844316422915776
Ni 0.5509547623216756 7.826141284107176 12.528669526131763 0.8940378751994021 0.6516383829184262 -1.075167207815987
Ni 6.567093086402101 3.7565295993345598 9.111139464966266 0.8551393983619918 -1.359671342576497 -0.431816775937966
Ni 4.396375136687289 8.938430802012133 6.442320325352282 1.1294982171583838 2.4866156829647754 0.8776902870793143
Ni 2.726123803344676 7.531964021640205 1.4799846069299365 1.3753558431912893 -0.1856966402722931 -1.2858310595565792
Ni 1.6162136535226077 4.182994150566258 5.972081907480012 -1.2293593497220956 0.9241030700158988 1.1945928927751879
Ni 4.12948625192096 5.267920935517983 2.4858949943946014 1.2109983307164045 0.3822302232590901 1.3658885271308026
Ni 6.410380097161458 6.090531683737685 1.3181559763110802 0.8264476868542541 0.9977628615938946 -1.931091306862803
Ni 8.008246592107408 0.7574727586286205 0.5576727593932098 1.3836489364380171 0.9278077725609956 -0.5975050914091322
Ni 1.4287826505555945 5.1554493215685735 12.969443745724465 0.737661066937149 0.5612625641373301 -0.22034431225314954
Ni 1.399570330694178 1.225699866918322 8.416241298595676 1.3186833301999097 0.05550934592121408 -0.026254048600522526
Ni 7.228780479203233 7.780821757653384 10.785216376054649 0.6579005617780541 1.3771093355472863 0.7136752455455129
Ni 8.71552304915297 5.87434378683137 11.676776750001341 -0.045633481568398825 -0.6266806845318239 -1.1382769917922784
Ni 6.944771297527986 7.016003629509498 3.756906022800798 1.2934109287863658 0.022531605443612806 0.8117934272761891
Ni 1.269839003737242 3.782581820960888 10.572664451000003 1.1882376399811214 1.1429882812250187 -0.2537069468739953
Ni 0.2305152246398086 2.689048415521835 12.733739453894511 -0.6062021049624979 -0.022042067401703974 -0.3378936061252439
Ni 0.6943191248410442 8.569749576449675 5.270572629713485 1.5500880140322788 -1.6832189643927142 -0.6675969631302116
Ni 8.496732718405996 5.652049464806078 5.07675265166765 -0.2858513928170238 -0.4968399748868863 -1.38599378252111
Ni 4.431442932690191 2.340368752906169 5.325842747845175 1.8922131417403671 0.5698970998838766 1.0358162168221903
Ni 3.5221246655436205 7.831364740601645 4.563459754223622 -0.21844426701695926 -0.602349306875311 -0.7919617372622425
Ni 2.5971081456939213 3.1398364287571376 12.21899012294037 0.9361576871875877 -1.243902537643593 1.7366814550872283
Ni 4.44257763176559 6.9461003976680376 7.932289913264439 -2.004480875498548 0.2902698335996936 0.37630665868580354
Ni 2.411563907261387 3.867077271123197 1.8384457030238566 1.30856269682614 -0.6967458167800259 -0.7233778175452574
Ni 2.375715381106286 8.393146557141126 7.1768712184886265 -1.6163183459154227 -0.7469442920112878 0.13987803927628167
Ni 6.194127139409129 4.271421134709279 5.971184067804985 -0.4147595633453631 -0.5577098137890654 -0.005681109545177313
P 3.242530326990923 1.4327234789428809 6.931195887286312 -3.1158314752136276 -0.2343542533789964 -0.08726375551467552
P 8.172692527617443 4.469131751346903 6.957110551695348 0.5170393326528967 0.1541540895793216 0.8257712296125199
P 0.5622325952583103 4.31161014873434 3.656690013359584 0.48062145614549484 1.0494980851846571 1.954432552691905
P 8.441133578281594 0.5751295138200988 5.019102236012414 -1.7096892427691008 2.3384188394101537 1.6558845382438192
P 2.523923988331913 8.811980400575745 13.231960541638484 0.3351450968458292 0.1687507564465739 0.5484173327435459
P 8.139409257676707 7.664929802084819 8.555035601402713 1.5818848468279014 -0.5900283234161129 -0.014151866020349822
P 5.46691418026279 7.379842469247013 5.7564962881196795 0.8281307309836319 -2.8668728416578952 -1.0070183187538915
P 1.3363404827726968 6.552826172311337 10.81546966945233 -0.9150054785900049 -1.3637737947806448 0.04395455120407914
Ni 1.117206258982492 8.445065112262307 9.221026304447507 -2.0093451455693847 -1.335093910347449 -0.03666058864582719
Ni 6.592327400249936 6.18920110392502 7.40933826850893 0.5788519950843193 -0.6684132883839198 -1.7399066468927453
Ni 6.563328851739717 1.3618908064440407 6.254948806587341 1.8071124553152815 -0.09882266399686851 -0.8398845290854502
Ni 2.9511506809026624 7.676575693521776 10.199566523433681 2.1779737746157974 -0.4068889023480347 1.0622633552701255
Ni 6.498453893854676 5.166667670303135 12.016532852865511 -0.28725161559866014 -0.34152888888498595 -0.2328722695168312
Ni 0.16265025615997913 7.97414541438818 1.1729884989163968 1.5369049396831014 0.1819060628816093 -1.874538093058107
Ni 0.3160321300845767 4.382935424781591 1.5094357930402993 -0.8703148205508495 -0.8507117016079413 0.40785872246047183
Ni 6.154625911470529 8.416401162388745 8.283377756623372 1.1376699543358988 0.7962950745302738 -0.2605231984648803
Ni 6.8021858062795015 4.704810018838451 3.0138665481406135 1.3476897447345886 -0.6680245375859334 0.6308091048779007
Ni 7.258838590062863 2.661406850371389 11.690828963300252 -0.0038952212893481296 -0.45957440566720853 0.5134726983475608
Ni 8.30166171323533 3.169559940980112 5.234319796872425 0.7825496999197232 -0.8689395374698776 -0.8145342232461198
Ni 5.149881972030874 4.135639149072808 0.43477560958998024 -1.0995803465530287 -0.5523482923668358 -0.6095620225736663
Ni 6.0145034379640965 9.151319184584752 4.522717723007421 -0.8363191803316951 -2.1679842675032535 0.2207243213003876
Ni 7.543005776649864 4.1375073247941385 0.4951966878448627 -1.4377999685591238 -2.2807757349753883 -0.4406135482939895
Ni 7.124627359137362 6.010794969741156 9.586438687217962 0.438446879659974 -1.0787353847832197 0.9636602634832306
Ni 4.459967466465147 2.437095642119584 2.4745771955096996 -1.468833697936477 1.876665166703439 1.178425538986706
Ni 8.788893094646454 0.1475282566644257 7.51309079965147 0.09749366077279983 1.2208052895044976 0.19055114015111702
Ni 5.90655820001612 1.7603884882952106 0.8675659339357994 1.0155379261891284 0.27485761280968146 -0.17761386326415862
Ni 4.131614671026357 0.03188260287006574 8.972780140386883 -1.8548195315832572 0.9192241446570426 -0.5056891977474001
Ni 4.205830507518057 2.9365770513949627 10.527025196960073 0.9877062486888408 -0.17686232981011474 -0.2518575523700824
Ni 2.1771682678770223 5.907348224574892 3.9525216801966896 -1.8164206200900848 0.07301675867735812 -1.1268998603035882
Ni 6.567000142336364 1.7964972578343779 3.767720994290058 0.8679069824403054 2.7185978365671697 -0.5013969981299493
Ni 7.551491569851734 8.071978337983875 6.119201210255192 0.23519757521589815 -0.7172717046475195 -0.6853743417182906
Ni 4.455106491827056 4.6643235838030295 7.827531727330615 0.2158860193714798 -1.0519529744830527 -0.9318528891646467
P 2.504563739438712 6.056978876006309 6.876551282717038 -0.24298853201522672 0.3649200141154167 0.5326963224638632
P 5.280728627776663 3.800520025648299 4.036617470876325 -1.6384776556212814 0.7662563620763384 0.13253831108175884
P 2.198415281304702 1.6262144349960042 10.546259971364528 0.34132628595587666 0.5123781797318014 -0.6357656775522276
P 8.641725460957092 3.27964289244006 10.285484947242438 -1.101276503308529 1.0942147113657414 -1.00743149503191
P 7.486003181132822 8.32170974821499 1.7456029463176286 -4.215207419065334 -2.7142868678966416 -1.492876083597661
P 5.091754753318402 0.4998485383350437 2.712784471029975 -1.2467142960607756 -1.528366048974155 -0.9404676274168512
P 1.3656829243261464 2.2149872082257667 0.8550909814324608 0.04012952103103412 -0.1830926269905427 -0.36719749729568374
P 8.724854633353054 5.782552227508638 0.20659978708479412 0.11591844313689069 2.5348781175155892 -0.3323323099873825
