# total energy = -381174.4750752978 ev
CRYSTAL
PRIMVEC
9.15640304756573 0.00000000000000 0.00000000000000
0.00000000000000 9.15640304756573 0.00000000000000
0.00000000000000 0.00000000000000 13.40132140352387
PRIMCOORD
 96 1
Ni 1.6341615524321993 9.146623940417555 0.8203212272302967 -0.05120403367764085 -0.08980580521023887 0.339009464897242
Ni 8.402263316659075 3.9671855622212258 7.593764836955004 1.509259667162007 -0.595014977997427 0.15563118834548034
Ni 6.594340704898209 2.057343028903349 3.828811253484723 -0.6816994639698646 -0.6248096927613561 0.5281662958039935
Ni 7.593936061690709 2.9521982920213667 5.668169627952401 -0.36949914884566687 -0.33333221200680657 0.03860485685639158
Ni 2.6030463336338063 5.869730442364999 6.431736722599209 -0.9372077257186568 -0.5719701803628214 -0.8664314263360433
Ni 8.953121676266598 5.096893405342457 9.530630662384212 -0.014135668070433718 0.04854731278108414 0.39920233233705443
Ni 1.6177258090852553 2.393025918509096 8.55811078920002 0.24240360604603414 1.2988963773809696 -0.5255111175693337
Ni 3.5347652751444687 1.0035600792823185 9.082732391712092 0.55230484072341 0.39327259711618073 -0.6044871791539203
Ni 1.989118670308318 5.731075032057048 10.9443637164257 -0.33093414408827526 0.7085443520768507 0.774923293722717
Ni 5.947678900923515 1.4934459514540177 8.90931927569662 -0.4258857551655117 -0.14394115360206175 -0.06571251170646102
Ni 8.62048786885279 5.974864261367569 12.008763515300647 0.41382368179465506 -0.07244571666523651 -0.11544484593458183
Ni 3.8725358246293813 7.530582909480398 11.65557175191884 0.02190811292700098 -1.8750209462317968 -0.15456572319544348
Ni 6.042374420530254 6.966356201523831 5.357848143317333 -0.30589262773861514 -1.0901593103494451 -0.023487541598978905
Ni 0.4034356934473695 6.267109175241894 7.049255527172983 -0.8318526599199093 -1.2224988751568366 0.7453378667561164
Ni 5.182807934492526 0.6161664038538046 2.2743918989545855 2.0090232434535915 1.6198327868265845 -0.4183549940061053
Ni 3.794514114847036 9.016639643730525 0.26802348107450813 1.557080386189712 -0.135057992179819 -0.5990356691210458
Ni 1.4223373259206655 9.304370450936302 9.132424190678034 -0.21222965356581516 -0.5726960027852523 -0.7003440756542455
Ni 4.482050101719089 6.635214887795568 7.247689429968321 1.2515572259753736 0.33789103502208256 0.17066237164698994
Ni 6.993449997938097 6.235601992591847 7.8792395064668055 0.3786517618792124 0.6387041913552614 -0.6208072564701824
Ni 0.48930993442433296 3.8980455633283153 5.133885273376804 -0.43747628821658857 0.24747870657609639 -0.254999954653806
Ni 2.64121022124944 1.6961229313897315 11.220269944824656 3.6029153991550142 -0.4215405908229386 0.09992541014274403
Ni 6.255334041011159 7.733049292147601 11.623180060741042 0.2878630239304139 -0.9407635613907152 2.740747890301648
Ni 6.167002221474685 8.597422889749197 7.365781390466486 2.5876240417590535 -0.42322929137927107 0.19468290293130341
Ni 4.926382869071263 6.456545996470265 0.29273295015309486 -0.22275986367317763 -0.5003554442393124 -0.10583046277326935
P 1.0683874123722146 4.513566440772115 12.892553265418785 0.4925099800529647 0.6696767284773758 0.28911489405964397
Ni 1.8292387178955103 8.144226724313544 7.077639460766961 1.2269093455197064 -0.1501933051593607 0.9471676651448461
P 7.441903146630731 0.6538614836369239 5.483686420735562 -0.0870261855825727 -0.20686967480548243 -0.18498058804187498
Ni 6.32264275930831 4.074114036207639 8.66650062510185 -0.15163569403284208 -0.397124109651787 -0.9246121484418334
P 2.702686310849096 0.07032758435926081 5.3992314222203115 -0.004502001635411601 -0.9256385328238188 -1.9140605766327614
P 5.8845912843995904 4.572048386597703 6.620159014377529 0.2309390570498603 0.3167845920607706 -0.4313892014822442
P 0.4561060703023144 7.613668110110019 13.38175515428797 -1.1997492401651466 0.07217420817140474 -0.745819177267909
Ni 2.8378073496072314 7.359989965582396 9.336432511606866 0.3099968797149758 1.0547269376837642 -0.026162774438296878
Ni 5.8864225649953505 4.615211670239761 4.346772488470016 -0.6976796414482049 -0.13142322364070916 -0.4352479131067021
Ni 3.233025171381129 2.528632246625108 2.0896550593752323 0.5507398102291354 -0.4942328762813424 -0.20231650821716127
Ni 4.286176329196622 3.2136593790809695 8.030272542321498 -1.6084872799067782 0.24932912952127384 1.4394899546670372
Ni 8.081047543759832 7.57738128510504 5.57360962310975 1.6868601606897273 3.074122268400299 -0.04865375645196137
Ni 7.262364397022442 8.705294473242427 2.883736782589185 -1.5267475395341255 0.39835952472078495 1.6074123016750443
Ni 0.5872083637930552 1.2279102650688494 10.908340595826509 -1.5155658118856932 -0.4883540489030621 0.773113751317804
Ni 7.620828417239441 6.4493490637289295 3.242128467222651 0.5119066394120216 0.15013314134538658 0.46301634146922194
Ni 4.806287487601336 0.1465427358338893 10.833842269910406 0.17291491512659252 1.2725009181065763 -1.1102362836049784
Ni 2.546761924523129 6.845271928532194 0.07217534648038243 -1.0868245895492572 -0.317207281420486 -0.13534261329977335
Ni 4.127422614350206 4.997848594320788 11.890670639162185 0.8310448193066332 -0.2952001810217755 -0.06517463692512002
Ni 8.207360122852362 0.16412943903526836 0.9722607469798901 0.5801540017251944 -0.7322571223127582 -1.4941472370006008
Ni 2.205173154996057 7.026852556004755 2.590461773379745 0.49561535845116583 -1.3168527047490741 0.04180048097555382
Ni 3.1557451302400663 4.553579921789466 0.7862163730551643 -0.12180575515560312 0.4054280015317921 -1.1513698204204945
Ni 7.295107694074627 6.6002008028046415 0.6594478050942891 -0.942026744373855 1.5143612500546306 -1.057455906579153
Ni 1.6221483517240154 2.4253205518153194 -0.19311128574376268 -0.2449024612084879 0.039729200268821895 1.1337983871956345
Ni 0.7396542326273762 1.0030839463274208 6.265800725256224 -0.42783285158955353 -0.2677989061906872 -0.734939811351244
Ni 0.0906447269289177 5.902913246760168 1.2948573054483374 3.824586143529071 3.691744956494913 1.9556918790203026
Ni 7.9577474212473245 1.3326228895343937 7.527803941176333 -0.44359294263728766 0.6941646863164109 1.0030696185187886
Ni 6.471013113176768 4.752905658234939 1.8287039839615484 -2.39304938227084 -0.4049333212835607 0.8531938445998467
Ni 3.3370602220262424 0.0053052198859160895 2.943828424058446 -3.401071202588581 -0.7244034305962943 1.9065532125121232
Ni 8.422508123645201 8.912348213802007 11.944168754846412 -0.018311139604362012 -2.34909354551518 0.8003034243587185
Ni 7.061216536384188 1.280110918450982 10.813485754807939 1.7901796841156847 -0.43157894889554704 -0.124060869738367
Ni 1.2406651344183162 7.29363351319504 5.009226340662245 0.3182439502151164 -0.24365007685862558 -1.66425579302665
Ni 1.2647006922376633 3.51287231562216 10.876016662030752 -0.5293294628741594 0.6897894400668508 -0.16651081137246163
P 4.138794866849875 5.052246784417834 2.620642193238164 0.5284902548023157 0.4845308185022301 0.16292206557993877
Ni 1.2321405232450544 4.004479591553874 2.033811073247836 -0.4455305259796327 -1.2153779478413391 0.4230207749128908
P 5.630913139871967 2.65714236243255 1.7426411210832216 -1.4109561088934024 0.32092946746707957 -0.09419544963750229
Ni 5.383058467638859 9.144810972627752 4.702510647520226 0.19022589560121433 0.5348066839386467 0.317165372438957
P 1.1399813272634434 1.675713309149989 1.9730226295118876 -0.8017434992393547 0.3369422979555681 1.2871875735844736
P 5.086555826379393 7.480817859290626 9.255220711026706 0.690215728970992 0.8729877393973223 0.22862917796976112
P 1.6115727062835026 3.8351136056550303 6.779286310465479 1.6365475284781044 0.0010158428590240568 2.102970838746346
Ni 3.9214310165361677 7.197500438320631 4.933227280297916 -2.699694314794447 0.6239059500001641 -0.8435249540515151
Ni 3.997465786872114 2.298779062648318 13.291510562169224 1.1419888934262268 0.12224232847238949 -0.5893896613908495
Ni 5.187010723459796 2.553913075249571 11.077050067631772 -2.562380693811232 0.05449761682724808 0.3367304390550781
Ni 6.538623992772218 2.9257912258305105 13.19192552337181 -1.5826587488794484 2.5006132827954484 -0.41539385449525235
Ni 7.734486847415272 2.295968046933827 1.9279273448413028 1.356672407849173 -0.6504492477063314 -1.3446635563137552
Ni 8.321467216774154 4.19379737954352 0.7007660735361193 -0.32366563545132 -2.9221960397102316 -2.901351849271371
Ni 8.469810101433676 1.9800446749563283 12.707535324267983 0.6033301827313415 0.3787036981630703 0.5860431135161198
Ni 0.21537233266581862 7.481825063618294 10.070195514557682 0.06548111242194529 -0.528808814483999 -0.03747434279637417
Ni 6.732922863982331 5.918726354704552 10.226119900883647 -0.14277901497316056 0.103128490461074 0.4478892560197964
Ni 7.828459011186685 5.371164300169399 5.72102404850722 -0.6079136883369659 -0.9622039906526783 -0.660121737799089
Ni 6.1335905070050485 0.7856413509480957 12.846922331173941 -0.6147751913434896 -1.8273601498207237 1.2185098086021016
Ni 1.91904471831157 2.436473050643497 4.048646416962408 2.089048829348615 -1.1291102376913458 0.41814981997383466
Ni 4.132064910660458 9.080972531059567 7.033576102712087 -1.7970776967870987 0.05577314110556201 -0.07897349048142528
Ni 7.091103035706987 3.5704019955379533 10.608606659955823 2.2225412768135273 0.6290784953400392 1.6965172241635171
Ni 7.10892139590373 8.34954990471013 9.706791614933621 0.3267175349037663 0.1853037757092486 -1.7439476497313384
Ni 1.8390269126798462 8.563864672831897 11.61121264204775 -0.33632111943180143 -0.6713646577027599 0.4577949451692826
Ni 8.123643130417204 4.132843204913656 3.402179644371162 -0.5564299186353772 -1.0505450383919326 -0.09784204525115409
Ni 5.169631870606035 6.971895825326004 2.7954892019601165 0.18393980548218644 0.25582090789320455 0.37383351455496266
Ni 2.906993130515036 1.9346563853904222 6.37212762356693 0.4545682107018687 0.9868593273075134 0.4191417515734588
Ni 2.1135358739842376 5.210057389757433 8.553446517522621 -0.5688648019646203 -1.3302748916922509 0.8186361612296353
Ni 0.3746214089133872 8.507259789616963 2.897258042867977 0.7461361942876956 0.19482071406074833 0.2912494239041436
Ni 4.324358529618213 2.2498380887266385 4.164956541440899 -0.07127200807210951 0.13959727481106926 0.5744402391698687
Ni 3.9032372438172946 4.042799138020147 5.822834093228486 0.8839648072341164 -0.24643021070692397 -0.011913206497818194
Ni 8.824318555563833 8.299125593505885 7.827873001396041 -1.1629912067095067 0.19699046801855752 0.325001323543608
Ni 4.4243372937437195 5.429362397502645 9.281473949647518 -0.17021062882155202 -0.47926777033107776 0.9482650119740831
P 8.867802313310149 2.466725806085448 9.60089415192262 -2.5641606685297904 1.8985216004568979 -1.8446379630645653
Ni 9.069838345037347 1.7006553508642372 3.9583752712750253 -2.4126311610575097 -1.0249779885561057 -0.6785377784124313
P 3.4457009433696912 3.6396701840725676 10.220169154587726 -0.535021371052614 -0.003082495580065659 -0.3908215644725269
Ni 2.5359848382170833 4.709769843801817 4.0741222769703205 0.6179600168293744 1.198994107166677 -0.44070636511811195
P 0.510670906933573 5.539019479576741 3.6010420668259084 0.9504280810636729 2.0931142576672404 -0.41447134268098296
P 5.878483963612732 8.249580296987604 1.0396729326307013 0.6724280659702677 0.03631503238095036 -0.8506016583926382
P 6.473082460249976 5.183897546447004 12.358712080747363 -0.335268509797571 -0.004487860568024529 0.3007221392812692
Ni 5.584014043814558 1.900283248608011 6.704373199494436 0.12556162265360957 -0.2562955335367779 -2.025121177456719
