# total energy = -340891.7476364476 ev
CRYSTAL
PRIMVEC
9.06349013003517 0.00000000000000 0.00000000000000

0.00000000000000 9.06349013003517 0.00000000000000

0.00000000000000 0.00000000000000 13.26533395693018

PRIMCOORD
 96 1
Ni 6.351421918523646 2.140325047041857 11.447572218252366 -0.13011478924193076 -1.5482980120113916 0.32065050277408
Ni 4.595579182661908 0.22884043473898158 6.311778213068758 -0.05579293859990391 1.5187249263399651 -1.2197560223043766
Ni 2.6242519709908456 1.504738744177309 4.473574636823132 0.34469108866305154 -0.593397754108978 1.2589033819277995
Ni 3.785874172551391 4.584884264409331 4.9469743170853695 -0.5981159855202538 -0.4955487668792885 -0.008809113651197732
Ni 5.057300556001734 4.537817560607951 2.4544320770730095 -0.2112868300365716 -0.06306941765665912 0.49800468461894876
Ni 7.320979702550001 6.112825543100704 2.638899477251853 0.35818063850905413 -0.5002975944181836 -1.5736056375382446
Ni 5.151841820656499 4.262550304464735 11.559955869408844 -1.0803204698821522 1.5165328037846528 -0.009418465100422489
Ni 5.919546617900544 7.7345920707333224 12.299498590386444 -1.1391321407037223 0.5318923385053291 1.4578887688891988
Ni 1.943302900453294 6.801016342183856 0.14413305678255936 -0.3463718187995841 -0.5493580993902604 1.3656486432058546
Ni 2.580792536227199 1.4615149601548205 0.6648196836542594 0.1666391094202098 0.8461698478735298 -0.9136517927755878
Ni 0.332485975143504 0.07498225313861343 5.0381874681957735 -0.5789478972322353 1.5369445346717854 -1.8112285343661838
Ni 8.672617972894667 2.5843726147947983 1.6221644148455745 0.04493825527358712 -0.5780348984996625 -0.012919793385461622
Ni 6.808457467510436 0.9579474532792781 4.974274455448577 -0.12396188226665747 -1.6527537059243214 0.31410935922145256
Ni 0.6279167775888445 7.435832248394617 2.366800817228214 0.3304050110576826 -0.3035611513919611 -0.1132169850453276
Ni 7.634395188290753 3.9831229063910674 3.838165072014453 0.36539078310424816 -0.13097559458032926 0.0678408709033735
Ni 7.74781570270833 3.734701707759826 12.609774483175762 0.8648288577356137 -0.3137041533632339 1.1424411504722969
Ni 7.804779737638365 8.646496994586254 7.138407478139475 -0.837666695498525 1.4384615134025225 0.16450946467171668
Ni 6.859711503712402 0.857901024771449 0.2578753250967174 -0.07919614801519265 -0.5898069514339261 0.750993522379997
Ni 1.9852668593595895 6.5017217739325215 9.157670582307189 -0.41074195754553783 -0.1260796999406087 0.13963969801323048
Ni 0.11067971502810245 4.906746922871611 1.2183397095613688 0.4743140258702283 0.6019479576718343 0.9620592375446979
Ni 6.2584758281167225 2.180576006329731 7.120658445585219 0.36648298772716237 -0.9553545718310127 0.6391708465790347
Ni 3.495833427635548 4.401412035437381 0.3119943305017669 -0.6582312056445954 0.28470159548329677 0.8323190580333666
Ni 5.953652530938208 5.72672086720261 4.595085222454479 -0.11737934395313335 -0.4872824131054382 1.2294110288956377
Ni 5.364471297101788 2.986129937999841 9.42484686088763 0.6039529039170051 -1.2257356369265793 -0.7220012489127049
P 0.2904993575120974 5.499326965474739 12.368358455999958 0.7264266316739103 -0.2912635649715306 0.08062156760780954
P 4.158247661031982 6.2424787681880805 12.643959248576815 -0.9003427343715076 0.2813123672960897 -0.704518004526277
P 2.4636197369311765 8.588463467830962 1.3658389465464762 -0.8179085390349914 -1.4369972701521703 0.9030408500289608
P 6.254714479748232 7.8577558369487965 5.782558310320107 0.02189140075645262 -0.11329771768459197 -0.008993204637545802
P 4.652434455711409 1.1940060514897441 12.701530537339837 0.8967920409057716 -0.20701597057535961 0.2085519476039118
P 4.115268591240697 6.115453955213625 8.093989360517122 -1.5396681042505356 0.45165437948918336 0.4476851104287903
P 4.848513999335338 0.8929948582239706 3.8463231194035585 -0.043479668450189635 0.587749040463633 -0.23010036319864885
P 0.3546570844904973 5.620288303609387 3.500085110815449 0.04679793419014521 -0.28163298386030206 -0.8371023383546228
Ni 1.0936913436765963 0.7822897654237434 2.6462880343361754 0.7267814439101677 0.8697913439472117 0.16983730464253333
Ni 2.008070600311693 6.463899829976588 4.754799324972636 0.9285747326340072 0.5450070215104162 -0.9621368848601687
Ni 6.009719280353833 5.546348351825897 8.929665801350316 0.5976958672636997 -0.09761141729758674 2.0051740449108304
Ni -0.5513583835314827 2.1993646211920956 10.26632030995332 0.30038223944334724 0.0784081048962585 -0.07113445405298072
Ni 2.3210057210800845 5.187633542842453 6.985246278923532 0.7587261151375643 1.2740356095835477 -0.32559319149133603
Ni 0.5439335724869823 8.899549636630264 9.062040792498072 -0.982433944546308 -0.6851830516430909 -0.4149439114420273
Ni 1.150410664375429 0.8189017334587281 11.420284768775222 0.30601861179351814 0.9057880737567948 0.7054626278277335
Ni 4.263565415349725 7.085809326363901 1.4820963333479986 -0.17331343611659183 0.22372479868960826 -0.2291446841535989
Ni 5.513719787665495 7.870073119919348 8.055082516802857 0.2473658351473159 -0.3990670923107708 0.29828293371215725
Ni 5.302096358615152 2.7605577977709266 4.830093362168781 -0.9882906604374013 0.9718266013441069 0.2139600059933605
Ni 0.5104231307452446 7.527998878657709 6.481561853026415 1.9492301825553593 -2.203026860929683 1.8785531277547711
Ni 5.007795773378368 4.27889177701507 7.194002926072781 -0.2730768667601749 0.33839085747663655 -1.1591947157815519
Ni 8.091068197675762 6.9100229369497335 9.275745198862644 1.0795794779510697 0.25278340661846144 -0.1807279834131081
Ni 4.776033269449021 0.25864753444851357 10.730885806469129 -0.4606157024475293 0.10617319082466875 -1.2591448085146442
Ni 8.024288403027471 6.984325428335005 4.654991266252978 0.14108054422481509 1.679865474539449 0.34988111750442324
Ni 7.117912208101719 6.153239645209379 6.925857760406578 0.46016498806335593 -0.7827021663371875 -0.4178873103410674
Ni 2.5067075686029963 5.291202043581595 2.3859293129672494 -1.1260246567874865 -0.24029915810852162 0.40775356434117516
Ni 2.4158460809063205 5.3934200843041005 11.600919219014221 -0.27483575843281055 -1.050343206793772 -1.6944688262749206
Ni 1.0262045968048308 3.396996068699663 4.00357104628059 0.6467306612041637 0.0028045593283306538 -0.8186675286882028
Ni 3.7543422906863797 2.5293481667342976 2.6470838087620874 -0.1713570837211694 0.6416473331439853 -0.25610218657904926
Ni 1.1918126868989616 3.490549412939572 7.972014724195494 -1.1104324587761842 -0.9853200078448514 0.8510238335317214
Ni 3.4584555946917983 2.519786184737291 7.615880290827734 1.291683147461982 0.20245354801565776 -3.7795216470902645e-05
Ni 4.083201963463057 6.907158874095654 6.137869778791822 0.4637221092869949 -0.18198653841055756 -1.4421189076494518
Ni 0.7690452874216335 7.334275842445365 11.184785387900504 -0.37195969457101746 -0.03479216797852073 0.05502957807131813
P 0.09500350264703805 5.673364101310308 7.8077897226821635 1.288174105867459 -0.4855525748985251 0.5676810660691642
P 8.57666280379295 1.5975488822335644 8.120347802264702 0.09057019418008919 0.33572693749122823 -0.7860381726889559
P 2.0504696067401267 3.4269962207471436 10.278749980200425 -1.6276065172347323 -0.14547327397587204 -0.0009250829174306649
P 4.095655198784277 6.181617432538885 3.559221664309165 -0.24502561704991352 1.0695334065689772 0.21048593140183106
P 7.012077834851436 4.053564351017358 10.566886485857907 0.1758400591931875 -0.7658706966021455 -2.275340680002746
P 6.349781426825581 7.627144396255109 10.214346632641819 -0.07642527013827484 -0.3151462851263992 0.03044546097405079
P 2.3661600284820636 8.465036860404195 5.611010915199779 0.37325193101987975 0.5268234086228539 0.4184136151581826
P 6.973086700679756 4.197003144462505 1.5018610860881623 1.0138183723948604 -1.8496814390257434 0.7579406431217915
Ni 5.316607006176487 3.0322177848764094 0.3691885780789343 0.7580779400306041 -0.714343218146815 0.86262953609145
Ni 1.6974738599747965 1.1400057778042785 6.897376649290565 -1.2407660488971406 -0.29071154912280256 -0.41099855364103416
Ni 6.863373153690403 0.4372218534003865 9.238946522932741 0.027264492142907885 1.4373088878553184 -0.07480547514666472
Ni 2.176343356478923 1.4564665962000027 9.296293037142657 0.8925294089746758 0.8563825267404735 0.22930460677023087
Ni 6.405884430201384 2.219829981712704 2.6909257228056145 0.013843590751311642 -0.25559696480785654 -0.6403802935061036
Ni 4.379877183091515 6.613936844174171 10.413088123291834 -0.5202084744094976 0.9390764034962795 0.3794179506212756
Ni 8.20618358473167 6.996814917616404 13.397589352130668 -0.11754595143798466 0.5168249026492454 0.7334107763012273
Ni 7.794220771736458 3.88135804017079 8.370929736922564 -0.33774139681809573 -0.25836758557445827 -0.42956500378931184
Ni 3.149318076252075 8.625270300901905 12.483660550950786 0.768425087592883 -0.41623460522899286 -0.6310358761767262
Ni 0.13812396288301862 4.6231321923973585 10.361764298216524 0.6986286356250355 0.48553663405892517 -0.17117967760304068
Ni 8.505623168823718 2.678043784405287 6.000640382376202 0.4629415223672285 -0.33229734298438895 0.459419368146583
Ni 3.272445588507371 2.721911076220939 11.882939681589637 0.9602617793246431 -0.8087528406776523 -0.9813180857743099
Ni 1.2607224017077223 3.329346179007095 12.816660425979814 -1.2911727834844666 0.2169951932752585 -0.42417648578388883
Ni 3.073438537599051 8.28919609004976 7.927761327703944 -0.5977359764730158 0.6464774075427769 0.7726275557100047
Ni 5.802419136054744 7.8656229463074725 3.511851333591292 -0.38709886420530104 0.6903725662638304 0.06230425735586043
Ni 3.35119825350452 8.397858272193945 3.4098272515557406 -0.7237102611840116 -0.4807309851401656 0.6460092096571067
Ni 3.6151814645422635 4.425656871306568 9.331327051560885 -0.15351594177469044 0.5339214531202159 0.08078611821013183
Ni 7.252731622514492 5.91080941349759 11.567583702630342 0.11556465934189773 0.18548503848211925 -1.4907808916315293
Ni 0.40640779994690435 8.84031972918909 0.2921335047671309 0.6892276540261097 1.120762637057599 0.4921235432478234
Ni 4.848278348594179 0.5216645774475077 1.5856448944090444 -0.18002787202228995 -0.6815626812816843 -0.03311966537210425
Ni 5.967655623057047 5.676083148323674 0.41984351758895444 0.2560517929570881 0.38604496901949 -0.4635848123781823
Ni 7.910469095047936 8.891655336801456 11.37473166781128 0.18050352610712783 -0.011920662696985922 0.22532376774561194
Ni 0.2075765807454483 5.197458366050752 5.58501048130896 -0.48590070226656323 -1.39065724943505 1.464951075052619
Ni 7.860393312551762 9.123399713750713 2.649922493844042 -0.29972635102690315 -0.38649054119734083 -0.04834393852102641
P 8.465027796914152 1.8132508818039572 3.9103820543404724 0.41973181974897394 0.12122828538557832 -0.934290552071862
P 1.8595199984814166 3.2331462956741754 1.6816200031888588 -0.16875589865289647 0.3874552191034553 0.6181122261365226
P 4.782586172751236 0.9237146513809894 8.505121957824255 -0.03816854064992137 0.678297123156535 -0.4518024750312735
P 8.673324925118141 1.6297152084016944 12.714331810678766 -0.2696927807792904 0.6977071522520306 -0.5913745530313621
P 6.609368845191716 7.750770400462856 1.3743948811485374 -0.9088420300917702 1.0834718710269404 -0.3578677352543256
P 2.2955191870747926 3.2462792927487376 5.897183362564605 -0.7824437704694782 -0.49940053652521094 -0.07647977752529408
P 6.751448115130178 4.046531082742782 5.91812999440658 0.43716312785154393 0.4020176902986625 0.3946504513003139
P 2.402069576038595 8.5968925135724 10.268071376229928 0.9217731363311414 -1.8136528275369606 -0.4544530252802431
