# total energy = -381162.1084149531 ev
CRYSTAL
PRIMVEC
9.31881671349662 0.00000000000000 0.00000000000000

0.00000000000000 9.31881671349662 0.00000000000000

0.00000000000000 0.00000000000000 13.63903022063602

PRIMCOORD
 96 1
Ni 2.919156531378117 1.3365326131504904 3.4091576065990914 -3.214133490820336 0.5465144592938781 0.25834264587379374
Ni 8.977775734066517 0.7662704355223533 10.044981505178368 0.306056407009989 -1.0269790781465347 -0.3650182302561778
Ni 1.7869576067472566 7.701330849450462 8.86142751491779 0.36225429435779544 0.42631795760692387 0.061934532721267525
Ni 3.2671863697117973 1.2856611940950493 5.628104792340187 -0.22493218873414808 -0.729613256932008 -0.13170681631939896
Ni 2.625231741411518 5.8640516338189075 13.506308641965786 -0.18423445390446982 0.0841249527753777 -1.1397767162662564
Ni 4.995444751577166 5.0030209493591915 9.596653245285115 -0.10774182086336928 -2.4703804520528356 -0.11358670967992052
Ni 6.634848218495909 8.318404237802394 8.676605564302223 -0.7459086516579218 2.3339178662160065 0.6212412586838074
Ni 1.8179426714769398 8.596142243577878 0.18227791372197083 0.4741237642362931 -0.5247526421367544 0.1866795730108527
Ni 5.388922457786536 2.4991761111563515 9.782771443270274 -0.4565186495600202 0.23428226249048037 0.15053474765917946
Ni 8.855745832522095 2.3781340041566956 7.606895827207555 -1.4871756907787743 -0.2602254647188034 0.8355133966009481
Ni 0.16879265442262503 7.509568244335446 5.865792388733646 0.2901873011882164 0.8661804866675018 0.43990032427704884
Ni 2.3639600843209516 4.983125276216974 7.175657344820396 0.952549755392366 -0.7202025051410693 -0.6349982032585838
Ni 8.552278574500399 8.053283909513825 0.3252844711179772 1.5668685759247274 0.17264803461845105 0.010505784627330294
Ni 5.902091042608853 6.853355826851282 3.948731057860975 1.2967245665406313 1.0592903886847305 0.12094674958941752
Ni 2.134773112302355 5.301027380935295 9.344917533078123 1.362246302392525 -0.15490253770957194 0.9602831194808815
Ni 8.627378916351983 3.1132581594246065 5.4633592999061635 0.33619873492132424 0.9037756713124564 -1.2914383784410277
Ni 0.6762357584118844 8.67593926892533 11.705383993108201 -0.06135269207586853 0.15003004010861906 -1.1917279125225668
Ni 7.997659894063755 6.159896099976278 4.793792086553094 2.1304901272125374 -0.012851659151687544 -3.42161868772263
Ni 6.9080386418388855 1.3377254216573777 7.950040741952874 -1.272190843065325 -1.0608597900543792 -0.22209574772661753
Ni 4.330873355728333 7.081713424204934 9.157845088287454 -1.0249509919729123 0.33387497188415405 -0.32791309787376427
Ni 3.1758060555044967 9.320587035182564 11.615871169719496 0.8588849814473531 -0.60646230060242 2.3592692004966014
Ni 4.084493167340934 4.851264023307193 1.4601672148893343 0.7843345597342879 -0.776476754252766 0.9479464522923997
Ni 6.280938206975935 1.3531201064493887 0.8266722081714928 0.25098517706745804 -0.1333636351965316 0.1723649561603935
Ni 5.353697331567527 1.7733055406332754 11.997954759043154 -0.22096111990154205 -0.8407851865228488 1.2206425386743882
P 5.4764075067135325 7.570187145408106 11.059726067146695 -0.016510081839881244 -0.5535371704686145 0.3089398992053711
Ni 7.755743418760724 2.6542505358681296 9.698100676914214 -0.5828971116879703 1.6099355823175308 1.0822570247832328
P 4.403951514408085 3.5527615001301873 13.151448111166888 -0.19209534470978532 -0.015719724728101958 0.1793151622259815
Ni 6.406676997471458 7.6862902796839325 0.9825107758329952 -1.1505501527326767 -0.05803442633591296 0.5336550868327067
P 2.39921316698934 0.26759354217706777 9.805221404004193 -0.995960261167517 0.7781068336570212 -1.871880600830602
P 6.862739875026557 0.5989454946921869 10.478375429812738 -0.5860798802913261 0.6309572004199908 -0.2057425031795747
P 7.955874321056869 0.4905518172737634 6.131153142486884 -0.22608044340597838 -0.2163007383113952 0.08274864125314135
Ni 2.266065917408072 3.556125592872267 2.4605896878402014 0.8863068251037316 0.3093466477254866 -1.0471272709596355
Ni 3.893047401985562 3.403147901864002 5.884177481727688 2.6473556532917306 0.654341383671886 1.7450437110089947
Ni 6.461164117313402 6.19748820557614 8.27421254638552 -1.3222003422142325 -0.8217801061752558 2.2514790428938
Ni 0.5656959575627102 4.616280747450442 3.392981073106082 -2.323299467270212 0.5973580243083066 0.8387190480224395
Ni 0.6021362574481098 1.9890920545823128 3.2698077527820106 -0.017840370615530565 0.9247162781198656 1.91011907548651
Ni 4.992350904512428 5.437287115214222 6.677614130994395 -0.7806573679930169 0.6998139141823883 -0.3295508905875034
Ni 7.783634636425669 0.8354216449458386 3.7287603953213733 0.14614124657717412 -1.1169273224719085 0.6775311915247879
Ni 6.220058379042394 4.122830778257601 12.111963023378761 -0.6937342836472117 -0.7274188203838504 -1.0870814427550697
Ni 7.72979983373593 2.0496736803891316 12.230295218551833 0.47101658606587915 -0.29041690070051923 0.23457639669213148
Ni 6.828838020744878 3.6461733163257803 0.7193222381965955 -0.1244755886782824 -0.8166571831263936 -0.10535840823285725
Ni 7.171062236423944 7.5326882279728435 6.377882786491535 -1.3677816303884573 2.3342757637760574 0.26276494331120553
Ni 7.37335510413882 5.26972547644597 10.461299630531332 0.310277129959556 -0.13363642924194405 -0.5445336814184235
Ni 5.5738916457021705 9.145523749163969 2.7053148544242935 1.4765714329003667 0.1704728813440032 0.36192287916030574
Ni 4.285639820631225 8.463796412212174 4.732293489206607 -1.4857654406948089 0.07451288360691037 0.17753955838279747
Ni 6.274359122555136 2.6197895525988457 5.567343313375689 0.48681267255787125 -0.6699047853277817 0.8808637997112895
Ni 6.52684313572387 3.7560794376556705 7.972871842280008 -0.7062542704910933 -0.5703820099400951 0.4347923136265221
Ni 5.510486418507955 0.4559296184797205 5.98110994678189 1.517044967534381 -0.5123041319607564 1.1592042288632487
Ni 4.905788418414976 1.829311627558207 3.7570206381181364 1.4264004684729303 0.44104909316951135 1.1457905265605042
Ni 0.6998971652856104 2.847308456471092 9.581281857534254 2.329552647268775 0.5680417918426928 -0.5612296540168656
Ni 0.6142264899233854 0.911199464754069 5.2417112504037515 0.31873914468398007 -0.9217188860544384 1.0731447780693197
Ni 3.9241442925127656 5.416916182432541 11.564560834408784 -0.07624940668204287 -0.6936887751212569 -0.6071675541995607
Ni 2.057259196987616 3.4693767304456142 4.789291098202889 -1.7274383392224055 -1.2127299686955306 -1.194645343279678
Ni 1.5148947601959462 4.453145546500717 11.364557599898143 -0.8425816163016392 0.9122893652104224 0.5668038056705336
Ni 0.9225563063739383 2.101337198843677 11.733098153260405 -1.5183233200261723 -1.5066294286280117 0.15788116072192165
Ni 8.705880626211487 4.09561051537778 12.711643772689646 0.9527261330692302 -0.8472533107456958 0.05579319571022004
P 2.084591285664958 8.032810469751084 4.620493784372033 0.15856018906681724 0.5613013877950657 -1.1758477509572007
Ni 3.3863181193371426 9.009357203049642 2.1225608033314525 -1.134549406429046 -1.4619809366807015 -0.29387194912865516
P 0.39773733721326004 5.19203450361849 6.362702434478105 -0.7964282576740284 -0.25156496083032803 -0.5957449141849159
Ni 0.25736800487544925 9.317791390244548 7.840450528500979 -1.6735657575736662 -0.05845891546784126 -0.7802932997853788
P 3.182795167849538 3.3444020828998147 8.583628004953669 -0.17942803365476198 0.4378295577909492 0.36104407609977823
P 9.53911328117086 4.026474216060631 1.3269454147763857 -0.04878154027907728 -0.1361838782541461 -0.8900482944240349
P 4.567832220674616 7.813492124363686 7.061417041954933 0.7501885099801983 0.049806639109481965 -0.38501061421770466
Ni 2.359300676090924 7.2148233985203625 6.51533719304064 2.3574282906331208 2.2801064768225054 3.0247408897536943
Ni 8.069107259863 7.328550234598875 11.520234020153241 -0.2939467682306486 -0.861936109568851 -0.9756351764569199
Ni 2.0821311181195035 5.768990387109884 4.935405480888323 -0.1065053773531069 -0.643292324946576 -2.0388732369354887
Ni 8.506187708288964 7.143972436974563 8.56169617041493 1.8693328947080838 0.45965539541678907 -0.06379266897592885
Ni 1.4447613475175711 2.8007423306201966 6.865464696959479 2.2906580270861068 -0.12366003475552251 0.3569233690631853
Ni 3.200445006224882 2.2606144097789396 11.129366514434333 0.09461968165911447 1.1376216175964664 -1.3423475065860688
Ni 7.510593314146052 5.287403271270694 6.7168128005519705 2.2305854872742423 -1.973883205217349 -1.0882615791061
Ni 5.1835171053739995 6.157650265209405 13.33021469484671 -1.4679970609677944 0.1781118859464997 -0.5265590992178738
Ni 0.6386967700658442 8.371474897542408 3.092090467835591 0.16612566011890098 0.4479977565732026 -0.44701096717990113
Ni 3.781845965167723 6.719742636447012 3.332492635463864 -0.18416220590563767 -0.7936769201811363 -0.08959111809627152
Ni 4.438104976734188 1.770314200549598 7.796928859987583 0.26197201509626494 0.3588532390960465 -0.7700518245630287
Ni 4.538673643971102 9.190375212786215 0.12072526724001453 0.023429691777849974 -0.24566016531011883 -0.5885874772045282
Ni 6.385513965290673 4.688035634192866 4.724259737536394 -1.8077243778676673 -0.7478135819901186 -1.151822334576881
Ni 2.2666902781108957 7.107722240944947 11.435372218059747 0.41290014153912113 -1.4068472289313514 -0.3145618733778389
Ni 8.59654295268566 6.100796165986608 1.9336870313190548 1.261817470250801 -0.3642852087448952 -0.36210542748475705
Ni 2.226339802838857 3.174035480377086 13.104066588875735 1.1644104556545365 0.9135024116819171 2.7987918297192573
Ni 2.3972841719821085 0.5933057469705616 7.531240083894951 0.14960837919016812 -0.869140083516458 1.3034189478416713
Ni 9.041423250488693 4.8649626835034745 8.623589885579324 0.01917734425939923 -0.6816709247247744 -0.31524630103937323
Ni 2.037801508219021 6.098317360808234 2.1049929705409567 -2.069258276985249 0.19454509180185847 -0.053611871788185085
Ni 7.271565671945638 5.763976863854375 -0.2773540705373296 2.1454567758246985 1.231639404005524 0.4281632383457788
Ni 6.497759109552038 5.288959513619523 2.2804597613122732 -0.7391849597808431 0.025992310298703625 0.42344783514798046
Ni 6.989345315452868 9.117753676113004 12.618748218925939 -1.1677647168387502 0.2369389833870371 -0.4025936174067905
Ni 8.57610678818876 2.0212046961036627 1.5876644660508707 -0.9583108262458592 0.06374664622934183 -2.1214257030174237
Ni 0.3037421631072677 6.1506518340479035 13.061171144828457 0.9347345815878161 0.45706835141590313 -0.16423744195725265
Ni 1.6541644721914703 1.5294041574242518 1.3859027708742166 0.20328529988833377 -1.089999387732813 -2.0693675488696037
P 4.143900622273787 4.41819066595905 4.004310342992036 -0.06225154974105409 0.7819963985194145 -0.9082527332472036
Ni 6.7691603201346835 2.7685458197507065 3.051732537510384 0.7420077739416189 1.313021761038758 -0.6881377633960407
P 7.911591305238686 8.041709939470437 2.460930756522639 -1.2633112811875082 1.0639515416058258 1.4062674451684813
Ni 4.7201575945306775 -0.017935926040668154 9.652382563361183 -0.24379894373166394 1.6308689900360882 0.6911518676320162
P 0.5417279616274483 6.548136631335097 10.17500229183729 -1.371350321576322 -0.6791874961812883 1.0269826776909603
P 3.9161767044394185 7.131037919728006 1.1084834686216667 -0.4030993533986154 0.7098640993295388 0.06944086840064169
P 0.04230835861029641 0.6273874544099213 13.18114065605356 -0.37946988690513356 1.6476071287263754 1.8079349512165768
Ni 4.027732256282739 2.3228827413650284 1.4983976594167105 0.9106163483833737 -0.6060648080536852 -1.1682108032372331
