# total energy = -340857.4049841243 ev
CRYSTAL
PRIMVEC
9.37239630492715 0.00000000000000 0.00000000000000

0.00000000000000 9.37239630492715 0.00000000000000

0.00000000000000 0.00000000000000 13.71744936859308

PRIMCOORD
 96 1
Ni 1.421698776783591 9.07557239450758 10.848485785122303 -0.008291293474514752 0.518849646388758 0.3680629306197725
Ni 4.120892642701011 5.904862649091143 2.7140106870408776 -1.0418896767097798 0.11940434480296211 -0.169008895203967
Ni 5.560211524305968 6.3165170341784185 4.463219413233153 0.16772694316774983 -0.413657588530436 -0.7169189492937911
Ni 5.224511037874203 0.6327210938221599 2.3718432472438216 -1.947864155445768 0.9134993263581236 -0.41314876721481747
Ni 0.47397332177782536 9.22107884522658 0.04648708506062767 -2.1440388124312495 -0.36754896709783147 -0.5484340449140942
Ni 5.72282259805635 9.051091695681297 6.586694161665154 0.35733037469361684 -1.280034250369144 -3.1667339184904493
Ni 4.321546272552418 4.236191860526786 5.011972272424937 0.5198238373765692 -0.7424572027742117 -0.6728808372369702
Ni 3.6361523121897887 7.553570233788738 10.750652964820517 0.7457939804569286 1.478501302933228 -0.2841254112648526
Ni 3.3800703313205287 6.8227951311149075 7.6515520751898105 1.382601211899793 0.41208227362351607 -0.14910829962529804
Ni 1.3029786343515404 8.118191496955552 4.0864556474110385 1.5736457467475609 0.7756082356048836 1.220966240562394
Ni 7.179714722501767 -0.1635305058157939 1.4316897511131532 1.3047708338838755 -0.2002621967912938 0.16353681634580222
Ni 1.092296540585845 6.860097267917589 10.192860429511603 1.4562301502398534 -0.39721615514496106 0.8550540377370369
Ni 6.946801304993368 6.9305870595992385 6.045910650946567 0.2906508710881962 1.3476714899021436 -0.3205126916446351
Ni 2.8196291568506995 1.6365797040386334 3.419513123411082 -0.07735215282791841 1.0811432228937639 0.4436579915472682
Ni 3.5128022060440385 8.62043946353396 0.9481556479904999 1.1034264597719963 -0.04659481704040363 -1.0305014894774962
Ni 6.830499240776165 0.07376638138672906 4.013081032184699 -1.0499426289212435 -0.31510360481392186 -0.5202696666647362
Ni 8.71040509448093 5.345433693408924 11.837870603915565 0.8839624932412712 -1.6879312822667187 -1.0389470491416881
Ni 4.066523372451677 0.3535220977710374 8.014927373066541 -0.07648132018719087 0.9275828010343832 0.3965479254333429
Ni 8.009949693454505 2.801362356692804 5.131121670602103 1.6014244595227258 -1.7412909288347818 0.05411143713242293
Ni 8.478288330647965 3.7330910058958517 0.6049506839361439 -0.4331606915603701 -0.4417718302681488 0.12689062587767824
Ni 6.70854562166147 5.394685635343118 1.7383301859443185 0.26071217454723483 -0.7821123552719886 1.3765616905739326
Ni 0.9016395085017094 1.4220174382537645 9.299909132270216 0.20543808456527848 -0.16238316235733324 -0.012730817303107106
Ni 8.361058399208787 5.003828597382763 5.7759790802397895 0.7849583093612159 1.072565508527082 0.46199638484513983
Ni 8.684003054437424 4.393601254396391 3.1971530240031405 1.2862172392514044 0.06114751804359792 -0.3314033704152099
P 4.761420942542426 5.671443122188939 6.648011189203893 1.5909274166461438 -1.0678835296703801 -1.2976974719768617
P 2.596406796994053 4.192938252148803 3.42135105030229 0.7547213648535454 0.07631985490866211 1.120614798625825
P 7.724082237520189 8.663336920857045 12.956500766052791 0.08687731870953426 -1.3973477740813482 0.3931183309265036
P 1.7698926673254012 7.685955329853529 6.332729405093313 -0.3117305745766309 -0.3859842909848836 0.6196572020261393
P 4.5139615661602175 0.7611079256758901 4.524906650421065 -1.0778555532814276 -1.8877908443029552 0.5709180849492232
P 0.07993810427229828 5.659474572265063 0.6946529505504102 0.3256875509773552 0.14137082177172428 -0.30655468680264625
P 6.204732464920736 1.3326422682662353 7.514596998746882 -2.0060435919999775 2.3006138527472375 1.3594386577404007
P 7.289756026069676 7.603740670548726 2.8483593001057095 -1.5214562092281991 -1.212730482916163 0.3061055150803696
Ni 5.47583184148322 1.8780782364493578 10.070185135890924 -0.4780338979239767 -1.8963528749403535 -1.3186645611468322
Ni 1.2360690980112539 2.1457913609799566 0.5801616332754878 -1.045563011796309 -0.5643663998736345 -0.43967818096391376
Ni 6.871587825636203 4.486134921897112 10.075315585560721 2.3256569117587946 -0.7261450958777494 1.8554178272888884
Ni 1.5884337048538664 9.17748783058606 1.971609126903799 -1.1711086936103188 0.8615285897177871 1.621600677360285
Ni 2.754790920066542 5.981959980080804 5.221053560922819 -0.5974289867555581 0.7107945815636081 -0.970563418360967
Ni 4.802134631555202 3.4359298125627347 2.5409793832158174 -0.38072124281373143 0.366732127623491 -0.5766429032481424
Ni 5.815731161404334 2.304212973637172 4.481683033710863 -0.8487561205434673 0.3304214661179148 1.1297342444285898
Ni 6.931177520558678 7.710745317753804 10.999652225895359 2.274359289926083 -0.6206455340813376 0.1521008065947187
Ni 9.320791768202389 7.378878141360302 2.1050523664974907 -2.8369894238349014 2.1096269106102827 -1.760714584777032
Ni 4.6015747256656105 3.069900252087381 8.080592255193915 -1.021777222230621 -1.2793655064368934 0.43745289117782077
Ni 0.4468767871772648 1.025508845395919 5.010765107796749 -0.9768189123523758 -0.24759877709372838 -1.6730942172538863
Ni 9.289309889428468 3.57071424205001 10.098813120027556 0.8535455715123107 0.5246515977825158 0.04557511752663764
Ni 8.923636480008016 7.336983530428649 7.228437124051701 1.0554669011735822 0.7617078234737076 0.06721943526929068
Ni 0.6545672120818005 2.638170194379165 7.266873320792353 0.043966892499253306 0.4132770652625656 -0.6146911162701155
Ni 6.853377259855398 8.089052717227025 8.204050143895753 1.064364460773528 0.05397362600297801 1.7475790758363385
Ni 2.8827709899259917 3.8211165508332336 13.40292205477563 0.3728955761217255 0.26204606286730997 -1.5537844890472596
Ni 8.297635394248047 0.9610642492513876 7.605447383893391 0.5167973918454195 -2.421052295241669 -0.6716703618686367
Ni 5.766066834038152 6.184778633450156 12.01630696861854 -1.9219700612878254 -0.812963022104258 -0.494435993431084
Ni 7.640611677127055 2.1757361667800983 10.963863731076001 0.137331361595028 2.296955430059044 1.5457924719807186
Ni 7.166677719413191 1.248356309405303 13.30076762259452 -0.14114379336258273 1.9900161062234698 -0.49726137869502096
Ni 1.0248340328708454 0.1666402668688415 7.128066258863944 -0.12145891333914564 -2.0161158886343147 1.1457087654799751
Ni 1.6838446979823318 2.2225044237261735 11.7427539040272 -0.5025668500683345 0.9690644652179374 -1.0741097130857502
Ni 3.9146436923292023 8.18962790065154 5.547254186584937 -1.117555442974211 0.18176388087679018 -1.1088291188448065
Ni 2.2624589486482414 7.07384413523466 13.012811059551328 -1.12989493837617 -0.30052287878626954 -0.09533239145542292
P 4.914753344073045 3.498012564869508 11.095523403676339 0.021820952529833387 2.1090191018229554 2.312701122929075
P 5.955876601507472 2.780096389756803 0.7338454996629156 -0.3953778163846417 -1.0356393249246938 2.295541837540969
P 3.2766553118529953 8.00665060999859 2.8707059043214462 -0.08360893237090762 -1.9090019311629314 2.418240793934803
P 9.059733044960712 8.368434475003689 9.49103478416343 -0.38837027471855695 0.4326127894767001 -0.48080271891836557
P 3.6097690169386465 0.7222396614712674 10.81089966471532 -1.3085017616812173 -0.38179622104546507 -0.6292127069250583
P 5.524090309422167 7.034011451462954 9.568812551115874 -0.8696964702405602 -0.4196464591240192 -0.013379506630699537
P 2.4153039855774177 2.934759671545206 8.61757619650049 -0.026389031516490035 -0.26372756433479094 -0.38316507636853364
P 4.294132013721302 7.616646460090759 13.033236322549843 1.146926182826844 -1.2900813501925008 -1.9549578290677554
Ni 2.1427640770133065 4.840795765804211 9.713243050753231 2.732505190676881 -1.9609050477901262 -0.9805508685909824
Ni 6.675723490233583 5.6850799586331355 7.967286546035961 -0.9300708575635594 -1.1575440675520063 -0.7904985224531547
Ni 2.4096711754722895 0.37583777307937494 12.784937179469765 1.345083417459993 -1.0700936499478215 0.7325111473050933
Ni 9.38326816114879 7.575370427307089 12.058461194924424 -0.7991068329474561 0.2747272578794043 0.6996869016862208
Ni 7.392036985599239 2.727751557082689 8.498673292342898 -0.3267442743766437 1.7634839199920531 2.5037911663027974
Ni 7.197222358568955 2.296452629598825 2.7530232861466963 0.08117769722159568 0.5352671685148329 -2.474391115874126
Ni 8.625350599133109 6.010742608754431 9.257975157274599 -0.8183260861883842 -0.16627401277130718 0.3354942526551319
Ni 6.322374781791905 3.967644592736027 12.869148159161245 0.26734587781366864 0.6881681024133439 -1.7634222135161823
Ni 2.827576948812678 4.346280026075602 6.929479242370575 0.27267860288049167 -1.215073786337359 0.25892217252634764
Ni 7.328848290543039 0.28798374299211577 10.141461271612208 0.6074256929569538 -0.39129387612325517 -2.1720435251742916
Ni 7.469668543171251 6.327229683013963 13.389890675124763 0.7864078973235489 1.314209610699272 1.9114843312651533
Ni 2.3050846064820587 1.4644087861830426 5.9798886805246765 4.440325241447727 1.0988257277751916 0.005998897895912249
Ni 6.2333745076516385 3.383350669984081 6.570918544412322 0.016026971555875624 1.1493743872570206 -0.7408448639817693
Ni 1.450115882006136 5.796499004439736 8.026148005775127 -3.36615356477579 1.177847554996049 -2.7296728634344087
Ni 4.8802629261248365 4.893515494325588 9.516768572359188 -3.076999332837778 1.682722741482586 -1.5813366876339152
Ni 5.599509981495326 7.351107731474287 1.0338962027388134 0.8144061823086877 1.2243217872981882 1.0012240806696175
Ni 4.635268489938384 5.423299560885475 0.4359157698429091 -0.6749462044064312 -1.1217008326011522 -1.0514778346188471
Ni 3.598287831616213 5.4723265653113105 11.474139154983932 -0.7108457465165177 -2.0040044500827614 1.7565231724035038
Ni 4.230071685820215 1.7702113287955747 13.130479619131807 1.1207888623098439 1.3923310375930473 0.44156819889777493
Ni 1.623748893666053 4.18116652254474 1.4921979408614217 -0.8230887976843503 -0.3638797457763604 0.03867890462743662
Ni 1.518365671000388 6.095572166593896 2.602474486282006 2.7306033456684777 -0.7443796166079052 1.4479769090921255
Ni 1.0817244776930248 3.2675734599530464 5.042479421995973 0.7617047381499139 1.6170382548005828 -1.3086043486973529
Ni 2.4489133982845575 8.357150110001069 8.900964653644778 -1.137094798558719 1.2804096314306916 -0.31446905655371643
Ni 5.287484167818226 9.318392434779906 11.834112273046753 0.8687199652599038 -0.4812025254599455 0.4060250116858427
P 9.007678756568227 2.5016706163906606 12.587378314837515 0.20992800201583198 -0.18323763720883926 0.1800929209322705
P 6.780328804016177 4.3338147391541035 4.163836024765384 -1.3499201767270042 0.6674666081999343 -0.14489091910984078
P 8.81896555945215 4.238206925705825 7.987300360842103 -0.18833664899830144 1.8764000859675103 -0.6499759076143388
P 8.113655257203668 9.372143126881257 5.562302505894079 0.23953065537361326 -1.354396724441119 2.4711453552433182
P 3.0206576825493694 1.2725370915537746 1.2833144099229712 0.9984812278171579 1.3593134450164461 -0.5676895507095965
P -0.021744896380879484 6.558165524928048 4.138540864710923 -1.7331330756143377 -1.9287428612352848 0.7496907444081733
P -0.1890805950463941 1.7474832680552477 3.0401438314504885 0.9543700964305564 0.3647770607796492 -0.47620301536282506
P 1.465533473724832 4.656937469910193 11.533782272564643 -0.7489636364341618 -0.2093847279178523 3.4833205356078007
