# total energy = -340859.0538266365 ev
CRYSTAL
PRIMVEC
9.37852790195573 0.00000000000000 0.00000000000000
0.00000000000000 9.37852790195573 0.00000000000000
0.00000000000000 0.00000000000000 13.72642358063710
PRIMCOORD
 96 1
Ni 8.413027082271952 7.7856973605465996 9.028802457799582 0.7628565923661701 -1.4079659159168267 0.841741379788531
Ni 6.221321416419292 0.7665989832244875 3.8129811378870975 -1.455957870415073 0.7679715449952322 0.5366077417031274
Ni 0.15451593407513897 2.7617700970883297 11.025447876226966 0.6542678501214731 -0.19977548696286238 0.8524865341201769
Ni 5.945742756781412 7.324592664802114 7.170958312336216 1.0052905374295074 -0.12653401386920787 2.3326341144075764
Ni 1.8577831850329398 1.2692149185309525 1.258114493076712 0.5690213821471426 0.5746222732736879 0.14826652045029304
Ni 3.522725082308118 5.743869946792801 8.11031259041939 -1.467104631060512 1.1230650599385306 0.26065741004989945
Ni 7.623730186167816 4.127377523914889 7.165536585439379 -0.058597240817918436 1.1484948128655446 -1.6896310385666449
Ni 7.419456473073185 1.7314075234953539 12.125222809461647 -1.615061076469554 -1.4785429548044406 -1.0529729311071347
Ni 4.011393271133047 6.438565633403086 10.594191282924744 -0.04314465370827409 -0.6915365046649444 -1.1308354479125686
Ni 3.766322962291588 2.9953798450096447 7.667086182139773 -0.7786804467723041 -0.8794787464383047 -0.2634987361534365
Ni 0.6698088253519455 8.85237359361813 5.641889711659041 1.8864777819184866 -0.8002221774988219 -1.530583368340448
Ni 0.6121318174936895 7.124229797782523 11.999941622113406 2.457971022644889 2.070330941224137 -1.4405011695403707
Ni 3.4393687275959794 4.27605532446074 12.85679955647984 -0.3144376890951488 1.2593666947174635 -0.9316765114877826
Ni 8.367728793201337 3.4805779785641544 13.102282520542648 2.413457513613547 0.9259681482490957 -3.640377914876847
Ni 5.598962314405622 3.663018479038415 5.522222511026675 0.2225235792926555 -0.2979348063441192 0.07476562304766478
Ni 4.033095184364807 8.190559025327012 3.1037637388964923 0.5236357549234917 1.260386137120913 0.4160682548544576
Ni 3.608594882459371 2.3488991696026784 0.3064508973113062 1.0150936395628583 0.37818356399354225 0.7785107539636593
Ni 4.813501236154463 4.275145607268225 9.234574859629927 1.478513901338718 -0.06644630454869202 0.5679530887836284
Ni 7.566389867456069 6.633901609544448 11.295872097009108 -0.19324308516098332 0.8566200966725763 -1.1139037051542364
Ni 5.653310882762602 4.4857498265994336 11.519969204225596 0.4972505800617437 -0.12961599522864128 -0.542744964949117
Ni 2.403069545932259 1.6510898117767725 11.91866730056352 -2.2605915467180293 -1.00693938588684 1.105557132961754
Ni 3.917626750609649 1.5994047453030331 2.913364619766885 -0.3200154402932424 0.40471452040453526 0.00969357313868008
Ni 1.8967415893392208 7.379813436240578 3.4136518666310653 -1.683876652581371 0.028821295107066495 -0.7426153256186308
Ni 2.7448137189020616 6.644058555106244 13.082503205501252 -0.11171134703407858 0.5818175054705463 -1.5124077258726858
P 7.847886378109178 1.065016233658384 2.5429849879939126 1.240134843071045 1.5455073366401317 1.014994909201465
P 7.750124604760918 4.014685134376067 10.685554086783796 -0.45929981184958313 -0.17455502183317678 0.6376207284830954
P 1.8217977740259108 2.5246246442022886 8.816838351943481 0.061268359892178346 1.0660868427812737 -0.8241928293818064
P 2.2790760304451774 8.565306237476834 11.407138012475956 0.14109828483662795 1.756511859549594 1.2591172977108187
P 3.5336229315627876 6.842367524546856 4.788050725377873 0.023862922660526645 -0.24540254077335802 0.4863269911707044
P 3.8502514071969576 3.819592999956411 2.2169404704908198 -0.30076970468975295 -0.44570587521523236 -0.26541420800859455
P 9.21157120674537 5.609503779605491 5.7531828248563865 0.16804807395259444 -1.8995605832443738 0.0937197955526644
P 5.311923093847598 1.2361087155455959 9.377535509654566 -0.37003599518574337 0.07403594397049185 1.1877118493846384
Ni 2.7913593521644766 0.7205072707055546 9.601935543317634 -1.0524679664462584 0.5295503206357138 -0.6354304056999959
Ni 0.4033798573946649 3.483757299474079 4.577158585244497 0.35996344144108977 0.5368900488302366 0.699709270283724
Ni 6.948616865516008 2.7608134872570247 8.84698187801012 -0.6568718634032237 -1.1589861993151718 1.1054242069283153
Ni 1.757376666856955 6.432310155388572 6.202874790172295 -1.1604478714623627 -0.6521214932024317 -1.0422833126037727
Ni 8.561254713485425 6.672100353102339 13.391032384563708 -1.3676386770526898 0.540861631883475 4.220466610581744
Ni 6.8652698893316275 5.960363881555964 1.837528378634222 1.9690970966826151 1.048676103503994 0.7256786977642921
Ni 3.958085719357192 8.190061963355843 8.88671963797308 2.386103804190942 0.04834368141071029 0.7783878552325498
Ni 7.106588787069929 5.848412395710016 5.436583422658266 -0.9582177523114207 -0.03927360078864204 -0.4741129656030157
Ni 8.405674316509765 1.2622372938790813 0.5079129277841219 1.5001890723193068 0.2952305200390787 -0.7758049249967219
Ni 0.9822319691394771 5.265274296779847 13.393790609577303 -0.354303414941835 -2.679980638415604 -0.14585713967785202
Ni 9.102949098253472 3.7642221720738203 8.905360399744666 1.3661402381302923 -0.4521598583706922 -0.29114940799116956
Ni 2.6369043785197643 5.442472200237447 1.44138405540477 0.3762647497042746 1.3113952811789285 0.028539759310905688
Ni 0.5848628101848447 9.241920122569907 2.382316739709597 -0.5965545545704048 0.5278816746840392 0.9927286416040967
Ni 0.7802137919706184 1.3171485739015352 6.737629064399502 0.24816339134794682 2.157276651277762 0.8479539363571461
Ni 8.641703724592617 7.481392270386299 6.611441911269849 -1.595218844932646 -0.17269688557851548 0.4350016014238508
Ni 5.4565118562910095 4.538532180820846 0.822793245844221 -3.1679935019291636 -1.1216422114490747 0.36609166582601466
Ni 2.832878094548662 0.5090805544899795 5.699966244799784 -1.4744752124929703 -2.1123149989654073 -0.747454655988803
Ni 4.801084065403015 5.941287956096414 2.9762317048863585 -1.1477525353828815 -0.7927731774199444 0.5385561236787499
Ni 0.004735218664959343 9.131384794415398 10.748516832886397 1.3046307087615854 0.390049976413825 1.221335965196987
Ni 6.139071727982584 8.165959147018063 12.971511143044937 -1.5628417141535211 0.8215535919867464 -0.5034744494842683
Ni 2.5035979849690966 2.8781294909804878 5.341034044008093 -0.5487279220054292 -1.0554031378151825 -0.9365099283206839
Ni 3.471499563694515 4.767283851363573 5.956114470628864 0.8540484792906582 1.4270337311815553 0.029934325665587156
Ni 0.05776704172473178 1.417705148521646 8.988995296731213 -0.4732557598090431 -1.129258590343752 0.6678620438661402
Ni 5.526166181948868 0.8723493865169188 7.282031967984028 -1.0790673142013416 0.3868463818748628 -0.613884304098104
P 7.554179024315294 4.055969413566305 0.96819981590812 -1.4403186212159196 1.4153249273850592 4.409533452877851
P 9.102733392115042 7.3367753723596145 2.411910684049623 -1.3402669699079564 -1.116066260023194 0.4025907891933131
P 6.165275334538133 7.236631452960851 9.626368483832492 -0.3385646640503395 1.148024043876713 -0.16977996904203663
P 6.9137756348954404 9.291232421520899 5.864298683879107 2.8444731338064564 0.7116808408233034 0.6348863602710679
P 2.4184784670384745 7.798245830686659 1.07472113418225 -0.3884934305599826 0.5460580884827498 2.7244496673622565
P 5.3315992450836545 5.2802518056092 7.068270936209513 1.122574236345041 -1.071210537161084 0.42938631211960243
P 8.05517997714185 8.755831028878397 12.743309054228822 2.7783448747188153 1.3225574684433352 -0.792672647286338
P 4.725352453758041 6.37508237900992 12.505595262560654 0.1365443469173584 -0.14143818467454997 0.7921892798920163
Ni 3.47477266988202 9.210614596914064 13.356948938985978 -0.14316673732988247 0.5218136141130884 0.6788193142085922
Ni 4.346900723143852 0.184137076145663 11.269832614689323 1.5512483528889671 -0.8805665801858449 -1.5484736183573076
Ni 4.572435558665624 7.499661642458672 0.8854268056225224 0.6289314282392137 -1.4720560615285163 0.07062434718578159
Ni 7.524758582738789 8.66953919497804 1.4648425668855838 -0.4798007600164123 -1.27625961381806 -1.598811704490227
Ni 1.0443178228967178 9.011433424391969 13.680371220127967 -1.4748184547650018 -0.9251464236787487 -1.7686852616873345
Ni 4.234574096187587 2.608140433886311 11.191509715824845 1.1235895649834327 0.9748710445973856 -1.8042657298951055
Ni 7.63358701884136 2.3578650421392227 5.6200508719220155 0.3779200259195104 -1.2985099405758282 -0.16989592579461063
Ni 0.23844250327495708 5.687626915828726 10.424792563150609 -1.854521026506232 -1.6156866258686948 -0.32178615904042
Ni 7.754382456363 0.20010026824236987 7.9189521721946 -0.5809885818113478 1.0297458422583943 -1.3435294427093118
Ni 3.2312498181206126 7.923964995281192 6.83548462302534 0.3134308450971892 0.8490718520116732 0.011647611541257359
Ni 0.11854646656529827 5.265142997391236 2.791295578175723 0.10570010784299215 0.7393281702269267 -0.2713814813356229
Ni 2.304463705085789 5.097501813718929 3.907322562162054 0.3579379263706287 -0.9631470712922381 -0.16022677813596276
Ni 1.2554097256713364 4.05843596636663 6.853356345520777 -0.5767280067627809 -0.4543563518013788 0.8734122285292507
Ni 7.138372617641424 0.039218189525174266 10.385727243627889 -1.6113064945231281 -0.3374788871853284 -0.26704634429537877
Ni 6.6657792253935195 7.795451029414807 3.3998429223603464 -2.165559717222161 -2.0230676373617995 0.5984476578280598
Ni 6.135967435294722 2.225665314863986 0.8863862290121547 0.09272015064355645 -1.0905395765069992 0.47739600722966175
Ni 8.307462373829129 8.928771080733913 4.2258445625505425 1.0567776495652057 0.7973895931460331 -0.06629229546933099
Ni 1.944103154516572 7.332442492535469 9.766611236512896 -1.0969195118914141 -0.17794322157911935 -1.3278495700802098
Ni 5.13774507632804 8.46454333524605 5.462470972828373 -2.5854149499228765 -0.24937798048133822 -2.2752540338262106
Ni 6.530719047152126 5.880796452058013 13.171615162698409 1.6198415285773329 -1.0706878318883948 0.8645864027075045
Ni 8.133471926864727 3.3874116838172617 3.164022655446496 -2.3954297095775585 -0.9565863873555848 -1.5744363609696561
Ni 0.5358412455943466 5.8729372457969005 8.21526394314685 -0.15282740034809808 1.166516703364262 -1.0874025735399142
Ni 1.5731261105254215 3.4172072665040822 1.9999944906897256 -0.14337139714152083 0.3407768412103099 0.12578942239369947
Ni 7.4481735250678485 5.527216577057752 9.112684010066163 -0.9311085547994545 -0.10807760693623324 -0.5752375382601835
P 1.1138033350549348 8.430574307706967 7.746809295198504 -0.19151581805723147 -0.25086433521887763 0.5908770445696533
P 2.073479944936683 4.999571226871026 10.939670923500517 1.837927640923925 0.008161195654553687 0.8668554012473394
P 1.5732105172752426 1.8678557238449154 3.612945581486257 -0.21522807407250674 -1.07008645085897 -0.793096365087318
P 6.3582104075734724 4.62622141535713 3.6796015918199183 1.0005003151297156 0.29268898456414755 0.6582777426118147
P 0.9472969532413318 2.6070056320276063 13.439568141416348 0.8004322366270988 -0.006948920514007388 -0.20190667437325224
P 5.188492290025991 0.06562812369139631 1.6707669008656043 0.6212937091882977 0.5287386233676958 0.3010360709772622
P 5.152928912768067 1.5209064679694826 12.750529582749621 0.7846716313587325 -0.22905649531516678 0.2593554034090243
P 4.240717031869006 1.8286347207614135 5.661120382826598 4.0944779276930445 1.7651448526342441 -0.06691707353752346
