# total energy = -340873.1176435776 ev
CRYSTAL
PRIMVEC
9.20217848617705 0.00000000000000 0.00000000000000

0.00000000000000 9.20217848617705 0.00000000000000

0.00000000000000 0.00000000000000 13.46831838497775

PRIMCOORD
 96 1
Ni 3.9637647261558207 1.0326868638272064 11.738460718814382 -0.5736431971898701 -1.1116948704283758 0.3294377620484068
Ni 4.130572613919323 0.45484159282944187 8.650067935954397 -0.6483175460753093 0.8012914993036007 0.2569624776968155
Ni 5.324895741252124 4.1962301567666005 7.086692364313851 0.15456083809943705 0.09096254452250141 0.11104491709467328
Ni 8.762406289363085 8.683147926848216 7.850157536367716 1.161592012369135 -1.1043970512153818 -0.6111000564847475
Ni 0.9402785883860914 4.9404471322719505 11.83168890835048 0.1887246284653395 -0.44685644387990786 0.386834811910637
Ni 3.6579855402732466 6.867935418857884 3.594020278032783 0.39408635126672775 -0.43024094681041386 0.7186701276569428
Ni 0.9998995022063447 3.7262380974278724 6.778133200338192 -0.08965411012372303 0.6033772339191932 0.13664719104380982
Ni 9.055983386694084 7.317811516225463 12.827495281606794 -1.0379944554204317 -0.2542692471353686 0.6579730668872023
Ni 8.253525824127708 7.321188715696374 5.567277439301197 -0.23830115384188635 0.9106721413219736 -0.07519551149623178
Ni 3.5172198173671783 3.3316578900349656 2.5193567572396143 -2.2109376311363276 1.4014826221853285 1.8255632058213012
Ni 1.3091295049869889 1.7631833913458312 8.257641038305886 -0.9805141018157758 -0.6734781045013368 -0.5929840636103272
Ni 7.771110823955928 6.468238800277439 8.512407948256593 -0.6468697578851892 0.5352226884301428 0.4670606867419247
Ni 3.9692124157655737 2.7375468485064585 9.838363636438569 0.7719503271373221 0.2385310104645053 -1.8929230233231982
Ni 8.22556040398575 3.8305815982471114 10.935924017513813 -0.6252555220495232 -1.4356230155124632 0.14774998582519072
Ni 1.1011050601929393 0.7947636212104395 2.237046807135274 0.35186163826956174 0.44643478296145694 -0.20167707486094946
Ni 4.982740344174696 3.570325588883876 0.24892168623429523 -1.6179283707150198 0.15411963679696036 0.40688555991392505
Ni 4.6243339000519565 7.515097018832719 7.994026233828529 1.4653812206115022 -1.029135462367905 1.0153088408974578
Ni 7.4822360397846985 5.220405005578567 6.616783124580677 0.9502609593581892 -0.9909265553983514 -0.868693997117975
Ni 8.631229236344454 8.39650006984854 10.476358026296452 -3.8518794320273857 0.5655820174482905 -2.4667850213920937
Ni 1.6665605181998733 5.183430652788047 3.559892159019791 0.5504315349600972 -1.1569334305512011 0.3863326754632379
Ni 4.658151905653042 2.644356387901781 4.722356424531771 0.7550543227129319 0.5684331137438404 0.8352385456730067
Ni 5.51281342625342 5.715178531334634 9.435607293541835 0.8796384119446204 -2.4296904305326414 -0.881260778039392
Ni 1.8549199077641219 8.930336842890759 9.423001229358727 -0.2818029337792631 -0.8182011305747456 -0.7616096073329464
Ni 7.929259461849874 6.23736534652897 10.992545021177342 -0.7191488670655743 -1.0191068744873093 0.03942838119895145
P 3.0072442929028136 3.989742475764491 5.206568610144066 0.585301607364405 1.8386627193177365 0.1880563987537213
P 6.744202928160689 8.356995117999437 9.018237891354076 -0.9712653295239982 -1.2080130228358357 0.1980775304351492
P 2.451902028951823 7.7969965517806505 7.6166844672227 -0.022330030955767997 0.2152473573462164 -0.7748700718872784
P 0.24699935116761043 5.499516278472858 5.278786385969034 0.27443569478091445 0.29920544552642664 1.2207991188569105
P 2.2776495788668845 1.6383558414196486 10.246467365200553 -0.9664234280506646 -1.121602873570707 -0.15693268076572328
P 1.0677563656899915 2.893634198439957 3.0268559754979245 -0.17907553541134966 0.4139524940630355 -1.4928884248928351
P 6.478710879290783 3.286208330942786 9.49256509693462 -1.1293532069400873 0.6496213524883974 0.602377331899769
P 5.497657438437097 6.963536850202014 2.5465353911288133 1.3244300028756997 -2.1509964746960053 0.5244022007758711
Ni -0.08132977287155131 1.0096630134832838 4.616804677689288 0.18083262731177244 -0.9256585874284768 0.35797340759425444
Ni 8.275739882772884 3.393735785486644 8.38443233310153 0.7755506428940707 0.2463026839901242 -0.7924517895247837
Ni 5.826202813668537 1.9507882022817018 7.881080536645781 -0.4639514516889816 0.596526786656263 0.013916610081092162
Ni 5.555631162324671 5.615933037346144 4.855194470750674 -0.36707896943994844 -1.657803609643403 -2.12313677217126
Ni 5.375102826574443 4.676473442837194 2.348928732495577 1.3472246321727122 -0.44652194335862455 2.2764336559566085
Ni 1.635954072858592 3.757258640796922 0.8851234917408602 0.16664785117095815 0.4540519331870826 -0.0860486521606518
Ni 4.958612232423391 6.062661989702683 0.6500538446443375 -1.6475374518307047 1.4466178239610699 -1.7649903293342506
Ni 3.2851868891409572 8.571424278956304 1.8170915928185598 -1.8773544794609798 0.06941181493491917 0.4917677025703015
Ni 0.838529181656361 7.646623754630355 2.9775221769052775 -1.5815112655385668 0.9243457821543241 0.09055939554681179
Ni 0.3587809727834097 5.62430701968546 1.6223937427759365 -0.5113813630361709 -0.11342318751886271 -0.8994847572465863
Ni 5.994814328397432 4.926082531797586 12.03106054479985 -0.23686416428504367 1.1255232916710358 -1.1799082941798196
Ni 7.11969781756267 0.4317551676724343 12.651720791215347 0.680852542588537 -1.2965926689484573 1.6431467789621768
Ni 3.578561538547269 5.75555769013125 6.29332747421943 -1.0075865325525357 -1.3060525288097766 1.1473923238299852
Ni 6.818289666417652 0.336517222374902 6.156691688976971 0.5541534638963745 -0.6859474406129412 1.2870767590382222
Ni 1.1635602449588074 7.198560486406563 10.9586184298712 -0.4713217760111238 -2.1023599446352246 -0.011586933506651012
Ni 5.027959848807004 8.297328193287209 13.001048366133725 -1.5736208070468962 0.8844625728061413 -0.09218150453126704
Ni 0.9015880293249313 0.2674622352642453 11.54124423254509 0.9977109253100365 3.0404557293857897 1.0163514232293593
Ni 1.385415563880321 3.5941316243913604 9.665942419854206 0.139112878975483 1.337747288809896 -0.17736600891941065
Ni 3.222989365370145 2.7126917646619604 7.101817064723631 1.0489306427169611 -0.18407453128783782 0.07548347505029582
Ni 1.784688882254603 7.172104223521359 5.0270359500961606 -0.8587284012648309 -0.2298396533380945 2.135156936560587
Ni 2.2352919517153755 6.5344944847203825 13.132956992334746 0.18998755433816314 -0.9556193954566253 1.5696965322918255
Ni 6.622853801667762 1.2601095006776062 3.9936929709494016 0.929402113631309 0.0971884708275552 -0.4865753597360846
Ni 4.970483042552751 7.463564819821542 10.610839581576675 0.5207399214329355 1.431435974014309 0.8522898447283387
Ni 5.576878992238387 2.6938365011309062 11.434319520686094 1.2607072679057578 0.3615865788668095 0.2352022032015885
P 8.010183418654211 8.54320119781929 3.634856785095623 -0.2869865348627315 0.16608040870326235 -0.843111006442548
P 4.626247953158086 0.7866914703224744 6.405869195770643 -0.470398492865906 0.486250115186182 -0.28255112479919725
P 8.769519573262308 4.173197104244283 13.432829299905663 0.4731781124935721 -0.10977787745679157 -0.16606446786366238
P 6.691474445958181 3.51115558180497 4.149588915572287 -0.29946152740129073 0.9699342694174004 -1.1586524701248369
P 2.204308217059905 9.189819869268828 4.051310570533095 -0.7611846039803858 -0.5320982838685482 0.2579047870054268
P 3.071751563450734 7.723351518086641 11.539318216607047 1.5492169242812353 1.4396642754613722 0.08004589760999763
P 8.7073128473131 1.4077584530230245 6.934190183082987 1.4299673598885823 0.1711179711271698 0.3193490103538371
P 8.234698167131839 1.4779710741757537 11.15898666224073 0.22845280029289688 0.48792904555050165 0.24969679727333774
Ni 7.848740400894909 5.548112982576077 3.7589131924723165 -0.17405828470241638 0.017769151057962944 -0.7105205019666151
Ni 5.422512449664726 8.909806782891842 1.915692934319411 2.795410057731218 1.3673599694700065 -0.43529187897076
Ni 6.016991578329026 0.5013402002586346 10.681911686191484 -0.484850663735494 -0.5803524908892457 -1.2206001154722268
Ni 1.9429847550028663 0.4354461614266099 6.347699465483259 -0.10012467063774369 -1.5026583597954057 0.35137312866891746
Ni 7.039813706916951 5.2200277162643784 0.6737246081294181 1.2815967097602572 -0.5768113105052065 -0.022085776155445835
Ni 9.033539273589037 3.369580067200155 4.787098350628761 0.3835144892881524 1.3008558151001854 -2.0976095744344327
Ni 7.993297421299657 3.4755431514168884 2.252576403394428 0.4130464373089983 -0.3790204580725408 0.306518177137756
Ni 2.8792972045007756 6.606345093627395 9.638467475820693 0.10465983950393587 0.9024723791200007 -3.355094221637835
Ni 7.314195060116287 2.6914255303914545 6.050089973579635 -1.842988343276284 0.6557207805179158 0.8410950044537837
Ni 3.020375801472269 1.8500611575716395 0.9279108606234087 0.5045239737947053 -1.332458786717447 -1.2039249688093911
Ni 2.1210745134784585 2.1860418929461214 4.814654273832148 -0.23363151628035894 -0.8822365116890999 -0.8136253382786052
Ni 0.9126067177349285 6.23452187340496 7.7740748456169095 0.4488665323314011 0.2238528396270403 -1.3886319914749052
Ni 5.346916554151008 2.123246227579644 2.209693331856573 1.2447121780290822 -0.23757121765439726 -0.06776168092600589
Ni 7.87818737175844 7.237678946763083 1.5249905249020952 -0.8269490519707049 2.0923426696085383 1.0853577751957437
Ni 7.630115046589989 1.0558487468470517 9.093943292790692 0.980170602433428 1.8168507656489676 -0.054039446243906934
Ni 7.92949871848814 0.9692838546866683 1.7908552619969942 -0.6992963511160215 -0.7006248401194578 0.03491532381994632
Ni 3.9180943147821647 7.892027448064298 5.799256074674889 0.5940091624407319 2.6611853600859714 -0.33018518173739264
Ni 2.3009771010978373 8.877479530190723 13.20046049216803 0.2351950041127369 0.8616039230404129 0.9294663912103412
Ni 0.31307099204265576 2.0080073475408984 13.337527859577207 -0.05445570784571912 0.2957259716182584 -0.4901489360199558
Ni 7.029415245330767 2.6350989964365588 13.391953223475726 1.2643536064090937 0.8048545340645107 0.287975124028246
Ni 2.413666977721208 2.826550317941478 11.969307486245507 -0.42515350498517746 0.7924487042009901 1.385901994138252
Ni 3.4616846707542397 4.868338862369882 10.722586234914575 0.536452961292818 -1.1252864930698814 1.7564444966467685
Ni 4.228980709673882 0.48007488620596855 3.8613941723844376 0.025786107825168495 0.042380778959056044 0.5961462633883926
Ni 6.0487482959696655 8.117830501517203 4.44834315846823 -0.4037588413594853 -1.3774901159254729 -0.5243510358229615
P 5.969858020590589 6.7704199344076255 6.429788418072386 0.6056675726152666 1.3013435533698814 0.9955995353939885
P 0.18325586142646288 5.451020798331982 9.586924234195443 0.3383620611212302 -0.6439831803660135 1.0744241590023753
P 6.660720765762583 7.177303454314451 12.44887441220408 0.6588004478845041 -1.028023717360965 0.3908668158881656
P 2.3676008726765736 6.621363048767796 1.932057168158978 -0.4730310453927466 -0.8159712128029624 -1.4640941263689624
P 3.3846256288757397 4.747321014299168 12.8691397399327 0.04503467164213534 -0.9060783513037042 0.16998874261873306
P 0.09346652595652309 9.138499320360731 0.3053190769628315 -0.014703110538129517 0.05026892345788117 1.3627587232525693
P 3.696248198039046 4.704171999805703 8.5007717936763 -0.03844776245323701 -0.29200301424071645 -0.4579301851955662
P 5.093092867485774 1.2941023476681937 0.23999097210209028 0.2365700300833926 -0.34896143390363127 -0.6462004997323065
