# total energy = -340861.3294436475 ev
CRYSTAL
PRIMVEC
9.34634081867555 0.00000000000000 0.00000000000000

0.00000000000000 9.34634081867555 0.00000000000000

0.00000000000000 0.00000000000000 13.67931453073639

PRIMCOORD
 96 1
Ni 4.042572679905206 7.697889085287967 9.26487598065479 -0.0550383198220665 -0.34510349361012177 -0.5066693022724823
Ni 6.013958907638971 1.8743525201001305 4.973853268333685 -1.2234183016473124 3.0083925303026575 0.7661401482134482
Ni 1.5019943124210717 3.3970676695298483 5.243800818658283 1.9504275452975701 0.41895766058711076 1.633150072760781
Ni 4.25736093218112 1.6697798180499488 6.542118743088319 0.7544889371277652 3.985594279915749 -0.664040870347837
Ni 8.682114823687842 3.1402489237817264 4.704903907180276 -1.9154299461764621 -2.3611887861168173 -1.54805504276265
Ni 5.085857944267027 4.482916168775466 12.306594847680154 0.342726508737513 -0.20460016204501538 -0.2096338678141809
Ni 0.8560967557424388 3.9540815275381034 9.160311926436641 0.6064039365606588 -2.0341696608122324 0.3423429001458491
Ni 8.73558523799838 1.5954016399196789 2.1722203935622697 0.1505180354886311 1.6429503466806543 -0.37800384388256836
Ni 4.487794958544755 6.275506901707514 6.799727254613272 1.5344428512958541 -1.7497285180791737 0.3284190909759054
Ni 2.7193925549669586 7.353682055358139 6.315355959294372 -0.14933558514475573 3.2235154462558677 -0.5599926962859711
Ni 8.853975333798347 2.6784462369990387 11.139379911471895 -0.9685373890698739 -1.0610654783072824 -0.25447724938111654
Ni 4.518450955562509 8.879070258186356 2.127133646728841 -0.24482044301764286 0.04626494450481064 -0.6701073882568912
Ni 6.807173484132797 8.588670110827017 13.049997167556352 1.0228280320926384 -0.5012185635705562 -0.2772492529703096
Ni 7.821466400095511 7.420536429342283 3.427858253851583 0.429413308702796 -0.35961068608736135 -0.4906346174071227
Ni 1.2125942235010319 6.583104315686567 11.88352152688593 0.02400741865819091 0.5761250830714594 -1.3433882891457574
Ni 2.9189930038423095 1.2457083080845388 12.275980909194896 -0.7809214202876809 1.2686545477772926 -0.8775794725330629
Ni 1.7648040624644314 0.898845048169208 9.803403711680906 1.1899636215332925 0.5406472018798238 0.4659548552722556
Ni 6.474041867759687 5.506032030221339 10.407646497777609 0.2534827466783312 0.6774301471705494 -0.21061011568452115
Ni 1.8290788464556187 2.5712810962046584 3.1900845462507403 1.0369778412304593 -2.4042982157117816 -2.048149262920776
Ni 3.0570571465088525 8.40934187461371 11.393473264314416 0.6074501184369862 1.0266813444004577 -0.537860383163306
Ni 8.484355603901667 5.3721737408041825 4.9396690277567235 0.09098285623747555 0.8943186396646147 -1.5205249556631815
Ni 7.42619096537757 7.954147050602838 10.523400925541292 -0.3444833435276196 -0.43671472746021567 -0.19307776322771264
Ni 7.256788542832817 9.01834007878439 1.7024592977976853 0.07376520680760844 3.382847223381387 1.2405670455124571
Ni 5.7572803569991615 5.8516877429370675 3.7141936777039026 -0.04066148227510417 0.4438819346326162 -0.363329015479213
P 4.1236615305533855 6.350688865125444 2.2061448058718245 0.8071484723050099 0.11846923458320241 1.1353215087083801
P 5.974666891949142 1.463020072310086 2.7643017213298573 -0.5078584374845769 -0.0375617603038579 -0.6901709917759855
P 8.722874214844678 3.9189112480326744 2.722388991748633 -2.617734230880872 -2.4339103821512595 -1.5990071083304849
P 6.977977857760679 2.948368552204139 7.332892055429391 -0.5096227284738513 -1.196569042664952 -0.09743786783419993
P 1.621907861731371 2.650089439757616 10.93576334006041 -0.48661855426919426 0.6182302397716256 1.9105322517645293
P 1.3424803181826555 7.601659162941994 7.842501274146779 -0.9438823095253551 -2.6596506686090002 -0.44828083503126015
P 5.389670090321632 2.5793750271245894 13.316320207014034 -1.1263902676570212 0.2590121611369926 -0.2522185352539269
P 2.0769157589311606 3.8858252024708304 1.3326358176769237 1.730286864414794 -2.1216686722661655 -1.6713924040714314
Ni 4.054479917771248 3.894564030889001 3.3101205326222995 -0.02212280004096835 2.060299525130065 1.3797490871629787
Ni 6.517577122061119 3.6480449524316 3.146925949473642 0.6477346769886457 -0.8329584913895783 0.3030014222337491
Ni 4.085350880621748 2.5632899750308233 1.660354033601045 0.27773724835032165 -1.866339873518031 -2.4886692230596945
Ni 7.041682514978059 0.9224305385577146 11.496957816198554 0.16306424758475788 0.7321740756806486 -0.7239226343051339
Ni 8.4844303746261 8.41994997114272 5.4973875998427655 0.8236217873696847 -0.3719769209621981 0.53137426121833
Ni 1.8011426345391348 5.965750483060441 9.595847657725825 0.35169323101249755 0.2198048948099118 -1.2306626419145514
Ni 1.2308382802628173 4.652131664509135 3.0982960049361195 1.2535359469682992 2.1862982353210927 1.4001592753882144
Ni 9.843846261892955 8.889949398591437 2.6096440856434002 -2.1117601549032017 -1.0183026334184593 -1.552223829428359
Ni 8.638140291380363 3.497587562190197 0.29091232682170814 -2.4312665167705094 2.6858214134670972 1.8096815015940382
Ni 7.159362288895907 1.5651942672485264 0.22229523300904303 0.2131454805118652 0.14455873258140267 0.09527299897239722
Ni 1.446495742210272 9.665891937741113 7.5871770082532715 0.2629919717203471 0.2847077661308839 -2.413060535285444
Ni 6.312406254215468 4.895987035908591 1.0580029468325094 -0.11527618156720147 0.8010590715778204 -0.43204303301615915
Ni -0.0128988845988421 4.761848356274809 12.142210475378949 -0.05354605154725617 0.3004899686658051 -0.882192545825042
Ni 4.413313970668389 9.127897882760644 7.520175896722426 -0.6164726336505706 -0.95936009344598 0.2727562501959625
Ni 8.45750356748947 5.084035407858959 8.515359284788037 -1.484397870923321 0.9851536574703161 1.1734977626677856
Ni 0.9003488743643777 -0.04473532442859056 11.902070274349784 -1.0468781310633066 0.16268809519226177 1.0020038962584354
Ni 6.130844242609712 4.711658507498791 8.00695387473403 -0.16520006298083809 2.3043270399327667 0.19684982867563516
Ni 6.803107825991723 3.149903693574208 9.733475326288485 2.32030567474921 -0.1931096449069126 1.606279473622182
Ni 3.5954437477926002 5.4622257320438345 0.26111712776899554 1.0146331549866718 -0.008292579026095396 0.45078611795161716
Ni 3.6833180416831253 6.242579743935091 10.9663912980565 0.37285880934651916 -3.0359928085184293 1.5250801791340316
Ni 2.919880906194958 5.7650752050213585 4.584867920808716 0.4990053579693212 0.152069439136151 -0.8621603097645151
Ni 1.353826775615446 5.63883418315587 0.5051416679324824 -1.643369436495944 0.42318506840489695 -1.214342050377657
Ni 8.90961409911746 5.868081224269122 1.9757033024357467 -1.0058170993569386 0.6699389809998268 0.10971668520155298
Ni 4.835366671074093 7.578489584708149 13.549059975592389 -1.168413920386975 -1.5545956720946452 0.22901175812016042
P 1.9130744090161533 2.3218646521754573 8.109849607163254 0.4811104799667714 1.7273928306964508 -0.17268043051828327
P 3.7186845943401927 3.873469340258187 5.421303714561355 0.3655710174358543 0.05695507722880514 0.8216368957291721
P 2.375054676269371 0.5424961872254266 2.2846372431140503 0.9854963855217158 0.0055049889786292295 0.040266303719214525
P 4.3823869297745635 5.265419838994187 9.045693079050292 0.10815191181759437 2.185015511953927 0.9410438116352954
P 4.210460995280179 0.4736127227069669 9.932057958677484 -0.6131559105725117 0.3930949338877359 -0.5263760366727902
P 8.901136968234807 6.28441396425566 10.27691269000772 -0.027840162140719795 -0.5714366764568547 0.5844487724458064
P 7.314548927457731 4.228013422840954 12.129543380025849 -0.7756822833759286 -0.290064659567423 -0.36299888583330386
P 6.9566401622754555 7.1589043182087515 1.253971407768501 -0.8161445051560332 -4.00573913029474 -0.8396682993095861
Ni 0.5492732187612721 0.9909551035988932 4.3642755910486475 1.005590328058113 0.2516678049567795 1.4323492298571978
Ni 4.963233956196011 2.724271344736248 8.699155071786247 -0.9559058163487925 -1.685366863973652 -1.071664079758735
Ni -0.32621532436300693 3.731189998001703 6.808345515238293 0.2798257554482342 -0.11468868449484763 0.6507269268477502
Ni 6.410449366628956 4.496533786962925 5.736707192171271 -0.21683887020305237 -0.7951092817522887 -0.6349452385334613
Ni 2.145209469360651 7.280902101462636 1.9146931952001394 0.9272346736663452 0.5034112003465008 0.03148084421710062
Ni 4.679189320413524 0.5356808356933088 -0.19701057790778406 0.8555224927330234 0.7405671848403504 0.4697899127476296
Ni 6.782835613329677 0.5532229822794742 6.787798520163954 -1.1746401038023448 -0.34847626673709664 -0.15498147057662343
Ni 8.497141397779803 8.610503162361614 7.947790604391931 0.3437827179161692 -0.28772521280096897 0.7692313855442623
Ni 4.452260171757712 7.79367038328734 4.27812382772226 -0.45621500227667233 -0.1579922323784892 0.5829451913170863
Ni 0.8666571859346218 8.13108262363427 9.785032544687581 -1.224863261623955 -0.5614628530735943 0.9195013095778294
Ni 6.066223644018018 7.576676394640635 8.000456298780755 1.5371111421566366 -0.2753533214991774 0.19719332805798298
Ni 4.829581286271048 2.2610293215082136 11.015486690353622 0.7472327697859841 -0.5218899758769786 1.24769157237238
Ni 6.220372838778329 0.5834275510484606 9.08675809554325 0.5054917370246133 -0.11462389269518324 0.5911716929919367
Ni 8.663394103557792 1.7685612913672173 8.274029294606324 0.33507721972237126 0.3901160537650701 0.35670971039048244
Ni 2.189856938188032 3.9912051922193594 12.564751054761581 0.8128923167673227 -0.5251509060164375 0.013462296152492944
Ni 8.033955452595094 6.500538743230825 6.8180572977081555 -0.8273907674938138 0.16343937153598947 0.4270867174521483
Ni 1.2186319594990407 5.66415341971718 6.22422446572071 -1.1926257417464878 0.08826417175473185 1.0167072639068813
Ni 7.502344948213136 0.6363044727338089 4.100361103551783 1.180727447647005 -1.5937191204586683 -1.3645091302847727
Ni 2.205820487854594 8.449783490191706 4.06629930003608 0.19324128538877042 -0.13604581001438507 1.1319973294311538
Ni 8.53025548236331 6.631396857330085 13.523424832720346 -0.2893072125761082 0.5280004596500907 -0.9565377935058366
Ni 3.2292821639009714 3.722628750054062 10.107330817724327 -0.12790364052322487 1.0159917258970954 0.3974241573907091
Ni 0.6397691611772482 2.03741812374914 13.452360866950594 2.202725527639181 -2.018971098694923 -0.8567571364710729
Ni 3.9783633202978974 1.282299231354205 3.853996239713525 -0.8890237098142625 -0.3543165275679575 0.3353122185513129
Ni 3.393899260081977 4.040460406939958 7.677419664840229 -2.038704572568108 -0.19006160210920814 -2.0572532821045733
P 8.660823859905388 0.40074117467403303 10.00729413087063 -0.6040498345061854 0.26565177794069733 0.6061625099738142
P 8.969982112756995 0.09590280042657691 -0.006514399366272693 -0.8294116545785845 0.07961909448522417 0.8755411019467954
P 2.933507870722972 0.4095201923565867 5.72472424894674 -1.4446262474523377 -2.212011066706165 -0.5733279799422965
P 6.412608371296974 7.882516696595501 4.943225310337594 0.49482140179496076 -0.22656509635188077 1.1159649585586393
P 0.7094638880558118 6.576374950487549 3.9271668706441933 0.35202078955524535 2.041017279861685 0.24101983832463006
P 8.624849795112299 1.2443063570014097 6.081289944991378 1.328013863572216 0.17644118311229615 -0.23863925390759544
P 5.303936108418018 7.599528197295638 11.303395103321211 1.488358912453598 -0.0667949461373624 0.49412360439698766
P 2.401028156669474 7.562488649679371 -0.48841171834047653 0.9479608504701029 -0.05514707748578889 2.8228694394937515
