# total energy = -340888.6195986189 ev
CRYSTAL
PRIMVEC
9.07597632890371 0.00000000000000 0.00000000000000

0.00000000000000 9.07597632890371 0.00000000000000

0.00000000000000 0.00000000000000 13.28360877109463

PRIMCOORD
 96 1
Ni 6.468212483262444 1.819016288103596 11.316745258107291 0.30133251917175846 0.8562573140165188 1.1037398772473572
Ni 4.575208834649617 9.480129743953224 5.791746372861702 -0.29593705918780006 -0.546052174945479 -0.3650218298006036
Ni 2.302865671826314 1.5104875426238626 4.787253596644871 2.135247953612497 0.4753959460804974 -0.7680206530656127
Ni 3.56962694125159 4.231674047770951 4.880291431848517 -1.206108349613955 0.911962577998623 0.48765548017414073
Ni 5.06028347520118 4.500350180395429 2.7854798151460254 0.6851570835011619 0.8516504113721269 -0.33238578893313725
Ni 7.155754007798295 5.929489745560481 2.6811768778982112 0.8873303812722396 0.2909884569332731 -0.1807863474548693
Ni 5.316933938949957 4.2778072363711 12.18911904426857 -0.15740422108550314 -0.4191669483844394 -0.5398023373810251
Ni 5.350424292271725 8.152078405156159 12.735593573507694 1.2231527066907517 -1.3590349945440787 -0.5080165603289961
Ni 1.785008604120759 6.418303688434149 0.602680236570032 0.15178121847177087 0.3503153768283644 -1.0211984669090153
Ni 2.769688523616338 1.5612404032675842 0.3180013421631833 0.3535400544132492 0.3927079828619624 0.3324528947256468
Ni 0.5144327017683451 9.122173230400225 4.642435500256576 -0.837352506692216 -0.14279932668813472 -0.27567753760781555
Ni 8.53255241643038 2.4937153058778474 1.1963362296962063 0.6689583622541124 0.4643306894052713 0.6302648023386566
Ni 6.826504807946312 0.7096378969470106 4.616000811073652 -0.5472927322207994 -0.5175892916190957 0.8810064959367409
Ni 0.9814942517405816 7.749558846939233 2.6082895257419887 -1.6913670474211449 -1.380801182576577 1.127381170815381
Ni 7.7068109975773 3.9481586935526796 3.775175119261011 0.6161245062825325 -0.3338001527821606 0.24612167832756968
Ni 7.701474323389441 3.945136393374861 12.617329969192253 0.35265302382260555 -0.34268588530756466 -0.07931698986377309
Ni 8.1418225516999 8.744304024384363 6.754131156060553 -0.740614236028202 0.49749303508985293 0.30957830412031845
Ni 7.242983218035564 0.5716830539955503 0.4299017793474887 -2.891763177141671 -1.4755378494295297 0.32391966044365506
Ni 1.9759580739139022 6.368531033253503 9.28793958817117 -0.23380815106753927 -0.2574399315538663 -1.6275962328220872
Ni 9.183345312077385 4.825996217572956 1.6728177356881349 -0.0708644882210457 0.20333415084839818 -0.3418358786024435
Ni 6.333062117052562 1.8857247154518353 6.785586675448789 1.34637668235012 0.12861660742984946 0.9958700154465557
Ni 3.5967550350398736 4.658680590611761 0.6261416358482903 -0.6806226859659182 -0.07797615956516248 -0.5635762998721713
Ni 5.959867038939332 5.6174032172888415 4.885405744611881 0.1890665851857905 -0.03134354730828796 -0.19293995209826773
Ni 5.1294605681601295 2.5594344517865006 9.241194678754248 1.0071335041755172 0.5107049057944366 -0.01918274357603793
P 0.11045554172391903 5.736870296089505 12.40748885429362 1.5516201344060891 -0.3339801300034506 0.2755119585642287
P 3.9909700747501815 6.016655423962179 12.193821307698384 0.03248074623652471 0.32719293187828813 1.645642805911153
P 2.4495516041803604 8.503137176561586 1.4452303639195667 1.1051776381351484 0.577913799540766 -1.8516313636632626
P 6.2481019009427845 7.880234756729702 5.9961809285533505 0.37707850385482156 0.14451373827608016 -0.46354213206570494
P 5.002814391940085 1.1650286487250838 12.962119056024598 -0.6874217111656226 1.184776163795082 -1.0702656567493114
P 4.2607988563914265 5.914704979825749 8.463691167453977 -0.490273120302646 0.07994793857955264 -2.178660516270177
P 4.56172193355581 1.1086940625277342 3.5991411092643433 1.2822070896507465 2.043821067859067 1.379681724260153
P 0.2260816672655648 5.8603126526015314 3.6320705672377964 0.25853573572120636 -0.8019347893145543 0.7309684854083218
Ni 1.2009695157045432 1.1382545180206884 2.249685895063828 -0.09493978400269457 0.4722327178611674 0.8898634321067384
Ni 2.1362307431033654 6.480637495104585 4.892937897517501 -1.005033941334011 0.6558069124738191 -0.2871819387029893
Ni 6.211398651936489 5.748414938210178 9.458846579037356 -0.6905862249365332 -0.1562279413892148 -0.43176098299936616
Ni 8.735073756273728 2.158376125787679 10.029496786906074 -0.29278025872637314 -0.049306559544611855 -0.01458046891733618
Ni 2.6030626708699 5.347574435647596 7.064887146175832 0.32888163243462065 -0.567486433559855 0.07274036508751988
Ni 0.6096750916662617 9.081785134930882 9.077354243198718 0.6345523739704169 0.2938549798477907 -0.13714855616026056
Ni 1.3266899423205716 0.9085869324360367 11.490773477295258 0.5513656167385923 2.0469686123491133 -1.2568454709575063
Ni 4.265581896012178 6.843948834798464 1.4159394649289585 -1.8968457554163718 1.0596230894338008 1.0768937035887904
Ni 5.497082996696242 7.9004832603234325 8.290924509000897 -0.5138622204764957 -1.198586844425929 -1.0428286435842815
Ni 5.455387960609464 3.0483573063782883 4.658136939618814 0.6876662230762608 -1.547118904101626 0.30324670547533583
Ni 0.9724636551131669 7.376300236990432 7.1420256857293225 -0.5241216934209748 -0.2902441225680808 -0.8133440595927605
Ni 5.157314740069211 4.437807626265265 6.95849945712368 0.7085582360339217 1.313009933964216 0.892495727523263
Ni 7.983337849882898 7.445205050654083 9.231178431077852 0.17371349976848793 -0.5420062870108794 -0.7578987341402625
Ni 4.673955459078031 0.34613142375816736 10.56922332761004 -0.8105528700008686 -0.09888308492115873 -0.06052505396825059
Ni 8.02868142852668 7.326999532588305 4.672987959982068 0.11617889588712894 -0.4832596650992903 0.2569007712209446
Ni 7.1787706842275645 6.14936435249088 7.005549319351336 0.3417332915863083 -0.17929562184195574 0.4464170423496441
Ni 2.441192629814683 5.263367525588145 2.7946057095267944 -1.1766316803110768 -0.2116151599102678 -0.7487065261180331
Ni 2.1088394459962925 5.225529779518103 11.252119767368091 1.3956259062942353 0.4197775853852448 2.137756064746331
Ni 1.1387627727052465 3.375310284173249 4.196664375981413 -0.5239777116439427 1.5605927702183444 -1.773942910541848
Ni 3.374856485347751 2.9122267347053308 2.784124771853088 -0.8774203212473791 -1.4688452679007025 0.7497989878512635
Ni 1.073388513903972 3.7478791199072927 8.283419584024807 -0.19046243709205263 -0.1674729181754148 -0.8527788685496153
Ni 4.005246585800356 2.5712604491789843 6.844140337902824 -2.1539475869045295 -0.7451954276409811 -0.116746852575457
Ni 4.24965355723719 6.942513939696679 6.005466560120695 0.09401058732020583 0.21904153428132597 0.4697719150255007
Ni 0.6989854233172653 7.554497959787076 10.84089907047106 0.5149017174846037 -1.6172256882210407 1.7855995209441702
P 0.045643085868611495 5.752381139945033 8.296570673987747 -0.13979422131322375 -0.2677950495359453 -0.19030174314447226
P 8.439559961109284 1.5346387161168782 7.894980495765441 -0.3642564123894888 0.20823775879760265 0.19985776226402352
P 1.759450654268699 3.12459550906199 10.476463217287598 0.118340422314822 -0.03578332824719644 1.169631851954476
P 4.070965731709009 6.260871799892305 3.7335708429393337 0.8090863127576712 0.10324213322080283 0.657428507237642
P 6.679501216414417 3.9197418110999807 10.555912500460526 0.8384349411231173 -0.3571997626530235 -0.6910467095127195
P 6.34899953180406 7.9955450382888005 10.573420966745896 -0.7058125549679845 -1.6476955746751238 0.19378173127327272
P 2.4407116030596545 8.635873333019816 5.602415149680286 -0.31949710589592717 -1.8536170266347236 1.6123773589898038
P 6.9190979203009695 4.0102474488573465 1.4821187628466668 -0.34721925440154394 0.2934014372501399 0.13285275699838411
Ni 4.950972414115167 2.8383755138437494 1.0819580509246807 0.23381689281828763 -0.6467201196812024 -1.8008528475588148
Ni 1.4180124179638343 0.8999983358646573 7.000488554849379 -0.8925551200062887 1.1904397898387626 -0.3584791435860794
Ni 6.693550828051842 0.5411814197385125 9.236505121691549 1.535368705544233 1.9492715773162559 -1.1792647470585498
Ni 2.4320349695161285 1.8787906693982224 8.963327304718128 1.430954149281884 -1.9945229929548873 0.14350252340274638
Ni 6.532688220389232 1.9822295736822877 2.5282158153851757 -1.4475189956191006 0.06513195661264268 0.051078820953686224
Ni 4.071601050064706 7.0175904173871055 10.244319705311028 1.5510539774899739 -0.17160648072781412 1.4837532953607866
Ni 8.322225736788463 7.092784882772161 0.5501802504481423 -0.4171697154487526 -0.01254981164055258 0.7379179201429614
Ni 7.641191687410257 3.993484120243442 8.417730422407518 -0.4391369637484631 -0.6501913660592544 -0.42878955907586797
Ni 3.0544109827104347 8.509236232776281 12.364277222532026 -0.04435667173850426 -0.731089070146586 1.1908452528072975
Ni 9.188427858922964 4.546320001418399 10.449710868926827 -2.113464796299134 0.7110594051892206 -0.4632634244830215
Ni 8.49407027602813 2.340140707352738 5.573257667544374 0.7756529727998899 -0.40980761865672644 1.379051546875322
Ni 3.9174455890429596 2.5276685340016245 11.353461213480703 -1.0420825094468764 -0.05373091386455263 0.5004253782452994
Ni 1.0783349211019029 3.401040677578999 12.729735938268163 -0.1916423163327667 -0.18520093158279716 -1.1291220647658877
Ni 2.9895359026172086 8.240414884527643 7.881337487875663 1.1690728941272124 0.7334426579804272 0.5749968830042871
Ni 5.90403163145003 7.770515276700741 3.500523363702371 -2.1536848201614456 0.41823980858447973 1.3531129726326891
Ni 3.2676873547180905 8.4608885059077 3.568256468798585 -0.21107111448133972 -0.7896878536264013 0.4258906402615182
Ni 3.404707372089025 4.097258835658376 9.349601772579868 0.14024647835929396 0.8974872672005834 -0.30599547186506654
Ni 7.285694763491457 6.155717536047856 11.577608790151995 -0.5188373050935838 0.6344767835374749 -0.16730065426360866
Ni 0.6682341997062037 -0.29097489931181103 0.00733066622709833 0.4937412813569045 0.14996267720579334 1.2447425170463853
Ni 4.594050561884303 0.23930718023588513 1.7066910952186243 0.4720290864907935 -0.0339097653735674 -1.5837062163073563
Ni 6.058332308095937 5.826005461393866 0.5151170303971965 0.6009953639505778 -1.8127835375581294 -1.5336319253587847
Ni 8.112470843666673 8.94200602070092 11.385434063530006 -1.0480081309026918 -0.37634548234353893 -0.530208523045003
Ni 0.23215258795308008 5.157822994753769 6.020543572299048 -0.20063654941157705 -0.7120950455425865 -0.37560603307435314
Ni 7.7871696935965256 8.907490082033524 2.5151845283121688 1.6637217749000508 -0.6056374907082795 0.8092097257094129
P 8.387708907307857 1.7803435521946374 3.4464722931949283 2.015684457523851 -0.3219571374006455 0.4297334110463761
P 1.844147667059688 3.5082188841851702 1.408660531767967 0.036184420340357036 -0.9635736173066952 0.6675794796287148
P 4.631198533739588 0.8700830096901632 8.086768585788105 -0.030330789773057438 -0.37357768979041467 -0.03691667052069126
P 8.468367110551911 1.559996994485719 12.531783444999931 2.2767589005065108 2.5015368230509822 -1.5956837003842068
P 6.375728282625905 7.6288846632627445 1.4758490782735831 0.19368685756662127 1.1824698842594086 -1.1431595166955602
P 1.9201498943541306 3.2020045127154773 6.152861326240171 0.1106368830229772 0.6484604994110768 1.2313573539887308
P 7.108114207097491 3.945644648059419 5.995091811372155 -0.5442917406109465 1.1027080935487332 0.2592715854459664
P 2.6075280513128023 8.488243499108734 10.307203516157967 -2.0842516650702883 1.22759248762966 -1.812604074557472
