# total energy = -381162.5969357575 ev
CRYSTAL
PRIMVEC
9.30606393427300 0.00000000000000 0.00000000000000
0.00000000000000 9.30606393427300 0.00000000000000
0.00000000000000 0.00000000000000 13.62036523916469
PRIMCOORD
 96 1
Ni 0.6469966421309253 8.628740575608353 12.150156055139314 -0.9817294622801156 -2.09791656415189 -0.6060236704031047
Ni 8.30794194365664 3.116181999947515 0.39495679330866346 -0.25569363828672087 -0.26685608266144367 1.4384345168193293
Ni 7.768162323991544 4.408338267211592 12.136835355389495 -1.6467478660498738 2.1625301863672175 -0.3515744460464461
Ni 0.4380689951606795 3.260546967964077 12.073622986295879 1.4417137017912331 -0.08389946702813292 -0.04889672570070289
Ni 4.885236813655008 7.555583908185297 6.619960627329633 2.121891586910249 2.4646936860807034 -0.21786833990883125
Ni 4.972192673975176 0.9637731933002776 7.46988529708701 2.0268209337566447 -2.274451592529573 -0.004654468052875855
Ni 3.9662816237046803 4.255960778247292 1.3549470716667165 0.1995733982543853 -0.34527010109497314 -0.14882702093945335
Ni 0.10642507643487412 6.210438913538618 11.420811915491148 0.5949201042907755 -1.0191310428570255 -0.21680236053816213
Ni 3.488638592155782 2.097223848203467 0.4560762286494984 -0.5070914774115654 -1.7647540449537285 -0.06042169562116691
Ni 8.85082978863712 8.831249830362971 7.018356011219236 0.9405177639284964 -0.2456740492671898 -0.9500331596180994
Ni 7.326961838355936 6.266331132832595 4.716092589508897 1.9121096235539778 0.6260638768834313 -1.4856320004407382
Ni 3.800456872522632 5.871456232885535 5.811863922617317 -0.02209966011251678 -1.7593853244426472 -0.4799344573807992
Ni 2.5080958718545476 3.9998765140895047 13.00298142498892 0.9590885849521483 2.159935686167164 0.43418681883203936
Ni 4.153789503583859 1.2761777556876932 5.132589198131886 -0.5757265620814601 0.17082332270488645 0.68816835952366
Ni 7.75062969975747 6.875161746031043 12.835246138904932 -1.1212717154835334 0.5497836169634532 0.3534948029976106
Ni 0.019447812167924378 5.163767303743044 0.027548740721938237 1.1710259040885251 0.832513947652992 1.1454791659676724
Ni 0.8404557498220422 1.1452600498888799 10.90114083852509 -0.3502212744526614 1.2591802897382702 0.10211830402900478
Ni 5.921662447186401 5.3933199799542555 0.8063555401718722 0.7083512622294381 1.4158995689416065 -0.051766848159646335
Ni 1.3713136461043316 5.691765446613905 8.742340627247298 0.4701784064352999 -0.38012526110094536 0.36119937073071984
Ni 5.611519258306884 7.1864868050155115 2.6567881595467178 0.39355593268455447 -1.0179786744201371 -2.0417595573443483
Ni 6.494143575109746 0.8620253445405871 5.733043423287293 0.8760699778670719 0.4014193945930313 0.07860299451588398
Ni 4.447591244398072 4.928547234666359 3.721192473948464 0.9718998777842036 1.1345481208774653 -0.5409786170773134
Ni 7.560860446370392 2.2699723108664873 11.693573576618089 -0.025861698258110296 -1.6960904210387433 1.3568248742666373
Ni 1.4349392044314917 2.143065518573452 4.021876048956465 -0.9575886033678541 -0.436053696837449 0.32217336717650963
P 8.011087813909956 -0.10253234993959096 11.199712867652671 0.8681535512334725 0.663560845387625 -0.11506895065240182
Ni 3.4479617872050703 9.393820000319602 11.530537852762448 -2.0565120330631745 -1.8711360093550937 -1.608403204833404
P 8.694618201379592 5.187758336267165 9.525865601053217 0.12672016173808498 0.8630715087248749 -0.2432029620188779
Ni 0.5982217004453454 3.4816218200366253 7.225766769787065 0.48192500544826683 -0.2803453753971301 -0.6066147670198843
P 4.310689739563955 6.90843092418222 11.431463636137815 -0.7279528385104496 0.17485841200620852 0.3724389482002812
P 1.3137742535144779 7.7603452303839955 7.962479450766727 0.44585937007396115 0.4399067520349521 0.4727870477027406
P 6.234858024998391 4.8289258214891975 5.381746958989555 -3.30870869239476 -3.045411016508536 0.8340041590452733
Ni 1.9776967645185113 0.40866183349418467 9.067934673884691 0.8313590081129424 -0.892723784373669 -0.8550301264776371
Ni 3.4245384245738784 6.738846523217493 8.203491613964054 -1.4553611173713388 0.402858441032403 0.5593892583740173
Ni 3.0634538423518314 6.994214220461255 3.7629394762383046 1.6133268673872665 0.997869562375088 -1.2392488409216658
Ni 2.337469191742148 -0.09331283251459208 4.363242943159851 -0.36461996637649463 0.37372270000871116 -1.0529829584094639
Ni 5.574257778777566 3.016439607940714 4.188643504403329 0.013477465661144532 -0.9254441574248256 -0.20642898772363805
Ni 7.240899360162346 7.07124981675089 6.997285221521363 0.3505310923835963 -1.6937129219455025 -1.806785668103482
Ni 2.3649779163896665 5.068389455667124 11.015838075088238 0.5686909953909173 1.3798509028481656 0.1658490094187466
Ni 5.095153695209162 5.229933417492658 7.618823264863988 1.3371932160786388 -0.2428725752626527 -0.5693576824406388
Ni 2.9019750229730277 3.444704664868592 5.1253434968427936 1.0953768499946426 0.534605366561118 2.2702488673021355
Ni 0.11855366940953957 6.0069246038915995 6.858889162837994 0.11356974039905601 1.0550534677852477 -0.5081911382336474
Ni 0.3795989961889747 7.702461513432857 0.6962108300287393 0.8825584138048929 -0.050648932505119225 -0.27194558136920904
Ni 7.451653787460165 1.06819653540779 13.574586852306942 -0.12013890897614149 -2.4068767750722353 0.04321638748647396
Ni 1.817157857585377 7.579072413263218 10.417359527281501 1.153194275223743 -0.08962377110641985 -0.7958926968855325
Ni 6.009520995696964 8.478875723875051 11.051428185555752 0.5708566355836685 -1.574547946846856 0.7132173320724878
Ni 5.160556711725657 4.911870768303587 12.214661967103705 -0.5975362017573839 0.1344077601903298 -0.5222049360142361
Ni 2.962231786197887 8.7133233896548 6.505086575553933 -1.1938159053998472 0.47819484898187314 1.462421880872862
Ni 3.0131080370936867 6.47724376321533 1.342367134596853 0.3339896430851474 0.25890340347327023 1.1675196907074796
Ni 3.4734231778125166 2.200623523290943 2.8738837387304703 0.9590459046396709 -0.6016409679543767 -0.16326685051386722
Ni 7.75031329358764 2.942316809626273 5.215850551116104 0.8360618129052504 -0.06193119028715785 0.15532882661371314
Ni 6.921012722464847 8.549713481661557 8.540104970768944 -0.8727758804968324 3.1743243292431975 0.6670066378443802
Ni 7.66450207911715 4.553298823312538 6.932834215333502 -0.5573017797173693 -0.4875312958914508 1.4307191504529424
Ni 1.7488141249022322 5.940525838546524 5.124703239652081 -2.155440883620604 -2.500234816410107 1.1028770150264295
Ni 5.436909582880162 0.28936926261745527 3.54987528390073 0.0895353251576716 1.540464889120218 0.6962889317482653
Ni 8.644030438462167 4.393560237867796 2.6604110101912637 0.20739495118133314 -1.819382788042202 0.4873672595097607
Ni 2.5439428296834525 8.805099791032955 13.558624161039049 -0.5141342431909597 0.7130784925017783 1.2192752260132163
P 6.551068767487578 3.67309408310249 1.8238619459602325 0.7981683802935867 -0.75578631578295 1.3509943836277893
Ni 6.594472249137112 1.284255419082161 9.892743208002289 -0.5281606393770387 -0.5701812067831986 -1.433169668875964
P 1.5982978487016346 8.352266725624208 2.428579278950899 0.12014430829278018 -1.0282499744391584 0.021462540749150133
Ni 3.7851483975411813 9.052287458180245 2.0158823361850073 -4.167835871759906 -1.7941360976602712 1.0730864140275584
P 6.770803546370261 7.903295676700143 0.8522251287333131 0.14339479418028853 0.503079785149011 0.5307235150082086
P 5.618824518404415 3.0914278701902758 11.06081242031034 -0.5379537142080606 -0.07208961887739843 -0.2203296569651302
P 5.67292066738142 6.890823851437597 8.584752673151016 0.5635372191041198 0.8510552009902892 2.0727477781957466
Ni 1.2651407639989392 1.1170254522635175 1.936584435781093 0.4834296150182514 -1.058533713024364 1.5059182614936002
Ni 6.272249789421169 3.6263218063506533 8.90194334416029 -0.25575225943879826 -0.2444131802768952 0.38004941355768745
Ni 4.533448989187654 8.67938417490869 9.355964793918663 -1.1479947333006744 -0.49131698818612807 -0.5145258222024236
Ni 1.0965334997351561 3.6747133382069106 9.788929413074888 1.8578696312634908 -1.6251835096155365 -0.28513585480723797
Ni 5.210362765282328 1.1130424569491948 12.121294228812584 1.5227294195136678 1.6238416508756612 0.36328299273262593
Ni 4.782953866225753 8.264566380198561 13.288423528674963 0.8342561271550794 -1.30641556857615 0.007895600697992854
Ni 0.8062903977251425 6.311819172777477 3.1036588298669447 1.6536633622227843 -0.2676587810683971 -1.0264728279340773
Ni 0.044240096786819644 7.47981393657498 4.8296312211266414 -0.16723817645678937 -0.5356602901881936 1.2144297249954568
Ni 6.819967481523454 5.923207253780275 10.41142039735253 -0.8621394838289088 0.17615810465423856 -0.1678624403043496
Ni 8.547582393047119 7.422469971325315 9.519164304497508 1.602624393368098 0.44705030505826876 -0.10320973732097063
Ni 2.9795875952194097 2.3160838570872095 11.700738315151959 -0.2074276041914815 0.0825565798469933 -1.635643528606596
Ni 5.5324363279771775 0.5432200714587995 1.3818536939851773 3.5522225007858372 1.806577665857734 -2.8390414212679236
Ni 3.0246940865477328 1.9086364649213408 7.257666095344157 -3.0382857183176646 0.5684279715375178 -0.5761340819325238
Ni 9.168482971018175 0.2595814829407833 4.309469714597348 0.5131718792776905 2.736843670151235 -0.17385568177330704
Ni 7.456520858837247 1.9338372857418684 3.020643156967535 -0.3579101584564868 0.02841171837347365 -0.46224861006526197
Ni 4.213208721065052 4.329041297414059 9.74797249560324 -0.8722634596367882 -0.17793165161489355 0.1679305745381237
Ni 5.025004586145226 3.1798727007214045 6.7958405804675825 0.912168523361842 -0.8033725502023454 -1.987617781194622
Ni 5.670435948341877 2.7261369471222614 0.12322996647834136 0.6553891082101099 1.3832265041886176 -0.1549742714877718
Ni 8.292866120270652 3.203826508990252 9.847659981833512 -0.33112106328810076 -1.1163416251717677 -0.7780559258144278
Ni 0.6900148527383745 1.0840726802821699 13.465787798991965 -0.7477737298911186 1.744394764571086 -0.7749317783631493
Ni 1.429504463161481 3.209577656430092 1.0500897270361131 -1.1069177607547065 0.6182646925539869 1.2032760223714827
Ni 2.1081956974454914 6.59474212498785 12.941634921690914 -0.10371110243742139 -0.4735843467930553 -1.6014131466688162
Ni 7.253341567487695 8.447737634338313 4.362276043129108 -0.34654331138044187 0.11385384729837812 -0.3691001136350353
Ni 2.37501915924984 4.239489045288527 3.115821855277739 -2.0528911484811356 1.4079857134111688 -1.1318386923661024
Ni 4.067047682731517 1.6832435992370034 9.334226759445002 -0.38228987285243193 1.382587070832406 2.455279077635023
P 3.182692438058413 4.109688067147935 7.615717831367752 -1.3124316928632431 0.502587933114257 0.317143518062086
Ni 9.018478528327595 1.0631433427543384 8.771556083999133 -1.1205456359507864 0.8491530988715699 0.02754242839464289
P 5.033035719220601 7.753756537200489 4.484083112449598 -0.6252863752874587 0.09248798002809233 2.2918337925617625
Ni 8.343733065102635 0.03740386230574143 1.8775532811611317 -0.3168462985366414 -0.7010413588315861 0.429613340528744
P 7.070030722390665 2.1755157631086006 7.543829418976135 0.7673534517952592 -0.904846278668816 -0.251420979053296
P 1.1722011046434693 0.9731723177569737 6.124043278260325 0.22770178105948527 -0.09614537427502151 -0.2829208494337902
P 0.3989937637931335 3.8694054993539804 4.723869667042027 0.37227336915669434 1.367611166248864 0.16821313877554903
Ni 8.269051902959083 6.486475378523292 2.027867615776868 -3.2889855029342194 1.306261302386473 -1.1423575896195552
