# total energy = -381163.09916797007 ev
CRYSTAL
PRIMVEC
9.29564073645573 0.00000000000000 0.00000000000000

0.00000000000000 9.29564073645573 0.00000000000000

0.00000000000000 0.00000000000000 13.60510983557271

PRIMCOORD
 96 1
Ni 5.619986289961581 8.258470217774612 9.452218244685927 1.8647733003618596 -1.2133696591620586 1.4779333462448998
Ni 4.8090717852681175 8.084558077507864 3.5373826004918913 2.0535714623776116 -1.017808724501176 -0.4463597067491474
Ni 3.7720222313326213 2.236373106087712 2.9737228405178255 0.34216806513088166 -0.33926220433799636 1.2312797066732601
Ni 7.6382836672205 7.978002149137682 8.350476609454136 1.4463661129615801 1.0324254459730866 0.18001630205806418
Ni 2.278073349886773 5.984775114617522 6.290403693707176 -0.17255316091179962 1.5159753886192857 1.4016767404740054
Ni 4.21928197952518 5.067472003084946 -0.01517699243217271 1.2329869191723541 -2.376829063757236 0.46354830271329195
Ni 7.491579867033968 0.7951016904432225 4.196577377322949 0.3385592647337008 -0.5480838606635271 -0.026420913195689982
Ni 2.400106519880993 0.5777500920183402 1.9934612846636592 0.616691434529596 1.0796908067179536 -0.35213623208718714
Ni 5.099225911425917 4.658947189335252 7.168899364800089 0.059609484132516696 -1.3289222343190983 -1.2214493508463995
Ni 6.2623336477419445 3.591277795213821 0.6119059938942363 -1.7767574971725077 0.7315744944234368 1.152842548311279
Ni 0.7510208330826504 6.866104096969899 1.218312686800616 -0.3387562112358553 -0.6907132374327007 -0.030386839821973474
Ni 8.263192403207052 4.56205872720471 13.560852354842185 -0.08870948682226659 -0.17871532385845348 -2.111183199353809
Ni 3.0886253245962503 2.3678692382280406 0.5769980746925836 0.5260718751688102 -0.27513246373762296 -0.4329627166169511
Ni 5.16368188345059 2.9475732739036618 9.835908824968486 1.212750280410505 3.526908190390764 0.05105670946649916
Ni 1.8732482011018634 5.194524819011288 2.3864317029722106 2.959404530439729 -0.03618493456098929 -0.5365092684520503
Ni 2.274513119531213 9.288036781015002 10.253980261629826 -0.5222350179212232 0.9371282786309731 -0.17993145565374172
Ni 8.623974806757909 0.5149580396637577 6.82785997235151 1.577309311642077 -0.5793379335818023 0.45795769599939196
Ni 9.390456149311492 1.3824383766278516 10.923488551723269 0.29261699367563154 0.7354594313001398 0.6837393772180288
Ni 2.1257549827687585 2.2105684077403662 5.383555389174333 -1.1424403791413487 -1.1334865123821702 -1.2417176141771324
Ni 6.716723152286236 2.4140035026004747 2.7422325727174703 -2.464444803294691 -0.04533086272631548 -0.5263616384950871
Ni 1.393779058178198 2.593530209798706 2.2168438947195783 -1.5677298954837582 1.3536266790443139 0.8234173846683626
Ni 4.376276053872558 6.151204264189164 2.060847242610193 -0.3183537363201034 -0.21017302814710254 0.36713861903329026
Ni 0.6491350345574638 3.6190903519340147 11.460414049288485 0.5479614761530499 1.04606103447865 0.22807176280439428
Ni 2.841249736548856 3.9164114170060085 7.686179455489484 0.3508956748118667 -0.983197819295526 0.03647058412220816
P 2.28718307768951 1.3284214090138653 12.249210506702527 0.03273811366296942 -1.1033269580796548 -1.4801522082730896
Ni 0.8656500253269928 4.5909867607987085 4.328996566576351 -0.23778873298184208 0.042367666332933485 1.4512452954307524
P 3.754778817991726 3.9903768293798665 1.8209351244126135 0.07574418491085019 1.2897782171297851 0.30703342621127766
Ni 2.796835165690204 6.217286973321469 12.568250836071558 -2.467757669718008 0.7190293107685746 -0.9977929435008815
P 8.428357345655048 2.80064637834237 1.5185618786663466 0.603752872091057 0.6256676698862773 -0.5613250419441494
P 6.879675732267855 3.6280606451275266 8.492186791502268 0.39226163935316316 0.6659465720109821 -1.0643081536142962
P 4.005305628207617 1.6453469801429743 7.6716624535409785 -0.6238283026846934 0.08569486836565887 0.4915643283102437
Ni 5.204266650375848 3.6197224554958374 4.329132282929331 -1.130620246577969 -0.3969276773702648 1.2647076473144023
Ni 7.856972908329886 6.481534149085158 4.8055292166297265 0.07279487247453915 -0.974443984362296 0.8458086078793691
Ni 2.7400480971729366 8.625806047959072 3.780071326541183 -2.0717905564888 -0.19802173749654928 1.853067581889157
Ni 2.763900710991124 2.458576099349583 9.735639538346254 -1.1540833626969158 0.4231537009463293 0.0758269744326436
Ni 4.075915314319447 8.590993873855755 6.087511464258984 0.31505064008879935 -0.9421727830334161 -2.5649569391788405
Ni 7.417846845675486 8.057916771505164 2.9351933397325545 -0.09989481401512473 -0.9191536964304234 0.36436079917783704
Ni 6.646280787705478 1.5214639776663614 10.979241945004143 0.7608017667196704 -1.1241456945972188 0.932161421544001
Ni 8.922141775125873 4.91939244808739 2.048262804345555 -0.9460816311695189 -1.232380910157239 0.6512390905974784
Ni 3.121476118529795 4.171920690591561 5.189709677172697 0.9973399151238631 0.09871262078156548 -0.23864131079012452
Ni 4.6003846534605115 0.9928766697328348 9.754197355270117 -1.0676894113817033 -3.5340787399972746 -0.24346958541670327
Ni 6.682840542244422 5.940778847586547 1.6805579372286772 1.595298549130646 0.12234465837820865 0.32307710993770167
Ni 5.848677640372749 6.7606915323953665 13.519356615136655 0.34930004818997257 1.5489904100927259 0.3837204346513714
Ni 2.8286634391560947 7.9077549930098385 1.212216605685274 1.2126898594862145 -1.7329739243286542 -0.5112880319914163
Ni 1.7798177172801155 1.5468875547484906 7.57683483493479 -0.21164524181725486 0.13212256370057893 0.8201757378026132
Ni 6.379235624116664 8.463643597429732 11.694856612548175 -1.0370567740975105 0.5872461326852854 1.6257977461607678
Ni 4.918946257337868 6.450737691727537 11.661551261788555 0.16577599008896612 -0.6888486734201362 -1.9200833857880737
Ni 8.33365335906904 7.047536410494213 13.268273925611984 -0.10925388663252152 -0.6991940212102024 -0.3530451170547017
Ni 1.89923881226151 8.646628282936758 6.583784336722453 -0.3995512310360409 0.08633044506712874 0.3829136224793599
Ni 6.248046248116631 4.629498599866811 12.118411547608325 0.11916471798833025 -0.9004607480066106 -0.4078756917413363
Ni 7.062502391884425 8.794075734372491 0.6722960527138927 -0.9093706489017306 -0.1038370864923244 0.5117857975634412
Ni 3.644597589781679 5.923907259870252 8.653747814083815 -1.1116966702005886 -0.5971189117143071 -1.4123912986780323
Ni 0.29970074906944344 3.2913353594883863 8.965141549482915 0.5068924740268819 -0.7699176129780095 0.0969339316145879
Ni 7.525192903497946 1.9337256389433013 13.344204436411863 -0.17439098545148676 -0.4393346815815659 -0.5069577800471785
Ni 3.6339912638399205 8.900362089164839 12.174314600703102 2.5664522927774445 -0.3935325356457868 0.7310615593427603
Ni 0.7338898969931967 9.068594593015797 0.7903097877061704 -0.4820443046349505 0.11205587485769088 0.2096788621195034
P 8.01187546353888 8.814135726819744 10.41999017780973 -0.10260527096775232 0.4960961547423263 -0.3194623960032498
Ni 1.1013846826321747 7.505402484628529 8.56077002796002 1.4397491218656946 -0.45200302107785384 -2.427188232936078
P 9.323899362507818 2.5638027511118144 6.192174800199945 -0.5089077046846977 -1.064410226409799 -0.5914041207177169
Ni 6.921812871175822 8.50686832628966 5.651576595027727 -0.6033816047945673 -1.2937855385169652 -0.28303937728952544
P 9.420759937716516 6.572473401222076 6.853478757886554 -0.4097178871563976 0.24083189068354002 -0.5158849073334792
P 0.9558800200849832 0.7182918120411628 3.624904775138721 -0.047623001194601854 0.3592597305058458 0.5849146563386313
P -0.03476662546430401 5.7365071450710845 11.75783550727912 0.019357064370373114 -1.6013789509967713 0.19985004895453967
Ni 6.763498815861109 4.726331288153663 3.481969427657526 1.6853622359879619 0.9805626956655242 0.5722835978381822
Ni 1.351056293911483 4.312498663612781 0.1550122437682524 0.7050211694149406 0.7845775289830295 0.12852301927477866
Ni 1.3896517937451212 5.499923795777749 9.749326439587838 0.6275273488028354 -1.6664481726922784 0.3297586357229353
Ni 3.010495465226855 3.320003115145164 12.051310965828673 0.018199810837478334 2.208648063771203 -0.7298698530275043
Ni 3.2346412473772688 6.363851338898776 4.210114618750629 0.580451221250639 -0.20718026406736578 0.12569377735609966
Ni 5.705385340291937 5.283697899431347 9.366110866540707 1.303893830595561 0.6636446633506828 0.8787542095674543
Ni 4.6868712937428265 1.6515936506362798 5.496042865820971 -1.0228938523335673 0.7043807076174644 1.3751041321917994
Ni 0.21806178536787132 0.2824963774191309 8.95469231986755 0.8325442866702951 -0.46159040765597276 -0.20510975469158227
Ni 8.567949980771076 0.6588006416689804 2.1510902512650447 -0.0345517698329405 1.29740205222363 0.06196512884888683
Ni 3.901464026897027 8.185136908962576 8.26446497640725 -2.5430210583376978 0.5891569765547532 -0.9037813277394113
Ni 0.04416265899798452 8.327118523716667 5.201069879568336 0.3915147338848096 -0.5396365012271223 -1.5080389073810287
Ni 7.3348460706238106 6.499326005222341 10.804429986725859 0.9073495047066439 -0.29147773786486575 -0.23033021982126783
Ni 7.829281194937687 3.52288047156837 10.537279782398095 -1.1116339352834532 0.9977422927686043 0.08994078812620639
Ni 8.503029226715649 2.9197886041053134 3.8702594909164056 1.9709459769658961 0.3246570528303118 1.6008045665505397
Ni 8.556720846908108 9.266331460178888 12.640466808881664 0.39547757518729953 0.18877553630793295 -1.5251020335109025
Ni 7.674332161525617 1.6168465460172674 8.915645981464083 -0.8028385320757463 0.2189651725174358 -1.1349736384506584
Ni 1.6012298697840033 8.215068871742998 12.610494874846598 -1.2127399959978598 -0.6310605587670745 -0.7158084898384318
Ni 6.413332033892623 6.565092662573735 7.131281766359153 -1.0291218355211504 -0.23578635783983265 -1.3223551226245418
Ni 0.703843597833209 4.36685027428891 6.933395239382159 -0.11433078693479665 1.15333260057382 -0.11696642478543083
Ni 3.430351664886281 7.284119759787548 10.379338482272045 -1.808061963712744 0.8807416723111282 -0.15105668160092048
Ni 5.380047214406218 1.326655237297008 1.166121383003423 -0.6653073957650865 -0.5461406208942271 -0.5154892145569574
Ni 0.5197880545273316 7.438622602450096 10.622325598385078 -1.0737240476115575 1.2548304974100066 1.842294659643369
Ni 5.759829907374215 0.20560655650778176 7.253618903801485 0.3378126163756634 0.9161773874109189 2.363873532037832
Ni 7.612423195029463 4.1300624209020445 6.209684998426491 -0.34327595348307977 0.9499822517755059 0.29961142271559366
Ni 0.6931368789728082 2.017098239619578 13.437195236432519 -0.6235927896351195 -0.09084607354929516 0.22435960406012972
P 3.874302165019886 4.657933964508213 10.466764911820539 -0.7001669266464328 0.34433679064742634 0.29102419526721496
Ni 7.1067589368526205 1.8660347839845939 6.151264685853161 -1.5612843969687304 1.590829457615699 -0.22362838232106003
P 0.21475811469328682 6.431049524904886 3.3587752321504873 0.14279855535718633 1.823851108226201 0.8178473467797529
Ni 8.16309694506432 5.566694382315568 8.566022064907516 0.6485880261278766 -0.6733912012144855 -0.20851440949775701
P 5.342753104258685 0.7932490692686455 3.7463848545163465 0.9703800987055676 0.5574858707037174 -1.2716275143626872
P 5.570803055467415 6.3927607812115435 4.846915267775999 -0.0464660047720232 -0.3828264620821923 0.4305782755451746
P 4.844553245495717 8.53991432867612 0.7300089670364184 -0.08662380793783146 -0.06598890529629925 -0.47813571360916357
Ni 4.683264585184191 1.7458886290352265 12.265564327236563 0.9136273672955556 -0.11418834781966142 0.6509822373916659
