# total energy = -381170.26814773225 ev
CRYSTAL
PRIMVEC
9.21964420334949 0.00000000000000 0.00000000000000

0.00000000000000 9.21964420334949 0.00000000000000

0.00000000000000 0.00000000000000 13.49388122751584

PRIMCOORD
 96 1
Ni 1.0755452784907829 7.945176091342969 11.242710992388139 -0.7582273211242747 -0.3911866611214295 1.2597945262835013
Ni 8.277747104781563 5.584292525634545 4.578420100009017 0.515732440916015 -0.07238452440999793 -0.8591811725315333
Ni 1.0966582642075267 1.8663233998492235 3.6463297227657523 0.15241885205576977 -0.8009045482778272 1.0153818602272382
Ni 2.90953538536681 1.9263986028755562 0.4219941885756427 -0.3810868536832663 1.3329894624099365 -0.5338193803247129
Ni 2.6568433711639656 2.874150390091324 2.522491946814575 -0.5237285717476142 0.4995663726791138 -0.16091249134907773
Ni 9.264912871883391 6.293937776116416 9.767829723442878 -0.40190713286272717 1.1146076731997965 0.47751402086476474
Ni 8.57615011600782 8.969939568380553 9.983502099414963 -1.3769522411441317 0.8499521977340974 0.054524870520757704
Ni 1.4000122244861382 0.8468980969295405 12.53001398583121 0.14967419943109705 -1.3672380991801614 -0.6564939112385145
Ni 7.894661659577887 8.059988323277732 1.669840791768332 0.8981814650541305 -0.7922597281186355 -0.22758608141722741
Ni 1.5675423832018371 4.164522603161079 0.5143206297398539 1.2472465144151617 0.7689076836562564 -0.26896001637832395
Ni 0.6674506258394035 8.108529751137409 8.142316060070849 -0.6780765225052967 1.08468260350559 1.1813882211594557
Ni 1.6596835095132507 6.404674925218516 4.4316332192689085 0.24719408545614202 0.6825651544042697 0.769278950952746
Ni 4.633249325361626 0.7053221592143679 9.443436534602865 -2.186378453739725 0.9033727794470828 0.7480318686485117
Ni 8.403134268863534 8.821116068188555 13.005281123781739 0.24564293891893826 -0.5268141526514734 -0.5558449926661847
Ni 3.768898441549205 9.040967708975224 0.41927900329460294 0.16278502578144222 0.20113045832886006 -1.7358908408651328
Ni 6.346231599254132 1.082810358292003 0.3329858974373949 0.4108936526320537 -0.009427721071803117 0.1386973887046192
Ni 5.481456611798492 3.6080525250364053 2.5385092350616048 -1.1991013221685025 0.02451161198811908 -1.7612092650252635
Ni 6.316074142363535 2.543275791225603 7.234514836046257 0.10321976462329965 -0.8208406250801219 -0.15594974802716366
Ni 2.8103688900090384 2.665749547671553 9.784225017111039 -0.019731416990656343 -1.2171478952575685 -0.09407357934765735
Ni 5.822389842724024 4.547451314409653 11.594387874953723 1.9893946705893868 -0.7366405960924346 1.0383060731235796
Ni 6.019570377887343 4.674488794842409 4.280947350904515 1.1065202682059716 0.676539259925164 2.144247843118262
Ni 8.44959205708479 0.33273881096699803 4.003580802346334 -0.22824402671620045 -0.21855148201878494 0.22196205036223063
Ni 1.968707551108804 6.883469499123292 6.871462756198001 1.2131336318918526 -2.1136979953558632 -1.935475551973428
Ni 5.325202078205754 6.93095066787492 11.80606722292846 -1.810911260236081 -2.327916654327249 0.29969112691359356
P 8.356399891309747 4.372370266915783 8.848450469958424 -0.7767055824341205 -0.6166909203089638 1.0205371791759328
Ni 5.0907557403057195 3.0285794340893406 -0.1482832290291164 0.18982197529457634 -0.3238597537399971 1.1208269146366308
P 1.4118686872074184 0.4015145924304013 9.844947439175499 1.023982971632688 0.42034451363230835 -0.48018796815250203
Ni 6.814146992745914 7.211937770795969 3.604782317161414 -0.6212304600505301 0.08216731482837461 0.8902048746065572
P 7.193867267737096 6.531039371608774 6.1341705580004975 -1.084620639919403 1.1173201870349532 0.8448508719517901
P 5.19744546550841 2.996412094715664 5.388039486699657 -0.3421025020002689 0.10373115704207941 0.5289057450731794
P 3.802319652563701 4.578687469697132 0.7042711197507395 -1.746551663013089 -1.1069031054666871 -0.5858441101314362
Ni 8.31630365773677 1.642783901295438 11.574929815409973 -0.6222565873221994 0.2480374072930438 1.027452161128211
Ni 2.83913418059255 7.231317463362167 1.8228749035659366 -0.49948512581921717 0.3370366574415873 2.7358280844025273
Ni 4.393953454497834 1.672434277743057 2.17101697446174 2.808846128631466 -1.8715558705013318 -0.1899451311360019
Ni 7.380832436885501 2.400094713417293 9.465188441677762 -3.0162282242969924 0.4659119178494621 0.43924906384629514
Ni 6.19391385382779 8.915064244805855 11.683488362536147 0.31855145415320624 3.1137126290984116 -1.1271279171539943
Ni 1.0700780293510324 3.1057109792885886 11.48306343450221 -0.5500566681191817 -0.09505548364495242 0.19249540836168136
Ni 7.087454131866941 8.843363070168687 6.1830586444902815 -1.912988940835138 0.7513740456478674 -0.315791889130198
Ni 5.185118800921821 7.5496810047529435 7.282040259091092 0.7227921202451164 -1.5222576220835717 0.08135844577383407
Ni 8.463080396868019 4.782957911417733 11.41640356143269 -0.9387902397144283 -0.29741467217459105 0.3550577766093562
Ni 6.445803758966287 5.555868361894492 9.531875051716094 -0.24761420371269613 -1.3995039011924026 -0.9156605956755004
Ni 0.8765189705150227 8.039188805471195 2.7658951692664933 -1.3350689706467846 0.08047758583077752 0.1303299905765304
Ni 3.2824607824220795 6.754956875583689 13.367052595020365 0.20532701290871092 -1.4076553266549434 -3.874339303692799
Ni 1.5637070111240357 4.583896568793185 9.55965937213355 0.17384231203686834 -0.6188460189787535 -0.8761458254103297
Ni 1.8429239423168673 -0.049532539634587695 6.081301429051112 -0.2741870691052181 0.09603198862560881 -2.1068053820010877
Ni 0.4394478974229648 3.3641744908969704 7.102018404153727 -0.11532554674789816 -2.3151310725268064 1.3707350565898264
Ni 2.4055527429126258 6.760082997879981 9.784697062905229 0.7515650786127508 0.4554495848655576 -0.3102305929923367
Ni 4.095614980782501 5.661608463722149 8.43702199388557 -1.772733720725095 0.09791120792619266 0.7487476637686137
Ni 5.712703733085553 4.823764057610881 7.246308605185497 -0.5393387674810454 0.5808728821690898 -0.2079629078696612
Ni 1.4664858607384186 5.42968830839259 11.90571959354705 0.533395662523733 1.1788263739695506 -0.4034518516420277
Ni 5.016943267096877 5.916605389029441 1.566302341027644 1.7125542230217217 1.2420899099148868 0.4748763261316015
Ni 4.918117898582564 8.317161084667624 2.451433381393326 -0.5580977932561034 0.2448258423342816 1.1461065151390262
Ni 4.792620098767579 0.6800962901228471 6.916424196130247 -0.35468573798191816 0.4617418456321725 0.5133104617380836
Ni 2.4416476508082816 0.3979650293295513 2.1650389570212436 -0.0762586626534235 0.48279300987551693 1.357137777521366
Ni 3.515404318282013 1.4374347611779557 4.7946456546461675 0.1406653110642674 -0.35134407520319494 -0.49847751049030925
Ni 7.485871845737406 3.43148711479127 -0.000947779446149021 0.8538643883043102 -0.26250294789907047 -0.6275995968016675
P 6.96740514190287 6.05920562923943 13.190390378508843 -0.6273491713537583 -0.404711949301374 -0.45207166953226013
Ni 3.365861685825426 8.479279312110078 11.327398036187768 0.4808181455373333 -0.3441632411840395 -0.14434353124680302
P 9.33507436590279 5.977667094008478 2.794784925049645 0.10099318928562606 -0.47170229927899404 -1.3401021621953177
Ni 7.330456299786685 4.966521031775972 1.7816511074806631 -0.6791784973202238 0.9760936041505769 1.327675506396191
P 0.20691740163294836 1.6038770018523554 5.605128922018755 0.6595866912312254 -1.4678170837465045 1.8691269493448648
P 1.2320026442607137 8.036634963967465 0.06666540485617063 0.2587853898381672 -0.33443907191774014 0.23464298826400878
P 6.714971277743724 0.2214530930220393 2.672071457848833 -0.3003254180634828 0.09722626604402611 -1.1076988618951051
Ni 5.814405630658217 8.02551607279961 0.2699345931929987 0.8841170165412645 -1.426948884777233 0.8529058810457828
Ni 8.45756704950618 3.025444754987291 4.493125481642256 -3.2910148746594223 0.06278993874302735 -1.0461654212669982
Ni 4.453042155571463 8.208055812627473 5.312015220794986 -0.13388556913827265 0.3558705023186387 -1.399752269757783
Ni 7.632021649048244 4.3785935268977925 6.462031255106042 1.7207380443840943 -0.297234694953301 -0.4583495321211719
Ni 0.2399965638395444 2.2765606978632977 9.401240987995957 3.2804388989157887 0.3975948786406185 0.576274207054814
Ni 2.3376777207088413 5.065097469891005 2.647877266967663 -0.45138441365724835 0.4808777951306751 -0.7008917206275993
Ni 3.9000386637478788 1.4811819739403789 11.666161884781792 1.1347810628238781 -0.4103652909324094 0.22718396088280227
Ni 5.043938385952171 7.619021950419158 9.632148826368443 -0.3912198283522101 -0.27421406568841156 0.07600463766108846
Ni 8.981879007901595 5.835325003842187 0.3959440832731713 1.252053705995818 0.9234273841051128 -0.3885700494341889
Ni 5.0759858699484175 3.1699442419473454 9.324258801036276 0.1450806665231437 0.5200534368888721 0.600477543773895
Ni 7.237310232233733 7.598600438033748 8.39725582358275 1.2131529151655622 0.03526010875387476 -0.1799761928487481
Ni 3.20078395252486 3.5673846735095247 12.169834747183538 -0.8437679233002565 0.5564494590194029 1.3074211270225289
Ni 7.374563078681402 2.2989644337985324 2.235342433564675 -0.8319174517195738 -0.6270730348742362 0.3009625374268494
Ni 7.433928369087565 7.068231173255844 10.87243900899631 0.5093126534326003 0.6229561844923852 1.445630520347136
Ni 3.784332126304589 3.0068671714854402 7.150002965490567 0.7640603828662841 -0.43628509612196475 0.25704680988050566
Ni 3.043376963379896 8.394449363821975 7.923162346366607 1.67125767826578 1.1128904333983736 1.975010891063889
Ni 0.17314861002390147 1.1406359680803946 1.5570319885655541 -0.27096419129254623 -1.3241255842614033 -0.12542304019321626
Ni 0.9141314318818472 4.232176353898836 5.092334143430046 2.699877634449847 0.810421743739643 -0.41024907706951924
Ni 6.034745912599029 1.3624790520613066 4.301012985015397 -0.04831977015131033 -0.2752491918211453 0.8928873065347268
Ni 4.284885061035354 6.146082338588285 3.8497639427376593 -0.6294034827796258 1.1603877076483886 -1.0765538037508684
Ni 3.425826253118746 3.910383104784642 4.465530163935362 0.11982112062540655 0.4191309529401814 0.8492615994249761
Ni 1.9149846830863297 1.4289065900914983 7.76822529996117 0.2228259410244227 0.08212129208178762 0.6856941869515546
Ni 3.8583105531129522 4.875486262794694 10.681514002570463 -0.6198608333965131 2.108601811779878 -1.9538044321896026
Ni -0.19582155957613567 7.809343070135639 5.938778633854231 0.9874118573768736 -1.2013312399402858 -0.3998080842418534
Ni 0.2859472716178199 5.633958750113191 7.631072947637653 -0.2479793003615987 0.7179954701874214 -1.8065794656299468
P 2.309308874835295 4.4469110920336306 7.081400513342218 -0.663548761202767 1.960120347105302 -0.13853978008083237
Ni 8.380112816752307 1.1568164440336197 7.6389538996859825 0.37690598283269927 -0.9894093474228768 -1.1145274547811643
P 0.4191480843438703 2.503695857740022 13.47435634854128 -1.354684687995183 0.18141061130242953 -0.40460447718923226
Ni 0.03671446800053143 3.559796906153682 2.2056966669392644 1.0342833251174317 1.019624437553676 0.05212166039590379
P 6.151291437684337 2.2148259588417623 11.472281982320045 -0.27910764633528706 0.06660494161374335 0.2322652320604516
P 2.8874174584085264 8.203040326064194 3.9171392602139994 -0.39555316562024134 0.4139265259211065 -0.34826235095407765
P 6.4399492847609885 0.4483005999929287 8.700180148431492 2.2631533939079347 -0.6269516788050234 -1.7688932639330828
Ni 3.9135454428199443 5.758608342641739 6.0494687627698 -0.6485643719787927 -0.2855621437113791 0.14071081959022216
