# total energy = -340895.4970473153 ev
CRYSTAL
PRIMVEC
9.00720506365195 0.00000000000000 0.00000000000000
0.00000000000000 9.00720506365195 0.00000000000000
0.00000000000000 0.00000000000000 13.18295507290211
PRIMCOORD
 96 1
Ni 6.395277799785347 1.9515731295881114 11.364827611359798 0.5037217896083841 0.039986567695266616 0.1509803198370303
Ni 4.606050536165889 0.4377510719409196 5.728930165695169 -0.347041334062783 -0.23637462624313485 0.541365568103087
Ni 2.6104591949161704 1.629745688894593 4.733841160223637 0.7451254936349941 -0.8338478359730671 0.3434420467472988
Ni 3.433438524015697 4.480291937594299 5.24814807177918 0.059707443162961685 0.09481045751368188 -0.7454900760632645
Ni 5.21672103222352 4.474094980437928 2.679000423371289 0.0935614155979292 0.1768242774833277 -0.2939364838180034
Ni 7.402310359311164 6.002581668821003 2.6989072475156144 -0.8486766734557835 -0.05981234417194215 -0.7968383486282535
Ni 5.203084123597436 4.541180644537713 11.667666962836245 0.29459725733045394 0.5620647483236514 -1.0881163117774875
Ni 5.459249038607894 7.8891678131137395 12.444103360665254 -0.4693433121285143 0.057338428710152864 -0.022341086699361523
Ni 1.8973497544698639 6.2918570700332355 0.4899973655245399 0.14436692828557074 -0.017048727952170637 -0.16781693177839485
Ni 2.8560406438528836 1.4078712039630668 0.4445848385027492 0.012317641025088463 0.5456377131158797 -0.47029924828388037
Ni 0.6358798618850313 8.991379509661902 4.496284230372114 -0.08962120000325856 0.2358542349632906 0.26107418587234393
Ni 8.528535264840263 2.2541431656299995 1.249531742853649 0.5877181872256975 0.07010421301625346 -0.24855059948403646
Ni 6.813212119633633 0.7007047174873613 4.68257214840087 -0.5367920897997916 -0.03940446993955149 -0.16193270508347596
Ni 0.6328669517559526 7.250629024262777 2.5391428465484385 0.36188456972320254 -0.3306999165902821 -0.00799818771412816
Ni 7.504515116365441 3.776640062575594 3.815859235323081 0.4934785146138211 -0.2186898073688621 0.1213331863945588
Ni 7.597829761917774 3.9126578678348385 12.481793109975019 0.7427580218440822 -0.2510132020919161 -0.024583602876635084
Ni 8.054089739760768 8.934282836094697 6.7766978105984395 -0.5858561943162943 0.14034006651436476 0.057341256923630284
Ni 7.05855037403078 0.40739859196193784 0.368512685805709 -0.8577454685262712 1.1221304639394027 -0.6831400530711332
Ni 1.8240581260085384 6.314537212649139 9.352449541836348 0.3162883691506424 1.218009214816599 -0.14567227736055557
Ni 0.1115650446660525 4.686106575709242 1.4309179398293557 0.801831945188103 0.023935427769674906 -0.5661075509344572
Ni 6.336370677979145 1.9678941853546004 6.804039181889376 0.9926278543601744 0.31868232330411567 0.5779081431138111
Ni 3.4814919635930806 4.198060170824339 0.6730453918539536 -0.21096955590646893 0.08213414759759402 -0.5483900790500362
Ni 5.944926548533312 5.617208395659174 4.877179121123846 0.5211556688141153 0.1393990427573341 0.05578496818010393
Ni 5.393550484104156 2.916433954511995 9.3410725409872 -0.12326922707500705 -0.022809798805663944 -0.456118328797808
P 0.3985391049575677 5.379220020680048 12.356819038973663 -0.8751778050701057 1.5605709158414736 -0.3067657743721878
P 3.935860428350554 6.024676343100914 12.795930198895123 0.31412864249516226 0.6138390526824654 -1.4797056076539743
P 2.2012978929026312 8.29106930776095 1.36475191137734 1.0251240272156668 0.43230862797272 0.3513818704196658
P 6.3329839688355465 7.80896765828768 5.829489306365044 -0.2875220956512274 0.09553139484010645 -1.0686139800785015
P 4.811549922099911 1.1664510838144977 12.5108089207069 -0.8380726726876921 -1.1984626601432393 0.49222150227826844
P 3.824846624640853 6.176375692559638 8.327317003523135 -0.29520558033841415 -0.3212318291988468 -0.7374201545709365
P 4.704346166176758 1.2090641714697183 3.6088601497283963 -0.37868647177188974 -0.6043365125086689 0.4614240572814376
P 0.2456075698317041 5.230619149799509 3.638245255872212 0.6035762373038767 1.6518029119752777 0.365972366639331
Ni 1.3832635194409648 1.0711818747404607 2.4251629701765385 -0.08019425026240383 0.0559906564330068 0.286893460928293
Ni 1.7915691369634357 6.436936123692639 4.767273203649949 0.4903955048131232 0.16734847678240855 -0.3646593042548623
Ni 5.833309262077278 5.560670168812456 9.1212336844239 0.3847316495247052 0.5684966199919241 1.3662898763342792
Ni 8.474338911337524 2.394763652730677 10.134752332392019 0.6881632173173374 -0.23223874969789035 -0.12843688731887556
Ni 2.069207229097133 5.284734438455727 7.130278351674741 1.8842519779117615 0.051070336313253986 -0.355369137202188
Ni 0.45707422919028445 0.3269687534040657 9.136618891573317 0.983331516659913 0.006554256178750002 0.0009950169234176412
Ni 1.631556137133591 1.0116712701879256 11.502695496560786 -0.7813191699467318 1.3557329267540392 -1.2051657831950275
Ni 4.16174311958235 6.801790983479158 1.6853750887397438 -0.055723775924865326 0.24504232922046185 -0.2774150891242126
Ni 5.455420976411007 7.730010497774964 7.825652605143003 -0.35363415678895227 1.1736833963160302 1.3074121281614643
Ni 5.235627155873553 3.028816853407406 4.771465156935669 0.08728998076692064 -0.7123166746350893 0.03885296831145567
Ni 0.8426663774377244 7.511720880500757 6.928420578790604 -0.17949951032264572 -0.03844133469533379 -0.331055757267804
Ni 5.0218501483890865 4.668209259038153 7.14675703353169 0.01758840250572455 -0.6230767692306495 -0.7442104380198925
Ni 8.290069507987175 7.39487040784145 9.179976875096026 -0.6589508574194393 -1.0595099608947043 0.2892964139428308
Ni 4.682026311767619 0.24394033615489552 10.241033750505851 -0.1367844879526225 0.33268737933395603 0.06736110305347753
Ni 8.130137573003852 7.272921857056408 4.57584307219013 -0.6375050288408376 -0.6235866189875325 1.1622376163729338
Ni 7.283163049333726 6.327705746606428 7.0936820770725095 -0.3284499442138408 -0.42633261289494323 -0.33464810260475264
Ni 2.3313619355450714 5.054618360794433 2.6018537110975704 -0.5427516498173361 0.7422224610555862 0.9840588817442405
Ni 2.4432044021303336 5.022822926547354 11.261816709442884 0.05445442229413847 0.6149711094043796 1.3464314468474552
Ni 1.0235427666008576 3.12864370829703 3.7843781525364055 -0.33140054220173254 0.8926211973575338 -0.009746794974118697
Ni 3.422206539169774 2.9619563694368494 3.03118304620534 0.46501820239059916 -0.4409228520042922 -0.9418704213016489
Ni 1.2151800637795673 3.291944338013612 8.206745654408456 -1.0068612243507369 -0.5931151898715528 0.010768294260097584
Ni 3.6714719350206675 2.4759906289460187 7.006991330201564 -0.1342663495164591 1.216205328838641 -0.6094056995014601
Ni 4.11153695796954 7.000877239332749 5.851254316935764 -0.4417700304959359 -0.492704612562274 0.4354471736017016
Ni 0.7752726669211545 7.44865242990641 11.510855123723514 0.013169190392106352 -0.880547039801819 -0.5915547873629683
P 0.20229552305535783 5.751803062501693 8.011532496777596 -0.7302925423872197 -0.5343127750213637 1.3333607297064263
P 8.537857722190328 1.8176900319539537 7.8323755830812525 -0.755902015425208 -0.20016423776084882 0.3137635458462596
P 1.7756624126347273 3.0928851037755276 10.384134821910111 0.5257785122981073 -1.0233119137075926 -0.4558067110946602
P 3.9946594636947266 6.036809048463751 3.7993544325711412 -0.40937233089152075 0.15837326986699177 -0.2688188628147693
P 6.959714311709761 4.032985121689435 10.335028440048454 -0.2097007164963743 0.6859705805413928 0.09143614172481027
P 6.162666726292201 7.598973676974256 10.106752534403217 0.1700234525114104 0.7777499645382348 -0.5217375094595144
P 2.433809887138916 8.442156167268172 5.620618523536211 0.15395097242958 0.2336366584866815 0.5116844960988864
P 7.120123628567048 3.9409134704504436 1.584327757549701 -1.6120150905543786 0.20311534996937278 -0.30371721735385115
Ni 5.394406168595225 2.9973006425205706 0.4343544548716354 0.3450806107919863 -0.6614947068872156 -0.5874466787318656
Ni 1.4214540693581361 1.0355223494758192 6.720209123380152 -0.36844139700511386 0.7572289617667475 1.259708137217282
Ni 7.031654859395715 0.6496725951605417 9.174334761778073 -1.325758491879136 -0.13727248333263456 -0.9815168320486775
Ni 2.7536917715159 1.3975399396340584 9.100141512079317 0.16613954407597195 1.169633651726689 0.6801979397236737
Ni 6.30853841400649 1.98368381601611 2.335888056142567 1.1071897834691706 0.07762803219712436 1.5448984994115393
Ni 4.014385243015152 6.805655074496721 10.556106688043029 0.20006627873040383 0.029138312126853045 -0.1183627909123252
Ni 8.180965231773332 6.938961711000053 0.3091795231950061 0.9285189396954073 0.19413242974447212 0.1762861455916706
Ni 7.69480133276878 4.080110819134396 8.129137773230076 -0.05425876134356462 -0.6459001948830683 -0.25627316493927477
Ni 2.9042472059181432 8.237404379363188 12.360931728853894 1.2550744951000126 -0.49316458291782805 0.5073681281117198
Ni 0.15231183941022655 4.67464941073409 10.178744423158635 -0.4997224386410039 0.9880566900497242 0.27371989966081245
Ni 8.526733823806435 2.298242442138129 5.602176270952389 0.5478846001685274 0.6386946782735645 0.7922314459838614
Ni 3.7196784970859262 2.8735056146758544 11.457359530782933 -0.5888422735278117 -1.6844399812840087 0.021302103911885893
Ni 1.0874398800707659 3.3694783601096043 12.473053418799399 -0.11793393090502269 -1.2788518000252684 0.733044394100744
Ni 2.899248207049268 8.41364836290783 7.895232364354125 1.15188018439801 -1.108561981226349 -0.14509326492863397
Ni 5.382822902747705 7.815804127011062 3.668394173014371 1.124323872046296 0.23436839444638347 -0.21567338914004144
Ni 3.057225578510886 8.439661171436319 3.4812496697740305 -0.13980142040207538 -0.14517065513378868 -0.38110382296413076
Ni 3.3438438541982203 4.042550773579066 9.160597873174613 0.3780598939314844 0.95586879246327 -0.525517802437553
Ni 7.152252329405385 6.265709153427209 11.382664579756256 0.7918735484238104 -1.5642851314682673 -0.30725017020777406
Ni 0.4896929219898228 0.07021116429347816 0.2837422750768263 -0.11240785888047093 -0.6016437961678541 0.1902840025326594
Ni 4.7543992053016915 0.3941066592938319 1.5726472138863548 -0.23039269762808706 -1.1873223272557034 -0.4798344414678252
Ni 6.120035624226642 5.54316016196364 0.4310181860769844 -0.5885139436541155 0.7175491266786224 0.7006898890294384
Ni 7.739711257742132 -0.3206916321216892 11.302947211127263 0.2240191900015755 0.21735540482815469 0.12310184825920736
Ni -0.004675640203302696 5.13894381558796 5.918118403788388 -0.7257208638561372 -1.6045928299483785 -1.1915754461051027
Ni 7.73627050536752 8.731026244247792 2.5554107598044293 0.6199150836732162 0.20516889006429181 0.49754959935940113
P 8.387806691277556 1.5951670282502488 3.5121236669323053 0.33426295135119205 0.11947325036768455 -0.7973137456027752
P 1.810340152535932 3.0551719357323215 1.5157495995533885 -0.5988060696087429 0.040150604076956656 -0.06150541560364891
P 4.868556523615425 1.2064971179965125 8.12192660477166 -0.28030089531243985 -2.430878280193155 1.2541506977341625
P 8.491515651595082 1.5678481749722348 12.205096270781498 0.07149466560587688 0.28826308758231 0.44188110215250354
P 6.387900898751818 7.59071406983415 1.3409836983770027 -1.3043851684096828 -0.5508022880359545 0.6379804258153593
P 1.8603751772505275 3.2541140763032073 6.075536427809003 -1.113327263825476 -0.019491790176024495 -0.8249525903659662
P 6.874452107578644 3.9224486998536983 5.969215377992425 0.02526983031038229 0.9817973394035736 0.46379024352076903
P 2.291559095902624 8.424790275702062 10.08515866073071 0.3758158350923141 -0.14909904365391743 0.7121711501961605
