# total energy = -340868.11675218586 ev
CRYSTAL
PRIMVEC
9.30330206446059 0.00000000000000 0.00000000000000

0.00000000000000 9.30330206446059 0.00000000000000

0.00000000000000 0.00000000000000 13.61632296352021

PRIMCOORD
 96 1
Ni 5.833002921311457 2.971911927621815 13.121682349275572 -2.370576655089621 -0.32963573699182586 -0.014016625994066183
Ni 0.5358674066666403 7.21268261423803 7.027152443582475 0.14243808669397404 0.24169732400762894 -0.05284105506043158
Ni 7.9283949436819565 3.8663965091175085 4.737963336361311 -0.6922515284540982 -2.6054623554920546 0.753759000940276
Ni 9.023812242695033 1.772111579690085 12.334958845670222 -0.761402890638779 -0.15218642432998952 0.6872695018584744
Ni 4.56995872609372 6.610600815943162 4.862429423399455 -1.6251238600221947 -1.019010201008445 1.1529016836839887
Ni 2.32777920409412 0.23166059383408846 2.227576128783235 0.8877957509444323 3.423268307510911 0.5252961733450502
Ni 2.630908694550132 8.621770044921455 6.639060547221864 -0.7972672086355559 0.1001588663097888 0.33622341751167256
Ni 0.814054744346279 6.325752314000978 12.409971370040196 0.3099518854096533 0.2251509896131735 1.108145976734853
Ni 7.149522496670407 9.123822739653637 3.4789428192770244 1.163515454644093 0.3545484410731055 -0.7335475589894076
Ni 7.779774693550453 7.433784890583903 12.420483171018198 1.4114800997176724 -0.8351305593402327 2.099897342027345
Ni 4.48674068932212 0.9559049815813385 7.047699716473895 0.46982873640536504 0.07789388426400133 -0.12861557898858494
Ni 1.9745886453465513 8.521136226725995 13.284111490628998 -0.910882971781199 -0.3754792776885017 -0.18029603808201206
Ni 6.293116330435324 2.0864887623156734 3.7000311406698336 0.28957589285646257 -0.6691982461790604 -0.027455525107791423
Ni 5.54178165747005 4.391158564135824 3.2735407954583455 0.3479376206248072 0.6618117239070022 0.31029127102694304
Ni 7.684862406111229 4.210841963944976 13.16918966115642 1.025428702940279 -1.2453567535916166 -0.7439286451134156
Ni 7.935232870683312 8.90746514734952 7.561661568150887 1.295288091204421 4.816820876215885 0.617335495871498
Ni 0.44819029722599363 9.236606670316812 5.609612032663089 0.08346880724861754 0.9528261489822042 0.06762541245845773
Ni 3.884221635831246 2.4137975347805605 3.9680555511980695 -0.8252459532366692 -0.27575672758518316 0.37037203836892346
Ni 1.6517454578621416 0.7493549302905955 11.289919857548355 0.2938310685883907 -1.394298188621747 -0.6565183367185468
Ni 4.642310506079491 7.573697250003477 1.1754015079946483 1.9163807401255057 1.5329225579965857 0.44627897410988304
Ni 0.3989432678631695 6.106752583916745 3.060255153488716 -0.047969071680110935 -0.5870635843608341 -0.7163453361785083
Ni 3.313771064481423 6.366277497698808 -0.11148239870740678 -1.8458109003267438 -1.9016565465414537 -0.5763299999934138
Ni 6.644874180668324 0.46553072190330885 13.515493915732012 -0.8957324892930058 -0.17325147253040485 0.70516000898565
Ni 4.947737912140041 5.157545979806123 11.748694521508284 0.35821431996046693 0.10519977116780592 -1.0029770588049822
P 3.9147550731352583 5.777945979822991 2.9809668314999365 -0.2748290735645912 0.34204568062040447 -1.084204635427907
P 7.07015602694447 5.571728986745375 11.704195897508036 0.25402370678346575 -0.17144964343497568 -1.3312436833634234
P 0.5091622781531829 8.000653690647301 11.162225524701409 0.7135520897040872 1.0296257717407624 0.4033369233307183
P 2.3120845335481515 5.847664925330689 9.007551931384873 -0.5802787002285167 0.7269087135166513 -0.4665567505223126
P 5.778541391153722 1.2770735746980695 11.695100989431129 -0.689923908762186 -0.4789188716320914 -0.9238107355864607
P 4.100858327196642 8.140538140160746 12.677939960756177 0.22115832351401268 -0.1405274999348225 -0.8803328669084839
P 1.6264869928163181 3.803924835901042 6.3218272508691795 -1.3163950483863651 1.486075258625744 0.21974807343004737
P 7.815099331406435 4.965274636490456 3.0136325856321267 -0.5752334244951255 0.7280464266655203 -2.1872942806857747
Ni 1.0077243739589583 4.0251201452673415 13.060395916739342 0.55611161606401 0.19307776322771264 1.0909380974969987
Ni 6.476419290581867 0.6442732033885392 5.628157234954929 -0.3152301030894571 -0.8126154089568521 0.19038736087974306
Ni 9.109914303099858 4.649706631203406 10.97536870317457 -2.4730099192558828 -0.8169564595343671 0.327306574638017
Ni 9.316233632499944 5.41247506237911 5.594007604146935 1.339010728903352 0.05538773274168526 0.1917850125582181
Ni 8.6168951146511 -0.23111262934377574 0.9965213376391865 0.1040088361834983 -0.6963773776970136 -0.3219098291024779
Ni 2.1061745494379434 4.736385496334876 2.233608389827696 0.5037996940341711 1.7192041242380716 0.17644298288450905
Ni 4.496239360707676 6.0364196204742315 9.50682107814589 -1.3098618752535376 0.7778857187851507 0.24043851189986334
Ni 0.9956952044177981 2.925330294294213 4.2616091528615705 -0.23571179584815538 0.14268259860461233 0.524126321406665
Ni 5.406930294361684 3.8552604565724433 9.330272315282318 -0.02677649676289582 -1.205760479356233 -0.08429181737054516
Ni 7.455656953686198 -0.09745581021768732 11.181261011010898 -0.4439750085670547 3.83218118226751 0.9648298583112996
Ni 8.214908736689775 7.806884515702766 9.735180860415243 0.1956054147455728 -1.6766173999157963 -1.937912957770327
Ni 1.8517385418732175 1.5868549261145837 0.36780697658679284 -1.698134962272598 1.4949663904677868 -0.4251833297818484
Ni 3.7627205111540976 3.9894419819337377 6.406071441856084 2.118412627222713 -1.7037319967444013 0.33973297332682784
Ni 6.897337888200005 3.1092565756776143 1.6666512083948926 -1.8908203751578985 2.83856551007277 1.427207280644942
Ni 7.561928572919511 4.691673826717849 7.0748504731551956 -0.5238540415818849 -0.4415365743288912 -0.046927517789474016
Ni -0.0077663965452131065 5.423880910683413 8.804341765527443 0.7819884280996144 0.6533152564002167 -0.911290748742579
Ni 9.280015877647866 2.4238264943825483 6.6629709638017065 -0.49154735902937924 -0.32838875195860223 0.6046368173579071
Ni 7.189591818568147 2.7194389167880906 11.06567213478186 0.21597960752655063 1.029671280266717 -1.3092954612271064
Ni 1.300824904812982 3.1798686381814085 8.796566996010393 0.10663933182780991 -0.07180191243365053 0.00873815120394624
Ni 2.7071492547897362 6.979123216457035 10.962065911583771 0.47017789221466766 0.7459407904474379 0.4720236871741548
Ni 7.348780619820113 7.0442277241515745 7.173487802732301 -1.22352140288408 -3.5498511723401833 0.23641422123181866
Ni 5.988991386660748 5.489180787720847 1.0139436313744772 -0.31486372088897385 -0.6035399847493025 -0.05295289804794751
Ni 2.04357262999288 4.676025672682093 10.823900712287807 2.1031081356551584 0.29860946381364056 -0.2674294386664104
Ni 8.686018648828068 5.761293069166628 0.741373627468197 -0.32967893152493544 1.0787109593031874 1.0589345480072085
P 1.3839592118661976 2.7838735867355577 11.395432327334987 0.1477039630786037 -0.16127347423292224 -0.5297773490448554
P 5.735783414965653 3.520453222661172 5.232766898141851 -0.5315303271802201 -0.0728573502813584 1.9753307362971528
P 2.0210958522578117 2.531028443820127 2.428484657715309 -0.2506658460548264 -0.9095670811832529 -0.4949067624199155
P 8.088746657689256 3.534659364880315 8.77901538637671 -0.16280867993052608 -0.8336226073361386 0.9262759092975015
P 6.887783397002193 7.493232990636504 0.919950510177068 0.33079041942155935 0.7325016342233965 0.1909460615966905
P 5.513285643313381 0.7428965780125805 2.0476093327491904 -0.28133370745232833 -0.036635134724530456 -0.23420050140995147
P 0.7322331332112828 0.531016664981597 7.855038407075577 -0.9223632045066567 -0.40749439714251756 -0.44140673361924626
P 6.007477047819514 7.937372630153124 9.136947838175422 1.3079407469714248 -0.12129616250903626 -0.5191782333727704
Ni 6.025218444814868 7.206998296689965 3.1260220562886927 1.0805891501625067 -2.1678721674054215 -1.8533432041480467
Ni 8.428819560556672 1.1950277539838452 9.483387920960835 0.8489625801273186 1.3248832883630346 -1.2081135529694418
Ni 6.7592303693767075 5.682754593322487 9.355666608537966 1.8510078711466507 0.4812783730032033 0.6008804356392684
Ni 2.058020658065132 7.45332182487349 4.4981521196076475 0.5370024060383848 0.24457747376890138 1.4813354299479131
Ni 2.620042437764304 7.474821755894079 2.2632505707960213 -0.32436728950403493 -3.311150983287665 -0.47584074692739986
Ni 5.179343616492077 5.680763686685358 7.259052132279059 1.8662190316694502 0.12810238679759228 -0.4175337836563906
Ni 8.846137780284302 1.720078211365484 2.628862898430951 0.7374970305554589 -1.9416729390333916 2.616611687240655
Ni 5.446190228981712 1.239525447653891 9.19598752326835 0.4491503821204071 -0.11283774732903791 0.5737115885339603
Ni 2.5481744294847504 0.8198879147270273 8.833507617431184 1.3654347274228356 1.4412480750087244 0.12766941302523174
Ni 5.792077695625792 7.6652138321971295 11.248335027747867 -1.2324166484911807 -1.5989027215421365 0.2564932513698809
Ni 3.8300578113388757 3.427727211201973 1.6874980476120864 2.3109270617477877 -0.9117273220593652 -1.5729286660758781
Ni 3.016391014687776 6.013645137073798 6.8799872298904425 -2.4370820950110224 2.035649073571236 0.5176157739816569
Ni 0.45155158025400693 8.559223945288647 3.001323386699483 -1.1731586341608118 0.4352517697614439 0.47909833463274915
Ni 9.478948385226078 3.716129574524454 1.7292726647742456 -1.1426195850316903 0.13109515087732906 -0.21407056342929584
Ni 3.9924841617016877 2.3172013496716146 11.043954506493472 -0.695062515540332 1.6561372776845735 0.14349043921788837
Ni 6.561172372190505 2.390371820237141 7.099468871020485 0.104838016953013 0.7658249309658746 0.7533915902985282
Ni 4.13522472494223 8.198051153388475 8.277730214063046 0.05785393489399069 -0.2062423256341287 0.3668095178286457
Ni 3.8526834419066263 0.5762167579558638 0.3040402837259883 2.255283504241554 0.4875968590220635 0.6272255012917005
Ni 3.9666954084394326 0.02357549770630634 10.83679601924914 0.27763594688576704 -1.0768237695828036 0.0395988453385447
Ni 2.603101124744619 1.9161359986125146 6.151309818719866 -1.318356285877794 -0.33168516332168685 0.9992970388502339
Ni 1.4127994481984456 8.044100111186527 9.141712989481674 0.014798241355097098 -0.4932039207961958 -0.2119584021822995
Ni 6.8632319829116115 6.069613802162444 5.03494892614835 0.9344170503473972 -0.30298650983541364 0.027787197415597303
Ni 2.432143646408687 4.978699301338015 4.720915035368135 0.011922205358882693 0.6984645992433455 -1.3278043186645714
Ni 4.603952991757602 8.791629733616352 3.753080429577493 -0.6806710227053503 1.6696039447124407 -0.10481307725234852
P 8.151488126664958 1.987566751696063 0.7451247188517977 1.8872259729384209 -1.8120219768017567 -4.021216399994732
P 0.7617339039885598 7.332406808225031 1.0918987901805433 0.4886291569413198 0.14904993558353685 0.07649211882046825
P 2.9539751612835654 0.4064166103940388 4.812294859021762 -0.025676578830497714 -1.1145935321324094 -1.3943907483355533
P 3.786378808248584 4.258028311905351 13.19231022739284 -0.5650875943103753 -1.3350208910176684 0.9552836093837613
P 9.109970122912113 7.363917092243521 4.683715782150556 -1.0215100846121634 0.17574312860400698 1.247902917052238
P 5.69475585295752 7.9497460218698635 6.039779042841836 0.14027707448691326 0.4822227391943437 0.3548795991602791
P 8.368431826997762 1.4768805926682922 4.848445630099132 -0.29340477968424955 0.38589970169087734 -0.8469846304653413
P 3.722660492558401 2.89500152963514 8.426448148865997 -0.1407936091120156 -1.5692818133519104 -0.06373430493416765
