# total energy = -340888.03053964244 ev
CRYSTAL
PRIMVEC
9.10654106649971 0.00000000000000 0.00000000000000
0.00000000000000 9.10654106649971 0.00000000000000
0.00000000000000 0.00000000000000 13.32834335410465
PRIMCOORD
 96 1
Ni 6.595421611446803 2.1432062715975295 11.342940228540225 -0.1111549603099763 0.1935873558742795 0.4728441261929212
Ni 4.9148549552952066 0.7501531572994068 5.811118013781989 -0.5426102391434655 -0.5002407730383192 -0.6152220490729211
Ni 2.8001521578300266 2.0299300049098936 4.674943125896881 1.0337163968703682 -1.4073696770937245 0.5031633460017528
Ni 3.4632540659518107 4.729946635085186 4.849117565928052 1.1946443148384136 0.2097302841827291 -0.5335730686418617
Ni 3.917233360662962 3.137330954387338 2.3948363982845144 1.1084514237904137 -1.2960851331844194 0.13678345951135798
Ni 5.572665962947055 4.809319248675461 2.320491506121866 -0.38671654116521786 0.3355456747183576 1.5834768739053697
Ni 5.679258028352537 3.3868775044348722 0.33669706052485093 -0.44353509281615866 -0.30745483001941243 -0.19070412078921348
Ni 6.092676788307942 8.10026844751603 12.299555067895163 -1.0010831842163792 0.22150747932331527 0.17638436173243172
Ni 2.1388624514182544 6.7895275383257285 0.0044412601707178945 -0.5111227100581455 0.13509270207249638 1.7465503774615083
Ni 0.4271951355679988 0.1616329114129362 0.12179725734119463 0.676439501122506 0.2178125469702313 0.5657774212885481
Ni 7.8893154193128705 8.970088842156771 6.96243343715989 1.0599187662973488 0.4004873696970651 -0.8835593442655815
Ni 0.07929338668134493 2.3551428062563717 1.4020348959392523 -0.3415857102648504 1.280806352648478 -0.607792075157437
Ni 7.277146396437807 0.6439654223257077 4.608501800890612 -1.2916080712496725 -0.814214635123172 -0.587219393212408
Ni 0.6861460107709573 7.654111671744075 2.6777438515705314 0.8617635885467287 0.46921604252203064 -1.5827451379456676
Ni 7.9969365238803185 4.179009995617763 3.6897783690491877 0.5028707544619985 -0.9634057242702634 0.3683159271708431
Ni 7.640743269179765 4.085986676684232 12.365824279271688 1.596610068853218 0.6246034902878211 0.09750651628860627
Ni 8.5637549712988 7.587888903727957 8.841116540959705 -0.8754608835281632 -1.011074491101136 0.9569969925304421
Ni 7.225985847659679 0.9916385970268274 0.19462591038466254 -0.9465020065363894 0.19193027988683076 -0.9371033389303086
Ni 2.0430343177777694 7.187874972501889 9.185547786973569 -0.06714538749824564 -2.4966848942753197 -0.2080320705446998
Ni 0.5001294244900403 5.241288033170034 1.391518662096429 -0.4956528965573206 -0.21438809466971465 -0.17727164943339146
Ni 6.435583599315492 2.220220291002412 6.980186639339128 1.4415789759855817 1.2021377950019811 -0.16285213157395179
Ni 3.4396863371803983 4.428064792437455 13.082862409946534 1.0674323010655746 0.5439955495267663 0.867236695846158
Ni 6.20736456889031 5.684822125060161 4.678261549530692 -0.23179986238825886 1.1233198562618139 -0.8467815133155998
Ni 5.434874887197347 2.871948129095025 9.40387984555674 -0.8486784732279964 0.46905689123634703 -0.45563573273443464
P 0.30005871308821097 5.830417506666554 12.357013700606178 1.1361897702459465 -1.3170247115505642 -0.11027050082249397
P 4.303259644519291 6.487636589136742 12.659167828837473 -0.13558763943104393 -0.979932261170377 -0.21433641549617277
P 2.2831100649187084 8.861001584447054 1.3090871612981487 0.4286939140382681 -2.375184329064961 -1.1901816510813694
P 6.686869498742987 7.687641956649926 5.5224789034292305 -1.3882362986983834 1.2639139477685137 0.26882940433773056
P 4.983745939899431 1.5173045845079012 12.86477076405253 0.16661622660207437 -1.8626074030587922 0.4501420566097151
P 4.082353166722952 6.481052559808407 8.099914203061157 0.9038358351264304 0.8985766436100201 -0.06864588330317209
P 5.028413524761788 1.318563428129498 3.609115358562889 0.4059573916727009 0.3477339892544334 0.03025648489169628
P 0.5318584355353864 5.827120938731758 3.6928973594294843 -0.41588262120621283 -1.8826658643715641 -1.599787438139935
Ni 0.7128044996447722 -0.058637929803710465 4.649845498194403 -0.535457173038452 2.3727119562650683 -0.4173136972257845
Ni 1.9904258289398828 7.01167250573293 4.692723647699888 1.3250727786660212 -1.4719840706400003 0.36328504961515495
Ni 6.101573879115388 6.042763835681932 9.075135527511051 0.6487317507945924 -0.9296538246307989 -0.0195601815201147
Ni 8.917061452421093 2.4094724313917073 9.92399175352557 0.09214885152111871 -0.20399363880926802 0.2669113613794113
Ni 2.486613942374179 5.51819063315162 6.967364629250199 1.296558473276412 1.6717996668121788 0.1541026675160959
Ni 0.9329287255471918 0.1732310023570131 9.076695478028263 -0.4660065344457974 0.9779951920486641 0.1584653153601658
Ni 1.3117608418110107 0.9898719280230971 11.423883720497221 0.7375245413592847 1.0316124631534878 -1.22148251807718
Ni 4.224142014084194 7.256638465528525 1.5527654561600963 0.5481656217440559 0.3720319425698496 -1.2554994984525731
Ni 5.847137116413198 8.202835421686206 7.768118283040469 -0.7098455873867775 -0.17622983843243842 0.11498564690997616
Ni 5.501197827167285 3.213825900940609 4.691843955814526 0.22090995494863247 -0.2554537543617729 -0.01351783198077672
Ni 1.2872096065839131 7.837617584600619 6.925633903943013 -1.372770084741984 -0.6269233966702493 0.034193872272889496
Ni 5.188816142450993 5.094408629246497 6.734092379081874 0.032294084147015345 -0.27571250461080904 0.6247369305418918
Ni 0.8134609214593694 7.728466581102106 11.403144483440027 -0.024225191095951826 -0.0516892008441755 -0.6006567496642365
Ni 4.7491978633010925 0.40593682565919453 10.40561122225797 0.19584864110463046 0.3342266987966179 0.15374245596319974
Ni 8.650258006692793 7.0926569771255785 5.0672365314458245 -0.3759454186916429 0.3100763268026595 -0.08279363555846386
Ni 7.571032695862469 6.254126658241625 7.041883456350844 0.031224762342236544 -0.8039664750326025 -0.028052278151525882
Ni 3.1123517117211925 5.302046876432346 2.514418944792167 -2.099413460412391 -0.12356079017349689 -1.803140872262043
Ni 2.395493890563223 5.677145310781065 11.210589400537057 0.2139476646981864 -0.33854409522504925 0.24287308948328493
Ni 1.6609602728266932 3.6506666850073253 3.5039411816310206 -2.08843022192801 0.8772825101179345 0.4754021167280844
Ni 2.1607727896810127 1.5046009594553045 2.30639002698642 -0.9933917291093923 0.8012873855385426 2.1063258712615083
Ni 1.6798199197685768 3.5702468191725707 8.024622230607848 -1.579702751574918 -0.7409749618017303 2.633199930616639
Ni 3.929845920302996 3.068786018350853 7.035232949271338 1.520851485764665 -0.5989780764102329 0.6650628838544481
Ni 4.36786144819178 7.411367708015028 5.846037956883557 0.06080864664694043 -0.7325270881446931 -0.6313750046836998
Ni 8.3162664995752 7.295231987372901 0.022260940101127526 0.1558556456514606 0.7686156063371343 0.9927157860882904
P 0.6306853532115845 5.746063615009061 7.965204780872595 -1.4534423030820711 0.8977127529478282 0.8719844949437887
P 8.80213690176606 1.6905656384510603 7.8293087763583324 -0.18925684681972565 -0.33089943419559786 0.3495317045848045
P 2.2922530323400756 3.387105167966281 10.226984594206574 -1.8506301760922579 0.11521216109848545 2.086210845679188
P 4.1322205866426795 6.554442175793265 3.6696128440911444 1.9521077612134703 0.6767305500003635 1.6761720848482615
P 7.178695578915495 4.053048316960044 9.9497022514546 -0.10595490416627558 0.8921938800121281 0.7833408283624509
P 6.412671541514536 8.064670977744989 10.000563195025395 0.7803874021610818 -0.6659581419752079 0.08087893503425427
P 2.661477747578454 8.987127180847388 5.5783648364652745 0.790655102635677 -0.08432601304259026 0.9713897709170044
P 7.421703632340976 4.239158700615901 1.3974898211982123 0.69419862487814 -0.6750971281619986 0.24495748281613944
Ni 2.412432057300018 1.7629808545214902 13.315628336421007 1.3576571403599458 0.03926563036884206 0.6960184516956981
Ni 1.6848558370833342 1.1813369579376833 6.929272877829048 -0.31075998313324543 1.5291144971044053 0.28859373144885136
Ni 6.985072298723156 0.8754327560170266 9.201368581098212 -0.09750523073702562 0.5561602099137584 -1.6392795826972866
Ni 2.847688303188131 1.5793110239223325 9.28100528438492 0.7811042257224483 -0.11356974039905601 -0.464080006847046
Ni 6.840305612371091 2.0649628691230406 2.287317286979138 -0.9477955285368322 1.340544134828743 1.2411283173325658
Ni 4.388961304282724 6.990253920698014 10.465269084682392 -0.3296668473400774 0.5245423258981612 0.20248003037821904
Ni 7.598042697228779 6.576561964504919 11.149585591314949 -0.08001401593079768 -1.0356449813516486 -0.5346027954579567
Ni 8.323824928817963 3.9212766649807778 8.05781010956246 -0.609037517528764 0.4448694953568661 -0.8031954011945328
Ni 3.5052261146022903 8.590746759582599 12.562963595043101 0.5382360213351698 1.030209412158374 0.6901074855279018
Ni 0.295060132592605 4.7601985651387535 10.454232867333829 -0.46003334758149805 0.2126348594240338 -1.4017764992766633
Ni 8.543747900158618 2.1732123250371758 5.666252066130229 0.9304187278212815 1.986309861016476 0.503003680495437
Ni 4.009801352533676 2.679199076863295 11.463748515500983 -0.7268732322930256 0.6973027177247604 -0.9213028815629424
Ni 1.2769556411292722 3.6646543323770664 12.521259278705559 -1.2361951416970065 0.49358881493944035 -0.595169244187104
Ni 3.328750451595643 8.621954876468083 7.8849151385778065 1.3460393536153592 0.7369139043584793 -0.3862624843469348
Ni 5.899709179086059 8.131194261622566 3.2892216879642397 -0.23266143905760575 -0.09029020104582515 0.304700664313043
Ni 3.371023016107581 8.582022693059022 3.6152194731670146 0.3889024930729431 1.4963396166662295 -1.0558016588051817
Ni 3.5556308204561424 4.723344392674338 9.33362561172644 1.9777807404995422 0.6089025346127965 -1.0365014158146728
Ni 5.5389808668398475 4.800540542904347 11.360373791121367 -0.6763870506180157 0.1889619412871262 -0.27280612959729145
Ni 8.085743514212163 0.11587072029156739 2.1840227001625787 0.3871402589661978 -0.9047640033676547 0.6368185442967743
Ni 4.389307352850465 0.6698125183735827 1.6008807775421037 0.676713580719499 0.41825420676218295 -0.7581283336525653
Ni 6.34826097520843 5.86697116326951 0.31838198475009627 -1.0182710088495754 0.327814624622687 -1.265900639181239
Ni 7.986099739785272 0.18757835810637963 11.168671991134117 1.0431932260125518 -0.9754454290436169 0.6697759730594013
Ni 0.5535037734475852 4.9341972489236765 5.72525698954657 -1.1762390728583485 -0.5535898780834207 0.10389622186503397
Ni 7.628850126298983 6.283203844473125 2.4562135756981327 -0.016639408328893924 0.6287529936798204 0.28354768438451167
P -0.14771811637324592 1.8204704494727761 3.537289335711744 0.15807913566534063 -0.28249636030186187 -0.3114320694996056
P 2.0538164626252784 3.7448101085153866 1.3460023475889813 0.5494491164421699 -1.7304560430028069 -1.0595174170938721
P 4.866954548286848 1.2818458537839277 8.022569616208669 -0.8224894735374544 -1.0498248723964563 0.8063992528438112
P 8.782293748368492 2.1369409712131664 12.235072559913133 -1.1646801643761553 -0.9708747789537988 0.9354053824025955
P 6.552384097469331 7.8976661176449365 1.1301062887918814 -0.26476037647467954 0.5970970573374361 1.4209060210172626
P 2.18851131434783 3.5526074487590367 6.084015556919034 -0.7861425594773042 -1.4770265181599145 -3.046824866136927
P 7.30116034573078 4.252117308823675 5.934111870644267 -0.5398694431735347 -0.9144195241795477 0.1645475169985037
P 2.6784705535627875 8.650349072105355 10.543453294638713 0.35813050199740903 0.5270854040349889 -0.6243744049961505
