# total energy = -381171.0753328897 ev
CRYSTAL
PRIMVEC
9.18739811347491 0.00000000000000 0.00000000000000
0.00000000000000 9.18739811347491 0.00000000000000
0.00000000000000 0.00000000000000 13.44668581550498
PRIMCOORD
 96 1
Ni 3.680361368491031 6.174014106459228 4.772443475126703 -0.37192292779581104 0.75426679381463 1.3682575415836113
Ni 1.9739032613531347 4.157756940573896 10.463484340209899 -0.45239460008931764 -0.9664522244060711 0.07696854423625454
Ni 1.9559970227559 5.636395140838716 1.1357112220028083 -0.12835641178992732 1.1848484117939142 -0.936845971503864
Ni 1.743933503360636 2.1018010281628334 11.740045722647025 0.01065233750752359 -0.9768561933482145 -0.40513361021982486
Ni 7.471752441162452 7.6205974752895935 12.248504805925945 -0.9983256760759001 0.9750939592414691 0.041707407041115266
Ni 2.963725953887904 8.508173616080583 4.493424955718578 0.9614959088420602 0.052428135892729065 -0.2127086500847627
Ni 8.819111912173353 3.5543102686685275 1.4478181551143405 -0.5493596420521571 0.4434242782699074 0.6295312666067415
Ni 1.942326174611885 3.4282407940501316 1.5718902894192224 1.674241186374136 -0.46371748130130463 0.3397507139386407
Ni 4.059479344742897 6.990452224952432 0.26968687931412255 -1.0267631054809867 1.011274522927084 0.5955978470840904
Ni 3.5030537755264177 1.8423121605690447 5.438808204387352 0.1550488334794491 -0.9350091754054414 -0.24591033364771198
Ni 4.7140630736170746 4.693391428238019 0.49598810930668474 -4.595437066954627 2.320351183275165 -1.2783630333143081
Ni 5.242264956342684 2.3034368508891077 6.929978015450852 -0.3684128577600236 2.060131374983316 0.7484918390040658
Ni 8.558419495448607 2.607668346481117 3.8754557638795775 -0.2825218142231586 -1.6617098866763447 -0.7409001426997369
Ni 0.09718245799580723 6.401255207261691 7.4762634535540595 -0.08606433588993564 -0.2764414123570336 -1.420918876533069
Ni 7.630905735785282 0.04480785852363926 10.216145806400021 0.7545683842154488 0.11889166683260169 -0.5928429100467725
Ni 6.787226982381457 6.523631347905695 6.668641562130073 -1.1833314609287555 0.0511253579209055 0.5441269328983079
Ni 4.11577053195955 5.180764514490509 10.05638614351274 -0.28428507677116843 -2.336874891961801 -0.9152793010766817
Ni 5.64715358383377 1.1949772886744556 9.075975021434106 -1.7946729440003477 -1.988778634271943 0.08175953786699466
Ni 8.357325729201161 6.255800322976715 0.9746910481173012 0.32323009057579816 -0.3441493572269686 -0.324473476064596
Ni 7.458155092202007 4.115164163695097 10.489571037938472 0.9463287141833187 2.0907946083951283 -1.2529649049561777
Ni 2.587456070999375 7.06557757795889 6.921170057039786 0.8286742621919277 -0.2867718477487642 -0.13605609442703018
Ni 6.65643518521869 2.188750562326111 10.967587678122504 -0.5653974122413101 -2.953653743998881 0.6062414428408656
Ni 7.030490905202174 6.511081362311123 10.017659423689722 -0.292232099532387 0.5169269754447485 -0.2674824033915329
Ni 3.8151680585563073 5.772524816208252 2.641157330734981 -0.12879864153366852 0.07134991249789649 -1.1783044400278095
P 1.9501262754682485 5.150069417952099 6.515537250315052 -0.7333526693697822 -1.812760397629678 -1.483342433075613
Ni 6.23564317188265 1.7300880946556425 4.885813209564002 -0.7329551768210474 1.8745396357200041 -2.219321741434965
P 5.501349578426837 3.4593401360981764 8.90470446765997 -1.5461367426940147 0.711357910266246 0.6814845197455812
Ni 3.220660724852636 8.402858473422759 2.1802862125982343 -0.2673705604040169 -0.19462093934511646 -0.275880397647241
P 7.523642864762852 8.10699669735978 8.145208922897808 -1.3600387532182447 -1.3203020967502552 -0.003573833394187393
P 1.9790849537948176 2.0804862649275413 9.4586944576809 0.012564724038888036 -0.5059396231953093 -0.6939492278714952
P 9.009171613487357 1.0130668093387734 5.3031443300936925 -0.05088675954753817 -0.23414239447850646 -0.25784385186050435
Ni 3.437042321282636 0.3804804673672941 9.648629210382834 0.7604140443629486 0.7490600528027099 -0.061789522502971005
Ni 7.839900664266499 4.6164285956423114 3.404834979042274 -0.6744247846853223 1.675209463824676 -0.405212028866244
Ni 1.763493473588195 1.5590371196924235 7.147787333521699 0.6954168135559572 0.06846976273662402 0.2885271398769741
Ni 9.181646635132244 7.357994079792027 9.477291588603691 0.5938425549558806 0.5215896710277403 1.1936580396657444
Ni 5.675193522365715 4.439479311197601 2.8557400346471056 -0.650566490010486 -0.021807068572762444 1.9741493143945419
Ni 2.092714691593996 5.535471574399197 8.621208010492845 0.5888875249434503 0.5208862172028126 0.27772105040040557
Ni 5.107853324389096 6.367124023891384 11.662054820221131 0.2830933704559125 -0.6142504291882711 0.9996065996708525
Ni 6.6298192933684135 0.7208138431890798 6.7036299297287645 1.5986805782290017 -3.779145494697769 2.136740478997623
Ni 0.7708998618328378 4.279076530454082 12.564946353388518 0.5669758124720236 1.1069650690528743 0.42888828943726137
Ni 7.283677217804838 8.868705486287192 0.9852464496177439 -0.27600972413625363 -0.8643555176436212 0.27891712759103576
Ni 0.6383477592235703 6.478291539040969 4.893947731705609 1.2144011857503667 -0.05846277212258318 0.017118661958157613
Ni 8.82029708650842 0.45952792055700514 7.761776544570386 0.2527073019648874 1.5828338410047322 0.3554449847454459
Ni 4.342368514905775 3.000879791182525 1.7613675097034338 -0.6900982295565212 -2.2727860319016924 0.7923569158181322
Ni 5.976567737196443 2.4083018110475662 13.45125738948231 -0.4690342655285277 -1.819268373951525 -0.3242459334348222
Ni 1.8235698687587016 8.792909453230658 8.280105649462959 -0.5350105724193367 -1.2726513276415115 1.0755945251613928
Ni 6.648846394515091 4.479306681294581 0.9511777405534724 5.377011290334959 -1.2922999551103742 0.36724557692479975
Ni 0.8073214635111431 8.71372327033196 3.6255227088896795 -0.8206171962154062 -0.4930874498229894 -0.8183024320393003
Ni 8.56095521728177 4.77612394674397 5.811953453234363 -0.27588553985356357 -0.06481931046823029 -0.4524609345508789
Ni 2.803754980847858 1.2506621076266564 0.7411032928135709 -0.35996549832361874 -1.4240227122693734 0.6168421011748473
Ni 8.322652489352027 2.8495449722119512 12.725768079478383 -2.003432893850008 -1.3896846011091357 -0.8651983252598905
Ni 0.6149492941340695 3.3587105663929377 8.23768192070637 -0.40404114848659456 0.7947215593955668 -0.6922538424469433
Ni 3.8871513214651494 0.39132251568365967 12.067983461159734 -0.7498781778286312 0.05594026281104559 0.4277564898256633
Ni 6.259613093124408 6.193776199441604 4.357694013419909 -0.10766211666536943 -0.38620077787106394 0.8428199575646904
Ni 5.6322608117629045 3.9262069501346435 11.938182984235368 -1.0102697358116537 1.989923032289031 -1.1797476002322393
Ni 4.565649847193407 4.055831947758237 5.1478488238684905 -0.37043065952100074 -0.937439896334121 -0.8239310910799875
P 6.380969432596379 4.2894674775312875 6.135803718400789 0.9513994438380067 0.7981974337593093 0.07111414233800656
Ni 1.060372721363997 8.64626020721267 6.000206912112135 1.146880160080257 0.045988293804656286 -0.12718913095470352
P 0.9661743302211306 2.141086341780984 0.24760037465134574 -1.8291735488803789 -0.15226664274862162 0.035429801562519625
Ni 8.16860738798731 7.188229340541282 3.0956689320133353 -2.311786067313973 0.38394026397166137 0.997611680728011
P 0.84869599142227 6.566977491416087 2.650139849707026 1.392206596200041 0.19957648357817886 0.02675309972412812
P 6.667414125764456 0.48723619402309026 12.432859133115329 -0.4533327956328709 0.306530261322614 0.32822831512133793
P 3.1449106287858326 3.1641857896770587 3.6279022449577574 0.9244910494829368 1.4108908028731055 0.10366585102178276
Ni 2.630774652315927 7.613422117493574 10.31347342528338 1.1179200254024813 -3.0328902583337056 0.7745214302986081
Ni 7.3174409052572935 2.439189842942847 8.578030915104664 2.4612872315023155 0.37708493161272477 -0.6765228048649317
Ni 5.724713597295985 7.5002793117855475 2.5067576423987235 -0.6092324071483894 0.5565343054237254 -0.7011611722389021
Ni -0.19208092886217754 2.4044339165121964 10.259713366200918 1.008489246872463 -1.2644749624783063 0.5302062090521578
Ni 7.535457858521726 0.1379000869537775 3.8298311456785163 -0.26871061937167917 0.4404839646946608 -0.912868377642344
Ni 0.6104924873903453 8.227994728311847 1.0506120297859045 1.1832409580974783 -0.8793741025396402 -0.1148447504567377
Ni 5.4679901364840156 8.50098907088662 5.12715420999457 -0.3140018871093108 -0.3329905123966717 -0.5289067735144439
Ni 1.2565879793019856 2.8099289122677362 5.281010969701389 0.042010282993514746 1.4451157854942467 0.5294508189433721
Ni 6.80246887557428 1.9914695662263582 2.059050228039359 -0.07451056961406523 0.23236267687026435 1.2454017478969392
Ni 4.942140227632646 0.3113204918473336 0.8578016215267951 0.765275743330624 0.0657742181823319 -0.004202725227437924
Ni 4.03433343656402 2.4719061670294313 10.474080166261306 0.24705421744416808 1.1405287639409323 -0.3039257338202314
Ni 4.453480905667682 5.369786039836586 7.156729427942781 0.5848943446236572 0.8887385744736759 0.7181119411606278
Ni 8.145436770366876 8.001387557967677 5.802970934262318 -0.9367528975694254 0.7687955835584244 -0.8794736042319822
Ni 2.939241538361157 5.079363203357785 12.387086597807333 0.4071400991268923 2.0058469026081394 -0.5075241940736099
Ni 3.378619657742454 3.3719771690273177 7.801780312707933 -1.2996466252834327 -0.004531569321766389 0.810823350053436
Ni 7.2214142219231245 4.857662103516907 8.193455624472728 0.26773180039817757 -0.8375409685539381 -0.04259855139681696
Ni 7.593935646449585 5.393076093630321 12.357504095160214 0.9042153299530363 -1.629567754726161 -0.7184078751344918
Ni 0.9072674908091813 4.468235866769354 3.3999004276053446 1.5130564152002781 0.16089397940631647 0.3182814883212712
Ni 8.93896151838214 1.063689372022592 1.7304271096398591 1.1425475941431742 1.096729507367795 0.7634741713455109
Ni 7.916661374107389 2.5966802185374065 6.279225431520261 0.9088903668312025 0.5674586656457131 0.8142640003038687
Ni 3.5432027045515153 3.0091943863238786 12.78100730963019 0.8105729246055267 -0.7360381866217452 0.6683004169551393
Ni 4.803713702776548 1.1883807369490507 3.2181948272438636 -1.1054946551549347 -1.3100721914921307 -0.25508402972718003
Ni 0.4092976597654912 6.790727380998977 11.900343767053958 1.544879730358462 -0.04950144916423733 0.2222818955954946
Ni 5.50667826923566 8.383583312531535 10.804532495591904 -0.20904431385929803 1.8171909225972058 -0.43056079204367786
Ni 4.99541794832293 8.29928893637472 7.700311933570202 0.23829755429746055 -0.10530724327994767 -0.3384006276686495
P 3.24747873945773 -0.2153645514773503 6.528177272409499 1.2755399620432162 2.60267733654775 -0.07269665633377803
Ni 1.9918921865318855 1.5036646722703952 3.3632711907334545 -0.4281493543887078 -1.1292588474540681 -0.9405257343482963
P 2.154674503343483 8.331665326737294 12.809541530171645 0.048131051179271946 -0.35034391607345466 -0.2700627625241994
Ni 1.0385710260375538 9.110986357527661 10.64036196295063 0.14857505282964734 1.7867750293095102 -0.5147461657433458
P 6.150751614859331 6.382990660144553 0.1373488430770027 0.22224178638617853 1.7201382060165664 1.1526587144352471
P 0.20357895739190518 5.162784776709705 9.67671876086369 -1.2422338916919184 0.03501276862975905 0.16461359434974873
P 4.750132797954039 6.979500846600505 9.344223154229844 -0.3108540855089485 0.42541550039731246 -0.1987719853990125
Ni 9.006635891654193 0.2113891643860094 12.491190841415843 -0.2659374275019162 1.181534516929333 0.9412142757748887
