# total energy = -340865.9549244745 ev
CRYSTAL
PRIMVEC
9.31049544735692 0.00000000000000 0.00000000000000
0.00000000000000 9.31049544735692 0.00000000000000
0.00000000000000 0.00000000000000 13.62685120650579
PRIMCOORD
 96 1
Ni 8.422180806339819 7.707209262899754 7.065372589900309 1.2773865283336516 0.4295246374696796 0.6204465306966541
Ni 4.838049835971639 6.890799874817286 10.270380197823451 0.3906804109089723 0.26204606286730997 1.3108941731727939
Ni 8.618101555748732 9.22110508453349 13.1135270323563 0.059520523963136195 0.6061460549135819 -0.6875335541531384
Ni 1.2471315146402375 5.580152162274297 10.901930635782882 -1.3426768649010294 0.15051777837831498 -0.7614103468379466
Ni 3.3562007386388815 8.407945059257832 3.1593582502102713 0.15048152582374083 -0.48770433113420525 -0.5461002545745949
Ni 0.38408306321061986 3.8191651098957466 3.3417396775743033 -0.6610427069514615 -0.9586131879776265 0.3593193800991876
Ni 7.124930896315454 1.9327098248966323 6.121017446438275 0.6111427367972249 -0.6808368588592534 -0.07706701748733179
Ni 4.235055617682029 7.392775220746173 0.6785051270921149 1.158107139144328 0.5948221452603304 -0.1746522095326734
Ni 1.672974941740217 3.5783026004052467 5.437971590862259 0.47506838753774955 -0.5336016078869519 -0.24482738499617832
Ni 2.1032874065114546 7.69977017727614 7.448273220227076 0.20708281925755304 0.7086250847161151 -1.93525957930788
Ni 2.425970547366566 7.46318118505878 9.748880743568257 0.5317331872196456 -1.344463267377491 0.6720408578341781
Ni 2.623604427882795 6.225732585372935 12.62430985792934 0.34065317114825205 0.6471605496527307 0.6964565676743812
Ni 3.5860768638542058 3.1980247365618 11.385710481043146 0.3542221680819384 0.14364393407661713 3.41441291400281
Ni 0.9007243010973507 5.9179648577456465 6.1079222350119755 -0.22237908329499118 -0.0886755482605376 -0.4633066190161311
Ni 2.3701727499418825 8.67965323917516 1.0658896918823764 -0.3096847477911957 0.11191574973540082 0.9406712587872251
Ni 2.8138457752511514 0.29962756171899546 9.001992822759293 0.45544418554891886 1.3437413016098019 0.41756309423242927
Ni 7.145739852972248 2.0954479695964565 1.524381301269924 -0.6593290666944646 0.9191560104232686 0.0072253141038456205
Ni 1.998851582431248 4.671866808066888 1.2605051098714763 0.053922461050068426 -0.5902319547864868 0.8071201901702357
Ni 7.683262669377931 9.249567268202313 2.405248178314652 -0.3560851894326061 0.2059124530985357 0.9713805149456238
Ni 4.17369014415857 8.302736464080304 5.242726783401124 -1.709881561285565 -1.6020353536338474 0.18059942825504383
Ni 0.46034253582306034 9.074697548324053 8.91900558635258 -0.3516209830136654 -0.22511679394112843 -0.7041361957068261
Ni 6.04282790818156 0.30703406060959043 4.917003765880042 0.20365271053008152 -0.37107806329701254 -0.920600199068963
Ni 7.5771695771613 5.495454587908813 12.459301814512324 0.6120850461058361 -0.14455153349255104 0.37407982623781383
Ni 7.034488746443373 3.868613149629185 8.533556673503682 -1.4075149444223372 -1.3910861094423526 -0.7312744466845148
P 3.0356683221630627 3.084446006245812 0.14042368097752467 0.21610044937513104 -0.21075795411629508 -0.45309162615634224
P 2.998612551472217 6.389560058005127 5.304333398748928 -1.296043995533839 1.8391286032105618 0.04555300603945058
P 6.031897386877275 5.452914935575528 7.432043165084292 -0.8915392771472647 0.5162780290068398 -0.0012523843498623592
P 7.015579130796864 4.407588403278027 0.8585989657981714 0.06713870263002632 -1.9468819940381565 0.36137394863537114
P 3.2835043925197542 8.842596214768248 11.654472820295501 -0.005713762555325644 -0.5241116661186458 1.1032089444445516
P 7.465303977952628 4.242038489043369 10.544021236533597 0.7993055792218234 -0.5492719674343572 1.5865675970155513
P 5.4848871759153175 0.4232141432700563 1.0366612544628355 1.4852244805896744 0.15523009625231976 1.5300326380433005
P 8.522156903243916 0.4814885324042286 7.105694482289234 0.09171227820433238 1.353442845168282 0.7881091962853717
Ni 4.203111308827684 5.733440154398441 2.7415041589971803 -0.9304423819703653 0.43126398875828953 -0.37594953245670093
Ni 3.891628693636162 0.9676397607788029 13.38778163269673 -0.6873407214160421 -0.29598462459628383 -1.4599150552906082
Ni 1.6827975141218359 5.684951095665293 3.820151091331968 -0.11179259389397521 0.6492308019181979 -1.628460894815228
Ni 9.105561839741178 4.568380654491824 9.125629680984156 0.7805254704008429 0.3320181211810734 0.5578867056865617
Ni 4.098582379795993 6.089706251254025 7.026303890158368 -0.47318248336894636 0.7836105370840698 1.146004185233207
Ni 3.5143488092305177 3.6980541890046594 7.081152017077909 -0.46229077615710706 -0.34932190256684353 0.7242525068407268
Ni 6.426606518200826 4.098796521184408 5.66127543755229 -1.2542723109136915 -0.3810454589223696 0.7333428991777693
Ni 5.328536030887333 2.761800107371294 3.927898658536479 -0.14023002329906173 -1.0466593301842813 0.782503162952504
Ni 0.25525746603952404 1.6014703390000917 4.568347136709289 -0.6098975515362142 -0.32285290974203756 0.6547082800930015
Ni 0.27100803068216334 7.470471302760019 1.5259342918606864 -0.04687223907150637 -0.5831807043666601 -1.0611672939924692
Ni 6.093346654857071 2.47947796298473 10.872755268185688 -0.04232652868235291 -0.38372737662990686 -0.7878472008732367
Ni 7.236619596116306 7.675367369492043 0.7306345894283076 -0.25246921781215226 0.030735738520959965 -2.103711316456796
Ni 1.658860231095161 1.4854243274697636 7.227927317845709 -0.39281545497410414 -0.4456040595300455 -1.1242727070933864
Ni 6.104230623685613 7.814857207806177 6.67602630378227 0.02962939283065865 -0.6451409481195406 0.9348762493720029
Ni 5.365703527519961 2.8580706272063066 13.373227466680666 -0.42185118008482186 0.0035596923268003213 -1.3926300568907048
Ni 4.479390941862902 0.32191316290633454 6.960976800949242 0.22984119599999125 -0.7408332940175434 2.657922887284616
Ni 9.11109227385936 2.0230495593220796 9.025349130888705 0.004996938993959137 0.8757668448043563 -0.5632127458851655
Ni 3.5610781843806074 1.7678302663126642 5.448110720078925 -0.9988200992138153 0.20927185648907184 -1.0272942953941082
Ni 1.8143455000743394 5.48343473867216 8.377910332958436 0.6982720236165652 -0.13319857037357702 -0.24863493166772663
Ni 3.687337809088789 1.3309073499860244 2.1359411750961117 1.315767184994379 -0.6940957807516885 -0.07738017785237641
Ni 1.5243049552097068 2.0469030478924184 2.455435471362878 -0.15855504686049468 -0.630807562216004 -0.2253854742214828
Ni 1.214609955086688 8.516719574077218 11.342609405852409 -1.3762634426072233 -1.0075410240265807 1.6466954155453832
Ni 0.7206025309058487 4.50631689383223 12.927153264672611 -0.2958992639713291 1.8484537372662297 0.9148013329989986
Ni 7.977744320428377 7.686223406835139 4.210710534967852 -0.41024419197351286 -1.180400917545522 0.6022744877733176
P 0.19741135968218065 7.001604077579035 9.14409425496257 -0.0004908235934894772 -1.6348161476092944 -0.13810603497752344
P 8.718990081177376 5.5427984557387004 4.253334912806989 -0.28401048295354314 0.32306965373853397 0.53214996304209
P 2.438055570069259 6.678120234141156 1.8653660824383513 -0.2727806756759947 0.5975333735439063 -0.2466724086247171
P 7.479698003452137 0.4339361094830157 11.022009953811521 -0.1592199341380032 2.140165188408456 -0.9196509477818161
P 1.0884061933493971 1.1237674539232245 10.582776172589035 0.5169544862485742 2.06819229761458 -0.6121035580485974
P 4.251470020628753 7.93978543170813 8.48421384236542 0.33175998242368027 0.531632142865407 -0.8761165148342912
P 0.2117476601117698 0.48657671800285857 1.3526920465343768 0.0085579168723401 -0.05603590784864543 0.7592287658055956
P 1.8699850190814993 0.060865499933986995 5.147992495265606 1.022039217642756 0.30453328549724323 0.6432468164206212
Ni 4.126755938115214 2.444144633896348 9.437098330432955 1.5820108308828045 -1.1976255089539245 -3.514530642662018
Ni 2.150249544040255 3.3660233110205007 9.679097651381081 -2.1826400697432153 0.18906247142073246 -0.978094950851322
Ni 8.667819599841476 3.567055522265915 5.725974999388411 0.9250021847914005 1.4838314568968896 -0.07690632353975142
Ni 8.667735805385139 5.25407069069 1.8685819274626272 0.764365829921845 0.6767184658155055 -0.8810203798938118
Ni 4.744646948642351 4.637511080969093 9.097517571932913 -0.3457035890879659 0.690287976969824 -0.8428945195563677
Ni 7.991319022354822 5.489421387052615 7.078835565884974 1.6492032695689016 -0.33122519296613273 -0.9571497160582225
Ni 6.985245537603202 4.216416006394825 3.248191546520699 0.7214006392142285 -0.2193328402694997 0.24463866602413994
Ni 4.724145238325455 3.592873525312577 1.7881699740139765 -0.6940114485679983 -0.13587817408826922 1.0902726959988578
Ni 6.304192127988955 8.528888391236247 9.469325678339814 0.5276009102188268 1.0884963208247256 -0.6863544462433727
Ni 5.616584129790198 6.083160973164662 4.921773532544595 0.10872886736698693 0.7985625304082118 -0.10652003264112622
Ni 8.087812994073397 7.73824114322955 11.284449535808564 -0.5914861389085619 -0.626642632205037 -0.6581810691329504
Ni 5.493201448082887 4.769208034843972 11.34190087717161 -0.00682833577574308 0.4897421874998404 1.1271952800568201
Ni 5.241380485802657 5.293053733876576 0.2421352541772933 -0.9159508732224096 -0.26888776837949174 -0.508486300876563
Ni 0.8150640215335163 8.849253218799394 3.3113111173301264 0.11727855670921093 0.3859981749419546 0.3234535194405139
Ni 3.747083256456417 4.555923211983192 4.69957391057917 1.4923549209868685 -0.8259211249268228 1.2883224585198652
Ni 6.335419528716868 6.306231126426466 2.2005187694457873 0.32564744176803917 -0.061238020874875176 1.2540583951306725
Ni 6.848576779319049 1.528392262579878 8.408039095258832 -1.0135365794883835 -1.0676192202654002 0.6555837407194194
Ni 6.086121710621871 0.14917461536755638 12.601662078480727 -0.3161089061499846 -0.7162131814760182 0.13003585637487927
Ni 0.2307522428087937 3.0109955100196606 11.37448202389411 -0.24817624686375322 -0.6681425512210364 -0.9034208590761988
Ni 1.594087116347368 0.760101375523649 13.252425654228508 -0.6401725483706716 1.50162734742773 -2.4550363654965977
Ni 4.661466984986064 0.5939630379956099 10.511371192146997 0.7318472884688493 -0.7084931871239412 0.6512987401908203
Ni 7.369080010593358 6.447759963178112 9.385507014716342 -0.16796065644511074 -1.4404042389511902 -0.5666253711111403
Ni 0.33931261623976494 2.4828111202478764 0.4768882167513776 -0.8383423814093112 0.9748113950040436 -0.13387477050499527
Ni 7.489660233260984 2.4535109920156923 12.664985549133906 1.7983131118560964 -0.08631013335215458 0.3728179288062547
P 7.361063674270539 1.8256484411845624 3.8612634447589955 0.7068150280905698 0.26519335024704005 -0.7416151664888906
P 3.1495542988189498 2.9944414496457097 3.5001791666640862 -0.32387132370422284 -0.8448956091467966 -0.3564297172562184
P 5.6428397261088366 7.816216540097851 3.6441063869659738 0.2852386989336894 0.46037890384637487 -0.508920045979872
P 0.009023731897881419 6.926757007080615 12.839273363065386 0.9451038406372818 -0.6912703954877515 0.9335930117842051
P 3.3502513322390195 5.329634669314851 10.668447624747047 -0.6535551403251648 -0.4283437297877011 0.2231992652034414
P 5.1447003041811135 2.2793023172929736 6.97517623710015 0.7328358776343636 1.3927267303695692 0.6243227258226087
P 5.813342823762471 6.925360432808347 12.645635547066872 -0.013799110666621395 0.6497110839887262 -1.1587002926436367
P 0.9651631690693142 3.558126757418547 7.509770902781643 0.0549681287057634 0.33523200013268073 0.2080423549573449
