# total energy = -381164.02641138574 ev
CRYSTAL
PRIMVEC
9.25842559972338 0.00000000000000 0.00000000000000

0.00000000000000 9.25842559972338 0.00000000000000

0.00000000000000 0.00000000000000 13.55064172120701

PRIMCOORD
 96 1
Ni 6.647077471944069 1.585959063758773 1.0928960481199677 0.22914802658770858 -0.8500028484663749 -1.6881503402560603
Ni 6.241613976895928 0.9412948823594456 10.49673365498435 0.6955047452840732 1.104327631430027 1.6242913368185705
Ni 1.8007823152453246 1.9817289871003934 11.627914219210943 -0.061022819540275546 0.9766461342199372 -1.1365358407314556
Ni 8.065236828339904 7.066743392013993 2.446460294258658 0.47429911347189285 -0.6197176229504294 0.6461285088437905
Ni 1.6480090327913492 0.35712525447531596 6.786757488774967 -0.7085140130595475 0.33043997806067604 -0.23180089082952338
Ni 2.016485117173251 3.975558736588966 -0.3959717570218519 -0.6397655427402401 -0.08972790078445193 1.0159577873353665
Ni 4.221360680463313 1.2709133540839732 1.4374381762282027 -0.6221367739148833 0.7130751500676686 1.350309441745623
Ni 8.097539475602611 7.662041647587939 7.49284114041679 -1.2452608514437007 -0.49007694513143985 -0.06820956709670188
Ni 8.577542555950853 3.3153774337186457 6.59553118686665 -1.0838901895112816 -1.934281531665327 1.1612372001328775
Ni 5.600134693936948 0.787243937159052 3.308334549289657 1.4756394080044006 -1.8538168013503558 -2.289914206941546
Ni 2.7886841125719424 4.463996242748709 5.64681012125429 1.0959167816585127 -0.43753516647898194 -0.7270123289740512
Ni 3.8321827562191544 0.9998266496265223 10.737989711840642 1.0973645698486327 0.4265449860160654 1.4693425192520952
Ni 3.4051378708673816 8.243915185898796 6.454740158951911 -0.7853833127137764 -1.3282622321375963 -0.05528900238029187
Ni 4.168087698993088 6.1219025326119505 9.731678460854763 0.7365030420733059 -1.444254465935216 -0.9240421348709764
Ni 6.820228549360847 7.7779201036326615 11.576705866671526 -0.03337111926127802 4.78811039565507 0.714305422930344
Ni -0.2532494215063673 4.457228333562972 8.794272117288763 0.9003635603071138 0.011945859507966524 -0.8155667782756921
Ni 1.929826252633574 6.564214561940854 10.505514345916982 3.6087145223352946 1.2601593658220878 -1.5891749527314116
Ni 5.168571696844217 -0.005666156527594259 7.637995664363319 -1.1966230358313392 2.2512602420147743 1.9288349067284587
Ni 1.936001622574596 0.15855239177509348 2.0409023632683887 0.636922159754174 1.0552270172486344 -1.5125833322186015
Ni 3.358216169426454 4.55295119686166 11.366047980906812 0.20744328792076533 0.3283080193193378 -0.7848618929926676
Ni 4.243997531296594 2.5927850832135 12.804475882842203 0.24052335830418575 0.4146382072761504 0.4028353011039514
Ni 1.2984479121118577 3.0658721195648257 1.8685114026014733 2.1155219359384794 0.750537922899817 -0.421383496419784
Ni -0.045644964537079176 5.026649289309099 1.9098410149203962 0.47300970523650804 1.4154961628556009 0.27895980790351316
Ni 7.098203522538118 2.7963686059018498 9.232458592126333 2.4278842305618378 1.3788635992342317 0.4496949417699675
P 3.5011847790655235 3.431792878453891 1.2959194360535473 0.2610549025986343 -0.39490267652043604 -0.5158656240597697
Ni 3.686992124412401 8.593754059349248 3.736291389572751 -0.35088847572301507 0.0028593238256660433 -0.12355539085685818
P 5.455055163238579 7.102601274744994 13.270075630331004 -0.32937965511696177 0.2216784576835408 0.08368220881100427
Ni 4.903604811773596 5.582784404177614 6.236235757407562 -0.3971467353596064 -0.029764118636310028 0.6333074458197222
P 3.03265288815795 2.9114971294649785 9.932512231110604 0.34159702311876006 0.25887769244165737 -0.08600802873070348
P 7.108859970517304 4.724648701443743 2.9654904164545606 -0.3728043019594999 0.7413953371686006 1.0334559441201299
P 0.6379453418697927 5.70482897173766 13.566496165027761 0.13052565152710424 0.04491408690387103 -0.8410253275581129
Ni 0.6159315830860331 1.7815988571976524 0.20252806215870003 -1.336694936285982 0.15839178180975302 -0.5737763803336247
Ni 5.6130779730637075 3.793158491899204 11.14770652765476 0.47298733663900483 -2.7011896683930514 -0.3632372270963551
Ni 8.416973679058586 5.5243359627418265 4.67186826822069 -0.29279311424217963 0.7981154155684641 -1.4816681306969837
Ni 5.570100360970418 3.1212097299658565 2.39461496203117 -0.3139219258009948 1.2518251349247795 0.7057032830836298
Ni 2.8711396518444174 7.946701204119661 9.060853671801235 0.5898784281018099 0.7698847028575452 -1.8717831560207892
Ni 7.683095307626745 5.295430645767577 6.803817989809931 -0.7010449583760119 1.8909759268991564 0.8694763838099542
Ni 7.816972143229708 8.323185826730924 4.68051378613812 -1.306337407040047 -0.45708840602056117 -2.6999341987193954
Ni 0.7831387512042558 5.084394090391787 6.46922589180007 -0.040836831510703865 0.42696896092736136 0.18354257004376776
Ni 8.855526787553822 9.710884962578088 10.805566035172763 -0.5558527059756685 -1.1635802464437572 -0.051722625185272215
Ni 0.9530253077196775 4.91918674222448 11.089113654778073 -2.312303373270024 -3.693526473875368 1.5147278893654301
Ni 8.09114190344482 7.13230230438637 9.872400976419332 0.9598902549178371 0.032682320724369524 -0.9673569956085274
Ni 0.3698926235138004 1.616021172002398 3.2334403662852975 0.7438178305671641 -0.35837861345247307 1.7099165282885584
Ni 2.873574617803171 1.30771559623624 4.476427530934331 -1.2247305927008327 0.416072882840148 0.6514571201455555
Ni 8.51828863147928 0.08362117506793888 1.9269015159553602 0.7236267003312699 0.4883422218285202 -0.13118848192208374
Ni 6.627912530747795 5.406041057589748 8.8123751170574 -0.2839068674961433 -0.003959241758064149 1.8981572751389435
Ni 7.659819625420256 6.721533731412882 -0.022361875590030087 0.9310633033838158 -0.7324517548220676 0.24870692255624266
Ni 3.9852060161669947 7.920731320034854 1.5953572916855063 0.5484415011132618 -0.3278711888922354 -0.5484522997465394
Ni 3.6355523112305157 1.7591286580269478 7.1615413385853826 1.0972462991032135 -0.10783180947401429 -3.897407755476488
Ni 8.108908822360593 3.0949806099614863 2.1230468194373877 -0.5081057776086927 -1.6421358211991588 -0.3854207051719298
Ni 6.542281351460672 8.455822033290262 1.236168334121954 -1.5616739190976652 -0.31069339156136816 0.15099934600042383
Ni 0.8367283708333753 6.720413461903342 8.291895125397083 0.4937068285745433 -0.09068692226361155 -0.24365830438874164
Ni 4.180355113043844 7.92117572446839 11.088964594124324 1.3283884733028155 0.4177415287918225 0.016825556197771024
Ni 1.6319178889270374 6.988306009494746 1.6730975147496416 -1.459145009893803 1.551342198154354 -1.161208917998103
Ni 7.978577963800228 0.05630233835883368 12.983927318946936 0.2673325080772299 0.7575907159815404 0.4469878272514496
Ni 0.22682587456232484 1.9432509698966651 9.066395765424467 -0.4983677243853223 -0.805387009529213 -0.5243708333173034
P 6.904609841178648 2.2026350242709802 12.419867917522915 -0.02109101634234432 0.25900213383466364 0.1922195289924754
Ni 1.6249833280787236 2.677388577248069 7.464140946593441 -0.4752673909224332 2.069595862830326 -1.2757744466515253
P 1.0372492063006007 6.327921021259055 3.773541739528833 0.054617173124247874 0.1298219405918603 -0.24570233140196393
Ni 1.0834302336856336 4.181364281445 3.943832889247288 -0.4039647867227043 -0.8316346303718323 1.0227357294891484
P 0.6895721752507913 8.706799437130172 9.225805487419258 0.16098731045107115 0.32279171748679897 -0.5065754570070953
P 3.4685210532005684 6.809220281205112 4.7717907534163 -0.114015569687223 -1.1558965046462544 0.7283706427741585
P 0.5572452001097884 2.3961731550762586 5.323721617175044 1.652718996031644 -1.5072752897421267 -0.9864350952859011
Ni 8.830269802247814 2.6929890245503505 11.18827694906639 -1.2758466946503575 1.4016376597059539 0.3854327893567878
Ni 5.073756159264001 2.228141987070853 4.717696549586602 -0.8307586555247821 1.7444155905066927 1.839207278967297
Ni 6.329041290768596 4.695734637986756 13.713114446077252 -0.281950772211037 -1.5866293034914223 -1.1213156813475913
Ni 7.232867324325469 0.6289924442191659 8.157486856159016 3.0101601637260416 -2.6251724323264725 3.085612785538402
Ni 5.545806251937074 5.777933501054465 1.9117241787075083 0.451977310046241 0.7514257248214091 0.30199483534610566
Ni 4.939712671998461 0.06630051227084191 13.199504206285358 1.8396770195148642 -0.6259044684874318 -1.6008480181939655
Ni 6.415339076706023 2.0574814261670213 6.987090378200509 -0.6692026170544346 2.054210895733824 -4.410598660917572
Ni 4.160921677502307 5.380154499336229 0.1461775799862332 -1.6047563521094363 -1.339460929066893 -0.5887332587537732
Ni 0.8236749164408015 8.451590932745965 3.6937285549507632 -0.27867852921766845 0.4900826015583947 0.08976209645649702
Ni 8.33123139866308 3.9725127145340995 13.209734766682406 1.8637034643364483 -0.33475531760657834 -0.12844768595215297
Ni 2.7521873984677323 5.191152997123306 7.76499163798702 0.3185499114913095 0.5748937817675196 1.4997602123120042
Ni 1.7977640684675535 8.81076229930069 11.217099354108962 1.0430304751824424 0.8166391854042645 -0.0006962547360762203
Ni 2.825578938981196 5.271312446822507 2.365684233407924 0.4717629773136004 0.661135523775584 -0.5505408068444517
Ni 4.8166311607601635 5.259878291084633 4.02581439712399 -0.16002083277274376 -0.4237951911850701 -0.838488162958556
Ni 2.8101451433414906 0.6597905973058362 13.239356173862772 -1.0223006988342587 -0.29544263604988474 -0.1252039822038747
Ni 8.649387939372637 0.214370514469886 6.20897154541008 0.614251971850168 3.64246770752634 1.2537375214561441
Ni 0.5491366708828814 7.5611988748778804 5.7536699448259245 1.0000596280478713 -1.6834210531011913 1.0514642077720924
Ni 3.146957411833895 7.297555944682171 13.001000781777877 -1.705909206901378 0.505523104483181 -0.07597147043030786
Ni 6.574028493181458 3.952375638639463 5.232540011681561 -0.23784992523708068 -0.3163698731208551 -0.5864562897941383
Ni 5.223687105028479 9.242056802048157 5.502739758957078 1.3541149315346421 -0.006661471180575624 -1.7154014626625296
Ni 5.278626603124467 7.1431902130080225 7.8153324760384715 0.33677646180166515 -1.1306665264348723 0.7995842868045068
Ni 7.623896933709364 1.8060411010421766 4.480140159639504 -0.4045188594539613 0.045052412253948224 0.510607460984624
Ni 2.58807254453287 0.9959658861101713 8.88550834749387 -1.7360636189975713 -0.1940763796955561 0.7913014779704243
Ni 5.057498363737112 2.3381413427969107 8.707615104434227 -2.6605675239963147 0.440498362872364 2.586233074948798
Ni 5.917226515691156 7.506537129552853 3.3171161660648583 -0.8244491683669866 0.9692673252573629 1.8904460225376152
P 5.718596250751602 4.058967893708405 7.497394434175403 -0.029767975291051955 -1.00050468600509 -0.2972233820993913
Ni 3.3113315016883207 3.5104339463385084 3.563913390701813 0.6826692840823018 -2.578344159119024 0.18896734060376488
P 6.677084029633503 6.965965428283823 5.7632098266658485 -0.650136344451603 0.03127361330230098 0.43492241144648325
Ni 6.083970762524445 5.902237124484988 11.272711013910675 -0.5607568281455052 -2.097336009058072 0.25019507706599486
P 0.8925159407233622 8.96714636777715 -0.06753928962932576 -0.3429751344132093 -1.2656779816474717 0.2659821646969226
P 5.968657070447343 8.405104377312874 9.535356321441888 0.12983608165924734 -1.745896288817277 -0.11110302402611832
P 8.069449412032805 4.976246419805467 10.591289956645005 -1.1268877761187301 -0.4651367302463344 0.8345731441748658
Ni 9.67459193383925 7.123006844984891 11.872625520537985 -2.6495701444445463 0.7322072429114292 2.685727311091394
