# total energy = -381163.14490418375 ev
CRYSTAL
PRIMVEC
9.34598272327737 0.00000000000000 0.00000000000000
0.00000000000000 9.34598272327737 0.00000000000000
0.00000000000000 0.00000000000000 13.67879042193254
PRIMCOORD
 96 1
Ni 6.018504626073336 4.10343266924556 1.9591370771653118 -0.4076049545784528 1.8986465560705363 -1.386820135077147
Ni 5.059686980348366 3.3817374578960515 3.7922718097651686 -0.6577270123146672 0.7086839629785086 0.20627986374028345
Ni 0.9145344089141313 6.047894422668558 11.107485394483803 1.1646325989676716 -1.9843892469549955 -0.9504013415907955
Ni 3.601252113721443 3.8695446971024294 9.330189411171505 0.1528947632509238 -0.488323709885759 0.02136843837344707
Ni 7.761395066026098 5.224271705524966 3.85996621471066 -1.4075036315684275 0.6448673827431798 -0.9106623711299606
Ni 8.590517301086335 8.499971001014663 0.837617592058931 0.7258874713409885 0.15260474281433073 1.567497210647662
Ni 3.1098189211768017 4.778652293591017 11.545493100772442 1.0368971085911949 0.7388674285404244 -0.08059997034125474
Ni 4.267262375860723 3.5707717347597003 6.952936104385552 -0.3543306686353446 0.5222190770816233 0.19105250526756773
Ni 3.578387168891732 1.5238511661845706 2.3728061542469168 0.5079795364434735 -0.6098803251450335 -0.3191237817169085
Ni 8.658925711239307 3.393277124304197 5.7287219773418006 0.6739393604084716 -1.046395277889617 0.11316119210672768
Ni 0.8676365707886836 0.45385563910538446 3.9279887264877886 0.8714065109531314 1.5218125641263531 -2.022822868340845
Ni 8.293711115490066 4.866775077292641 9.217052210044274 -0.8138976181033855 -0.7399876581877965 2.574364862756302
Ni 1.8183550112292943 6.980360988477674 5.903687741677328 -0.6867622232047528 -0.9828383790735784 0.3109394461339032
Ni 0.5675465205110022 9.049997362413588 5.83915882195979 0.18542641733004195 -2.9598385326533543 0.17039189159442267
Ni 6.698002688933608 6.680944862175202 1.7555635663247438 -0.2663781145837606 -0.0198003225553788 0.7052132308210887
Ni 6.164679948054389 1.1534446526733435 7.950082593624494 0.2814460646604766 -0.37009435922750455 -0.4608715272120773
Ni 1.5929679888149433 1.1623370935080535 10.5669815881758 -0.3419736897318885 -2.602665766583524 -2.227484993972048
Ni 2.9762552055368006 3.8313370294069613 2.156122351966076 2.7411399835337438 -1.077830356470447 -1.910378499795484
Ni 3.906633818780953 0.9730604650073996 7.164504422882232 0.9854313366117353 -0.8466079638522129 -2.2683256821374935
Ni 5.911720766322352 0.8916564143808897 3.654468804720947 -2.5997002561972966 0.11291925129925069 -0.04636341775588789
Ni 1.1538920710801213 1.3728940599810797 1.7707478285047675 -0.26854632587967303 -2.8660729714644186 0.8498668371091427
Ni 0.8135753775463863 0.9281806703208564 12.806732965220425 -0.3016269104837257 -1.1403953236868618 1.0484207929600784
Ni 8.369446002054028 1.1341870187482792 11.038904541819882 0.3537125754353715 -1.137416957784828 1.4064119411661455
Ni 6.336050519067121 4.5947446859716985 11.063993528979951 0.17634322408185113 0.46690642055224746 -0.3599778396187929
P 1.5543035814958894 4.159807388499571 10.090325320636678 -0.8501005503865037 0.25156753193348935 -0.8873149546532719
Ni 9.113763806596241 6.051072957600042 1.7117435939892556 0.002700429650298575 -0.34326875439422816 -0.40093962674313527
P 9.346663729757738 3.1831675762379485 3.6541546797145217 -1.1533035471080977 0.3453184378344053 -0.6140174872418587
Ni 1.9009969194478897 7.582698018602378 1.558033000340719 0.06801442036676028 1.0365248128534406 -0.4458863666571546
P 6.477518626560198 8.867553185833104 1.6210612041521897 -0.6549769603733558 0.7212826255791255 -0.30947597421449924
P 8.15122699536493 6.569835957825364 13.4586691221015 2.146312953177407 0.6573426323920549 0.6138657921553428
P 2.816787828387722 -0.012159527325869347 0.2752806996218487 -1.1678475063605436 1.1121838942496522 0.2541093245187365
Ni 3.996257318388645 6.061233083920623 3.070227052785365 1.2349880087627827 0.5455909190383442 -1.334029987859309
Ni 5.410509617346254 0.6206112756765382 13.194576679014139 0.5521284630465458 -1.3040216144226768 0.08723547337990137
Ni 3.394460918838797 0.9097666065169047 11.968302563055847 0.5828397760874736 -0.4493671261169035 -0.07205850852914687
Ni 4.239438543689224 1.310628331704493 9.360271774175551 -1.3133886574598737 0.06402303981918005 0.9723824738475769
Ni 2.0821734105425027 5.0394692610920915 0.08568808187140799 0.8400971593168887 0.5065376617906244 0.7752847908271939
Ni 3.339596236707661 9.148979363696384 4.9727479911813415 -2.2749300748278887 0.962691214701742 1.9785469292416054
Ni 3.6301665282594624 2.33101261444546 5.022079599015325 -0.6839057275925641 -2.034650199993077 1.181956949178732
Ni 1.9374988044675172 5.521693091430554 2.681223779620751 -3.34961417235987 1.4834943852724451 0.9307704547337453
Ni 7.963991713345201 0.6538479384483683 2.7114552820937234 1.3569228332970824 0.5231888971940603 -0.14446051644064153
Ni 5.871965776636777 1.8821121341951406 1.463530775855787 0.4701503814108419 -0.29081979256589263 0.01715594295399626
Ni 5.716021819441075 1.8896157137254779 5.845010681871772 -0.6785334075370573 1.3722980302015721 -0.312636631330668
Ni 9.203750833659441 7.564139475937905 7.51830984925864 -0.28661423912497735 -0.07043331422089805 1.2506491123388075
Ni 1.9283733332126105 2.580616158126663 3.651849542797935 -0.10342596709683478 -0.37196329411544327 0.35733474556899103
Ni 9.227436045568245 4.695190118293329 13.156800583656874 -0.8727758804968324 0.5791659267803122 0.12636303550898237
Ni 3.837647493185891 2.5162438348514975 0.15298447085920325 -0.10622564132915899 0.2057021368599425 -0.24911598506920318
Ni 1.7486602731568335 2.905963909588636 11.780554614111685 1.836200373820173 0.5405803531976303 2.0005735700243417
Ni 3.0841762537383453 4.558168231217608 4.773348521227338 -0.21472593762510758 0.853008210951602 0.48815067464300443
Ni 7.088067648692637 2.5026628219624274 9.65035270184494 -1.1727102337694835 1.4723975040283352 0.11449559464743507
Ni 8.403757401123805 3.6286844547870105 1.6002431985334877 0.04263840349581689 -0.12791881003187644 0.48736134597248976
Ni 6.733441955237137 4.410082059790941 6.366347270057747 -0.7630224285200731 -1.2942727625660289 -0.019513644552895424
Ni 6.18228772660446 2.768187003951476 12.49921576939023 1.216053119531493 -0.5487027251944485 1.4179081147312032
Ni 2.7491903640970325 7.051360696903236 12.690089122330072 0.8228093187707184 1.065553338875307 -0.28152088376247003
Ni 7.464141462023051 8.457689961574154 12.500403292411553 -1.6962387736911497 1.0466459604478426 -1.2382821061330223
Ni 9.030683801187678 3.484690297539 11.22014534931047 -2.4304319366843563 0.9699095868270522 0.6125254760773644
Ni 1.3456388220348612 1.813703724042166 5.931723165470365 0.6224656180092117 0.7612244560793858 -0.03008730630368367
P 4.971135420673579 2.756106706968474 10.818399972769495 -0.43484630679290914 0.41643335150336025 -0.37178228845288874
Ni 1.047164138629984 5.7950284531045995 8.544556245250078 1.7181330026610795 0.8321784186904442 1.2126713475434534
P 4.155286598347754 5.550542257450918 0.6345409020742224 0.5129394515519101 0.39231563251955015 0.3209225254885441
Ni 9.167015918219617 7.850738929129553 3.3098307950750825 -0.504595450462589 -1.0370290061833687 -0.002650807359285757
P 3.053145922984939 5.322349548777398 7.704093817821383 0.5625663705504182 0.5273545985359757 -1.5113553733487712
P 7.995749099009622 2.509057176692628 7.540410454310105 -1.1591746611768938 0.556899144962312 0.3699223524260145
P 2.9093754749403176 8.514996802508952 10.600705750586682 -0.4425213068396636 0.6031175524999032 0.170772414862293
Ni 2.108813448179401 1.394826883130003 8.201023731917626 -1.6419062216868563 -0.2609895965783376 0.7356527782578686
Ni 1.2600886941722098 2.9218286205956345 0.4226733725180094 0.7591858283828022 1.9050699430983773 -0.6004572320589208
Ni 3.2759323259098934 6.73023545665523 9.482099145732759 0.9020388911270077 -1.3217126039445366 0.7064818131208671
Ni 0.41613919953569095 7.698253143369571 12.472818083390337 0.48926576208405415 1.169649849676605 0.8716592503938859
Ni 5.8542554647018195 4.606955479990011 8.701541382363219 -0.1126855380218898 -1.0741197403880791 -1.3949041976368621
Ni 0.5392445099172597 5.04087676483008 4.610360520489927 1.6550520150401948 1.1674631264379314 0.5580039479907164
Ni -0.0013394588552912419 2.3601880230541 9.347911840688312 1.6321296019160667 0.1951153624830317 -2.3332231541418267
Ni 4.440832754040112 8.107314742983045 0.8667874079374865 1.0158994232936052 -1.790660223296529 -0.5903106305432221
Ni 8.707069796051968 5.2788660723686744 7.1927029679694074 0.7545398449703586 -0.6599067935748054 -3.081519589305635
Ni 1.8472414621168904 8.16493850528931 8.275593466380604 0.9422177773387387 1.7458194128327544 -0.42350259964531584
Ni 1.558712517046013 3.5703429587865383 7.68361696873785 0.01947610644674065 0.6791764404376948 0.07918920603665716
Ni 7.600585433656685 1.065992996581886 5.1712470315917045 2.533419530692192 -1.5089909868816527 0.8983475583183496
Ni 7.988031131492703 6.613580428304709 11.06406157386265 -1.0985691316796953 -0.17204665358902627 -0.457701871234844
Ni 3.6415011278978353 7.679144648913432 7.089674626470315 0.8917097412868579 -0.6394935200257761 -0.5122180000048533
Ni 6.316541212288244 6.0112620406136195 13.083048319907947 -3.403990176007589 -0.9879119369417436 -0.6517142304616841
Ni 5.1989179958075535 7.57016098199579 11.358426532776937 -0.5921134880799157 0.691137726564629 0.40055781792368433
Ni 5.992917885935727 0.6559983431659444 10.680637981079228 0.06722894835098744 -0.7278440808467271 1.5837262709120146
Ni 8.253443458880058 6.9719532509169735 5.576430072891422 -0.3319052497522929 -0.22277246207866797 -0.9265404758127979
Ni 6.833887387558769 8.015789715146546 3.96628308149957 -0.45035288706894055 -0.2447877900074945 -0.9467699154857953
Ni 9.106838142507993 0.6497316891060119 7.5814750749571855 -0.017028930457828738 1.3190206589346702 1.1681799499992978
Ni 4.082226901007651 8.599148747850423 3.0889449882572526 0.5825163313097839 -1.0201456001644689 -1.2487097292242493
Ni 5.159032509086668 8.234931522299624 8.76188227936898 0.3523738020192899 0.9272809535232482 0.45620857451876917
Ni 7.612647088206072 9.113623988344123 9.159534709609618 0.32245027498698015 -1.279988227622557 1.0656541261192294
Ni 7.004670721912605 6.742166614169307 7.98357558985854 -0.3894437102883938 -1.4761099198829157 0.7882171826181457
Ni 0.48827050368172953 8.129359420733662 9.978947033121093 -0.9427140002488668 0.5078291269085383 1.4138835669528427
P 1.9048186183391174 7.654117181784296 3.897688247010438 1.021291540843454 0.2431685092365167 -0.7085885750512249
Ni 5.364071315209435 8.575053402402075 5.762118965042726 1.6796585007349651 0.752700991989407 0.799408680458591
P 7.312969967832979 8.528661706349293 7.025950127763297 -0.5493390732268668 2.0249000625848486 -1.3164693532677263
Ni 7.249902614910916 2.9415336729274766 3.6633640419206994 0.3274749818950812 -1.085433879849318 -0.042462282929268805
P 5.820158453618624 6.362522774801477 9.776601126534123 0.18575808963784782 0.5682870750842793 0.6232639455407911
P 8.558703988121065 2.432511344266381 13.419078185831742 -0.6261127278434959 -0.09967575602578317 -1.1515505689727328
P 5.758442677133702 6.05095178178154 4.122162722299299 1.2737031659447935 -0.09719155615134874 0.5408919709007781
Ni 5.400116460605476 6.186072140628456 6.231013455345931 -1.2763655432683052 0.3460902830034233 -0.03964872473987366
