# total energy = -340869.1080596347 ev
CRYSTAL
PRIMVEC
9.25578062545474 0.00000000000000 0.00000000000000
0.00000000000000 9.25578062545474 0.00000000000000
0.00000000000000 0.00000000000000 13.54677053399950
PRIMCOORD
 96 1
Ni 1.905237592901022 8.178564858296966 5.427079598945752 1.0327519760745698 0.0472591900972799 0.31408081997636234
Ni 8.425638658741478 8.867981657057344 9.078083242926462 -0.2686216592022987 1.0267173398447156 1.4272713011136582
Ni 4.310962996225215 0.9766977090097528 1.7810074347311633 1.201967587972704 -0.9435187555383493 0.6582620588825309
Ni 8.995091288491544 6.424909180053911 13.20978028549133 -1.0904264479679027 0.2719538088993252 -0.3071990052548645
Ni 2.3450167400622037 8.580885862414807 1.436431393009862 0.38874205623567887 -1.1579495305205412 1.3741844485910075
Ni 2.064705432410219 7.873975638808391 12.502991312607392 0.3133197734406217 -0.33344431210463865 0.4504431327899016
Ni 8.87833887525984 7.213723803905084 5.28091046463168 -0.05570603531305245 -0.8229970093014923 1.7496860948770123
Ni 9.270404474758944 8.315957661690925 1.0479968361388519 -1.0341156891913157 0.672242432322023 0.18725395745708395
Ni 0.8941454041410702 7.8544089191657855 3.4888349677677697 0.1358025836553274 -1.4463059491476058 -2.203459577591728
Ni 7.709768839764182 7.093694844432376 2.810954573625434 0.2838369334901563 1.1034729967392156 0.5603320819032608
Ni 4.844845662121671 8.509042495401609 8.777182451904102 0.2231074768205835 -0.12176873127008062 0.2769831437931165
Ni 6.130242157091766 4.530176897840854 5.951787009789362 4.396816519531814 -2.350698428108455 -0.1590111605613068
Ni 3.097456147170027 2.4655362558930274 11.183996334996493 1.3270111333393146 1.249876752949157 -1.4171344697899724
Ni 4.339683682625879 7.45303200464281 4.988273234298495 -1.069712612459319 0.917885114130645 0.6145054826218708
Ni 2.3516809019083134 2.122766942494449 2.269422930854501 -0.6052461688071319 0.702087026487281 0.08316927373032773
Ni 0.38765244343212635 4.302938234668859 13.235194807153897 -1.5327999163757924 0.2527021597585648 -2.3402697765759632
Ni 1.3463180411799476 0.9820753173883496 11.814937890291363 -1.5770300898387615 0.128683713222359 -0.7185796248256657
Ni 5.654458024400909 0.5112661666312199 13.336727015191512 0.3866818312725405 -0.13091028856003262 0.4698248797506231
Ni 4.401290156581026 7.972984721124827 0.3176269116780615 -0.720045924958547 -0.974200243782606 0.00880422855519129
Ni 5.339280192201293 2.726012426272494 3.372197326212305 0.552300726958352 0.7524122571043945 0.9452475653039979
Ni 3.291846045908907 3.936437100473857 3.902092601937504 -0.24650554402954966 0.49934551491755935 -0.5049194094609112
Ni 0.9775399850208583 6.370355610719231 10.924345780223517 0.8826468597536411 -0.16711347795346704 0.7757342196597865
Ni -0.06334470950334 9.354539518066078 7.032493773656201 0.3975408854742315 -0.15112353028311393 -1.8600103317555774
Ni 7.015613081468792 2.1925647820521053 7.466289058826398 0.8385226157409171 1.6883771115548858 -0.6255722819589936
P 7.01499294418589 4.2777532563587695 13.362209104050574 0.255439870404702 -0.5784429325713586 -0.278565657788888
P 1.339348438582558 1.9459537706246832 5.623711247683421 -1.2649251626418474 0.2256343570074953 0.7482725239044081
P 6.907866542509679 9.181826656887738 1.6383193994036493 -0.2091466437651172 -0.1324894601216944 0.5345143495092085
P 6.586006036903268 0.7021925523661912 8.755345289343648 -0.5398869266750315 -3.1551449281012696 0.5996915575374898
P 0.13242430050647097 5.85735398527392 1.7782307006286175 -0.5154953852045445 0.7211196176386999 -0.17034226930340987
P 7.056338514972795 7.174479295255771 11.61074704574853 -0.11751304131752019 -0.1304354058061431 0.10547590764732803
P 3.5400860746764895 7.827780039122372 7.098602259169608 -0.3063554263076466 -0.1573890515768515 -0.12320572082692328
P 1.1987901583116964 8.460847647161758 10.47138269954345 0.7465869086718689 0.058884433041034065 -1.1825814701366084
Ni 4.827056052304695 7.967857018815459 11.477108386861213 0.7978781027466775 0.4634968806500663 1.1813370562065462
Ni 5.092354484242249 5.289845069395637 1.566575994818143 -2.196981683176868 0.21649665637228518 -1.4089786734520573
Ni 1.3604238504208797 3.035451674660183 7.871052663376443 0.05304674331333444 -0.3525332104152897 -1.536121781660174
Ni 7.878529482736565 0.9922289084233249 13.386024226870074 2.309409082441365 0.7598499443293623 1.369710471980054
Ni 6.515560292721686 6.805682727535998 5.127303385234923 0.35495801780669833 -0.7145108540729307 -1.0555170376852274
Ni 3.1634683725678796 1.293921068664911 4.646975589974266 0.1341395941306077 -0.4399931411011713 -1.4193944694687426
Ni 5.603865929052527 6.6659667232762425 9.848826881238267 1.918359718228748 -1.4683690995952325 -1.1952886332906318
Ni 6.3424772003296725 3.5222409301774626 11.369235043711416 0.9300289485820307 -0.8613144168244522 2.057854920244314
Ni 0.8085840450832624 3.2982603016857874 3.913513309301274 1.7524906542053433 0.31359102482413737 0.6633297032134253
Ni 3.0080082859466897 4.7454756043719035 12.640044428862806 0.10921069209941191 1.1073741315658348 -0.9615918109899763
Ni 6.697797351871757 9.145858694479431 6.0011647467568965 -0.1833469090931939 0.24458621551964974 1.0026217323480926
Ni 0.706700117392657 5.188272135924518 8.911390341282441 0.3980211675447597 0.33658851416057517 -0.7204107644971334
Ni 8.781032856526299 3.781661941597962 6.167803964874936 0.6107262180850965 0.4408660306244278 1.327485758982888
Ni 3.2170963638683783 4.734072482990782 8.231843906678579 -0.2569506506222736 -0.27432590867592754 0.18915425980359035
Ni 0.5341695950870508 0.8031286881497944 2.964669945652191 -1.1705147687800617 0.7672768329210528 -0.07970188400701758
Ni 4.750492237317168 4.588377244630211 10.309187181567516 -3.0125273784066375 0.214718738536256 0.1352726792937864
Ni 8.21939210538473 1.692752643593886 5.400203589567212 0.4531954987240582 0.0786076225015743 -1.67761267394953
Ni 5.31733473701084 2.275015273337028 9.507218242694552 -1.2764709584979177 -0.3929342399401555 0.25965776514079153
Ni 1.0250499055154145 3.1008807858965004 10.387324479213152 -2.2050932565404087 -0.16453723258585856 0.002167439964964009
Ni 6.444364830332415 7.29070412900799 0.6194893782779372 2.4996959131875016 -0.581458836579547 -0.7009521415518897
Ni 6.676268406796686 4.264711861857147 9.104729708952524 0.7621603376300939 1.2168982411406075 -1.4821455845540346
Ni 3.164171811873858 6.875591636457757 9.703686989698205 0.12449641461388881 -0.27481467538688803 0.5261500367049132
Ni 2.496950374373161 0.5475830719584146 6.946729713008907 -2.98931005974991 0.5337571596282098 0.7557606047513371
Ni 3.3652351282391892 0.22631493629388158 10.584660492834832 -1.2443169994731924 -0.6238550421575707 -1.3121265029179983
P 9.071942032669664 6.831580400932407 7.507376393341765 -0.8823786936939191 -0.6670683443202512 -0.9321956172160462
P 8.551415457806456 2.4879352443202287 11.83300887583073 1.2205088413100011 0.38914494810105243 2.091531486561153
P 8.69637023373968 3.498805294351977 8.528369490333361 -0.9974394168162046 0.5190525064281835 -0.7481709653295372
P 8.186358225344778 2.859943567818613 3.2361604946384226 -2.310976684038801 0.11435752640767402 -0.11841267031365414
P 2.9304911255839565 6.581220798466548 0.5388881919053099 -0.6576758473617578 -2.293112659274186 0.22907989235393453
P 4.062630409654216 3.264097216444134 1.553503130663358 -0.17996050911946426 0.02526520232469197 0.9643526615645651
P 5.327201398855219 5.386086673389871 3.6114064901003746 0.07289925926288736 0.8052314577879551 2.3545931351771707
P 2.4853066027031523 4.653251009046019 10.356329647582502 0.5175715510072828 1.5553970849500178 0.7124372593733537
Ni 8.149668312069808 6.693539692914521 9.548250968105902 -0.6078900341878821 -0.5603274539175704 0.5699559781462701
Ni 8.352684598087263 5.074861059396211 11.064148788818486 -0.9946335719362935 -1.7232253295823223 1.454263770542102
Ni 8.980383853528393 8.490947444833353 12.036277844651517 -0.4140103438841644 -1.2160829443281638 0.13808366638002023
Ni 3.0048890879714967 6.3310185442665015 3.0961686681244798 0.5304820884213638 0.4732459896170301 -0.8287285124686309
Ni 5.161393349811876 7.6892580305267115 2.6732387434975453 0.37163316446953415 -0.1748797521624472 -0.036896101695400974
Ni 1.9817181058654711 4.552381514880877 1.3470908988384893 0.7790146901832712 0.8745892795564875 1.3587310901504148
Ni 9.052199453200565 2.873577332262112 1.279541288325861 0.12238631024942148 -1.4073308534359892 1.04843596246873
Ni 5.465038479705585 0.45743732489730393 4.078228250686249 0.23512301322422086 -0.041279575475077296 -0.23254805340819304
Ni 1.9399190018418173 2.7307236184664796 13.23749764530294 0.33152652625663553 -0.22392817294966597 0.6147314825897477
Ni 3.2330163060563066 0.6091802901332193 13.192955127985972 0.7625010087989642 0.7265235622630908 -1.2011085824065184
Ni 7.158374237461007 0.3703561667073694 11.35566144184014 -1.7516902697912349 -0.3411956739152833 -1.8219569765272816
Ni 1.7869949990342857 6.026429324777926 6.628759411880164 -0.18491142536683638 -0.7782415594626725 -1.2505159291950527
Ni 7.030422330015702 7.34265682406662 7.580732154862817 -1.4408611239829507 -0.06620307818963436 -0.6078643231562693
Ni 4.536729990322862 0.8824720139739683 7.269359373961722 3.080041976318844 1.9788022397855212 -0.6395385143310987
Ni 1.2142750788235597 0.8608264460665906 9.017001571716698 0.8336809713778996 0.3556259904080004 0.9084710199055968
Ni 4.366321818449634 2.7444869638347646 13.09632663237345 1.7774252126634937 0.5541884308993682 -0.16350390622533778
Ni 7.806741650405418 2.1951193774264475 9.971072600102838 0.16885205791112853 -0.6071482709258511 -2.1748218592503767
Ni 3.247390532927151 2.9785934160203893 6.255762571041274 0.49936068442621107 0.39490550473391345 0.6274432737294614
Ni 6.359702207545798 2.396839854196048 1.189363146033554 0.7162165239101279 0.8769793770552186 0.11527181069182726
Ni 1.4864135324337182 7.709370841209484 8.247585212305909 1.0228609422131028 1.7630764001409893 1.0989020895390815
Ni 8.264819475302376 4.993067728515557 4.216093098877641 0.17433442118193845 0.06452337649436629 -0.6771977194447691
Ni 4.205919145125913 5.1635036677298105 5.886613358090479 -4.090012949943157 1.6596280644466512 -0.9892933906703026
Ni 7.301283485938689 4.9476033354765425 1.8030343407886238 1.5521878339841009 -0.8940283621177053 0.4536868365381799
Ni 5.542426059143533 5.5689253582621605 12.522959733116831 -0.30198737914693796 0.8387367886342523 -0.44300107468955957
P 8.06805084101565 8.990509677222343 4.35733260458166 0.6403023890803167 -0.5870898096130792 -0.9022306954228397
P 1.4798419283910267 5.530051080826521 4.363373852410765 -0.7383465230399477 -0.23295094527356655 1.2130318162066658
P 5.018095358559836 1.1957172392382127 11.475834791486179 -0.006710579250956185 0.49312935880451847 -0.35832667716861516
P 5.182172576679259 5.451395459481745 7.746286595524794 1.773930312136358 0.4009892490341481 1.6889730932676719
P 3.3031843768276348 8.739964959149647 3.3639883746271457 0.055297744131040244 0.08573189225118139 1.22638509758512
P 1.3182822825245781 0.9443672682757794 0.592244063263759 -2.3426693871563913 0.06660031362805305 0.671766521126869
P 3.2865147164320194 2.4487277587922844 8.51121852935997 0.9100375930617682 -1.0863967579832192 0.0955391081495903
P 5.678319426122117 2.2239511331912127 5.773348522891572 -1.1278673664231802 -0.22541812723163113 -1.422902225511685
