# total energy = -381170.72940204974 ev
CRYSTAL
PRIMVEC
9.19538296947641 0.00000000000000 0.00000000000000
0.00000000000000 9.19538296947641 0.00000000000000
0.00000000000000 0.00000000000000 13.45837245938110
PRIMCOORD
 96 1
Ni 0.9311152569350837 5.310158797639016 5.144301679858492 1.2406444357176118 -0.7431053778811718 -2.6353905105100552
Ni 4.941653835890692 7.564186177639502 10.66487198307988 -1.1961774636534883 -0.470224429181887 4.6014447066012885
Ni 5.749642918457465 5.585606486451767 7.4788714169382935 0.1742248921872677 -1.9408170187909992 -1.040594097826808
Ni 5.069460460053885 4.742031272831569 11.659539288477378 0.9147504251564051 0.1331720880110158 -0.06964424266069941
Ni 3.504930461133236 8.786261734004167 8.093380452090306 -0.959924193479566 -1.8314116941822782 -0.2810611705172321
Ni 1.0685310560209713 4.86508388413827 11.128768005893326 -1.7598239546419627 -1.0243082161825907 -2.0468562551409653
Ni 6.729944277460964 3.7263092996632645 13.328445156900434 0.011845072264044116 0.10408108418233042 -0.2788608204318036
Ni 6.566790602194577 6.186874170514134 9.905011533570892 0.3216059247088139 -1.5532841523720733 1.5431354939738458
Ni 8.63034482492358 2.9905683389793754 12.427137652529378 1.7396569927757848 0.6951910706983963 -0.24875088842030063
Ni 5.427519467053709 7.635891771943018 8.71367706111442 0.8133741414997475 0.8046596444448852 -4.992326434887789
Ni 2.318128392810158 3.5730406608006056 9.473765556114397 -1.4159535621079937 0.21594335497197648 1.3182804383345361
Ni 4.874380416049126 5.697597052368994 2.3800050425444224 0.25154413489472166 -0.7949971816544565 0.3720255148119464
Ni 3.384038764761303 0.7720001937510377 5.690334539111629 -0.4697027523504621 -0.4293503166753444 -0.40409771275614276
Ni 2.6530426215512044 3.6708519465926686 1.3104468622757335 -1.9790210406645465 0.8671230530864291 2.511885513275158
Ni 0.763300442177486 6.047775616393937 7.202530856465261 0.09690230704570407 0.12904341055462293 1.3615436198985453
Ni 9.22223321863078 2.8457778429671707 10.0183041656786 0.5535983627238531 -0.8823470691250354 0.7485237206832657
Ni 7.5844803872609265 8.158805600008943 2.607384787825217 -0.24687989664983287 -0.4938096727009947 -1.293486519219308
Ni 5.034058236654483 8.42456135545469 1.4878634956498649 0.29807441724577693 0.23561975035498128 0.4791451287102845
Ni 4.417112425086666 5.5128618139030205 9.259036818353836 -1.3706214138300974 -0.6613458400141772 0.31277315690853236
Ni 1.0112438217928477 0.527634737544691 5.903488107815486 0.5884941461597736 2.8395034485060062 -1.315582579787399
Ni 3.3897490974187137 3.328737733196627 3.8428359478669645 -0.11282463470291537 1.078285955950627 -1.9131249521923694
Ni 8.888440826579274 6.746771827804057 10.758703507238888 -0.14134793895358883 -0.08640269306596086 -1.503441003597701
Ni 8.321922493744527 1.0743793194188984 0.39332513873524977 0.7132247882716555 -0.9419251857989842 -0.9854081966832834
Ni 3.7972332864371836 1.729007809296001 2.083612111015006 -0.26323699785161764 -0.25870234320605767 -1.0478371525424663
P 8.297867372598335 1.1908756228596848 11.490502407358797 -0.4970006688344666 -2.488204110497818 -0.3392858584870802
Ni 3.0485176407619816 5.900042597917366 11.08626694704864 0.03836471582112748 0.7391705616031399 -0.021076361054324994
P 9.166233337980815 2.759184924070503 5.538389115819665 0.16661134150606788 0.2672597458577655 -1.006173197144777
Ni 7.2045639555804835 5.463933182550236 1.5395029258229462 -0.17251330881279967 -0.10373732768966651 0.20502619383884046
P 4.544505257028306 2.374054710398512 12.47838719847593 3.017528945386287 -1.7176933440205 0.3680364482572113
P 6.719967287230223 7.351570538823664 0.6258874017064088 0.26394713654476476 1.515885914229273 0.5449388872766421
P 2.453429253874783 5.305892140065684 3.2862513869642633 -0.06501265742595899 -0.4038958811579818 0.7280813936685139
Ni 3.7391092723832564 0.28894375200322 12.898544463933117 0.8057904156152187 0.5957179176017224 0.4707327362768731
Ni 5.549597367794089 0.768592384921994 8.718777739898744 2.3378513969424572 0.9804477673542149 -0.32536024954492354
Ni 7.6629261970843805 1.4218544409297067 2.4813740219035574 0.7907556327692834 0.10253430852050083 2.0145110060410403
Ni 7.796590280028202 6.721539697672119 8.187535653720396 1.5970947217991205 -0.0595230950662975 -0.6971636210437349
Ni 5.997651585290004 1.610019557143205 0.9509064791227546 -1.277911033378554 0.5035837213686231 -0.6325543697037816
Ni 0.7226402989495699 3.3344112843232323 7.569500189302493 -0.9177293052790712 -1.7105269081790477 -0.874580537805739
Ni 0.12805306041958334 7.345538367771714 1.2079348968468462 0.5620675765371287 0.597506376960713 -1.4737697017855134
Ni 0.5971582675332263 7.4312853114598765 3.532391552031931 1.1682036041483816 0.8207241541069156 0.04092579168008436
Ni 1.5462036011972695 7.277115525092505 9.085881325323415 0.8466223620299161 -0.8243278122977739 1.0636926315174842
Ni 6.815093521273553 3.0217774678670564 6.271789851606113 -0.2763056581101177 -0.9680010569504296 -0.195423894862386
Ni 2.4569694762147227 2.943809817944061 5.743521552193314 -2.4026228848918882 -0.7107580718987179 0.9884863213879751
Ni 8.022364511489377 6.012787185216087 3.9115282152593167 -1.6657305777999634 0.6283099926051308 0.8496421226928463
Ni 2.9533270390397446 3.430613378142595 11.970078396754232 -2.034827349000889 1.3875043056283654 0.468472993708419
Ni 1.4087694113459797 -0.13572292913060707 12.93500323680488 -1.9172433452361173 0.7581008228487396 -0.8150101344412738
Ni 5.413864323742511 2.346542125356691 4.341226609807209 0.9355696758946017 -1.142701089001903 -0.44100641285703407
Ni 3.3252802693009964 7.535882789685382 3.6967590178148697 0.2935557034398171 0.02829499028995127 -0.2853561983481602
Ni 7.920029097408351 0.9683657522574157 6.1980787443354775 0.7210301432486873 0.7380318200130064 -0.032282771293105694
Ni 9.573864653122506 8.687080336189632 7.721000556071722 -1.1757811593853233 -0.25952972420335946 1.9952369883027767
Ni 2.954945426395146 6.4434713247895425 1.5051839185057387 -1.7948143546742186 -0.4243626336527659 0.05700855617455988
Ni 6.9327760290827865 9.190297654509708 4.475070002713703 -1.7681047065935163 0.2985765536931761 -0.09440448032451483
Ni 4.643898148644966 0.6207444241616592 10.674090354237777 -0.8985092807071944 1.0193886673937864 0.3629405217915426
Ni 5.800622120152604 4.773433504755974 4.752675847846413 0.6952707748963961 0.365248601099429 -0.3539678859792872
Ni 6.734882197971478 6.881603724350924 5.905129483627639 0.07381765731209868 0.4082143060276776 -0.32295729653038574
Ni 6.554827409300389 2.4140730159138886 10.877460035747617 0.15948707175646082 -0.202505998520148 0.09098439889937233
Ni 1.5619460963816272 1.9722992448028545 0.3190227683569303 -0.24908101806620972 0.054434881910112705 0.4976434446247881
P 7.192444441180376 8.573581727509419 7.3275586359761675 -0.9675508567868885 0.16454648855723922 0.809342137522219
Ni 6.233209703945196 9.382784600592744 12.187686208838521 1.0477147680319892 -0.4333036448961376 1.519598844304486
P 2.1462207132122813 7.205345563110081 12.754997183662107 0.4059180537943332 -0.9049403810445188 -0.023290337986508276
Ni 2.606090997479166 8.705397538530312 1.5409429227539453 -0.5329392917126047 0.6472443676157885 -0.14000068089707504
P 4.583383335088741 9.597496786664443 3.474426618098733 0.19137595004525748 -1.3909135884202304 1.3515800809279304
P 5.991371138905124 3.751421889820087 2.3948638614512 -0.8472882777486892 -0.73107287219667 -0.48913643559504144
P 0.5876410464375428 0.12562639892475155 2.1941047490902155 -1.1875910075360578 0.7479387947140731 -0.0760779141011851
Ni 4.361333233621529 3.0987336256929257 10.1332124265269 1.1080760427288658 -0.4080998919370004 -0.00021134467985770052
Ni 0.2326661707956819 5.312053046475451 2.261814030071815 1.9839223346209058 -1.5323286331663288 0.5620830031560965
Ni 1.875793703354354 5.115492545855808 13.132248793435757 0.45779417383833415 0.8421301305865174 1.8876463483052908
Ni 7.672379050501156 4.541902963723883 10.964697550971634 0.1879926353953214 -0.04838301928907797 -0.4799485984481864
Ni 8.855879976434524 7.726245602364454 5.860865669919145 -1.8194779188591699 -0.8024862909426502 -1.7956769597848299
Ni 5.385487372726782 0.7194596160732444 6.4741765467052 2.0795218636947865 -0.16825299087454895 -0.46959348046610744
Ni 0.8064277065841189 2.743727485749881 3.3276627929588627 0.06679854568178818 0.19094734714827113 0.2440167161694249
Ni 6.797962523301323 6.261651022639833 12.344436219591833 -2.7455316848435363 0.426652201017891 -1.1189893472072598
Ni 8.367807453423232 8.035780574850344 12.546903834058691 -0.2909010394257893 1.3865373137294057 0.26598525002071616
Ni 4.215687567018119 6.717420166222007 13.066141348120697 1.5510313517821546 0.1392810291222311 -0.23912107864002047
Ni 2.114790895139773 0.5557220340053337 3.7709823079019595 -0.07605734527589482 0.1803466888142894 -1.0148059331191102
Ni 7.656388279983867 3.594134868717029 3.6836776663842232 0.8729849111838449 -0.292443958432877 0.5099942528806573
Ni 0.5219023359687983 9.191888455717006 10.26093169455443 -1.1998520842915978 0.2835194022497375 0.40769545740973007
Ni 2.6477920580288514 8.459071626732081 10.880218650557959 0.7410883474511429 -1.6335249396016964 0.14296824816583117
Ni 2.4739717388291367 1.5294036370022805 10.761462122049231 -0.974004325721716 -0.03440933071780526 -0.396476191655143
Ni 3.6729852753793337 5.295400208403681 5.30585535853488 -1.885908796788894 0.5037133049679519 -0.38729375382492653
Ni 3.6525163534865883 1.7766766732187287 8.203160448006178 -1.5745392050961076 2.698100487944766 -0.8914086651066712
Ni 7.576020635175874 3.7613804892854255 8.40285565458864 0.5787357812214291 1.3440377498042984 0.29858066745823414
Ni 8.062033392462109 4.860670100441722 6.017669013892124 0.3261727181438899 0.3096202131018474 0.5759237656939307
Ni 1.845917904958339 7.664250332193346 5.539250723178763 2.3638125968929096 -0.7566324658333292 0.9518231616389866
Ni 4.566776473930476 3.4460616210805157 6.481377450898465 0.32970412833591606 -0.3069228687753424 0.5378159030786157
Ni 5.683077543083888 7.150945679050116 3.8722565748192728 0.4206247638768885 0.9665285861699612 0.11555746025304615
Ni 4.602426972662809 4.103301599644743 0.596399648460382 0.7178987967085572 0.11659412904767663 -0.7388365753024888
Ni 8.071155212101644 1.4179004263682151 8.599240523398691 -0.3034181980561936 -0.6880750284789053 -0.3560661632692126
Ni 8.726510137212136 5.5173767468092825 12.908153638855811 1.4599608209268793 -0.6950002948438289 1.1749761469855249
P 2.9478649817152656 6.71004546929569 7.457149164383383 0.21495502291677818 -0.6373152814275347 -0.20408979806750013
Ni 4.475181266844387 7.341933777752865 6.029229449024001 -0.5438263709387537 1.2813812513153415 0.540478023291811
P 1.694635468759127 0.8601664426278711 8.59353386889436 0.43522708717109565 1.0800777577437268 0.8496218109778724
Ni 7.229557005762191 8.755696281905566 9.988170896566954 0.36092786223688805 -0.4481923890825119 0.6262255992722764
P 0.27453734592533857 3.809693029997233 0.7438843916040216 0.9415616318119785 -0.45169268892628667 0.5149935058674615
P 0.24614844091209842 4.8347483166071985 9.002412997468594 0.09046323628857969 1.5050047485403952 1.3157599859055276
P 5.612475394704508 3.1707702537736835 8.424631240363219 -0.9887853406856326 -0.17673763130679238 -0.5972122427590617
Ni 2.6524081401448254 4.504827180672873 7.576538335221948 1.8406010739910301 1.9427664292078866 -1.812712832221194
