# total energy = -381163.50451432244 ev
CRYSTAL
PRIMVEC
9.26407221715157 0.00000000000000 0.00000000000000
0.00000000000000 9.26407221715157 0.00000000000000
0.00000000000000 0.00000000000000 13.55890611657650
PRIMCOORD
 96 1
Ni 5.867974386013357 2.2734495939445543 11.585908788006149 -0.3005028241816115 0.8625490605625016 0.4814166983532805
Ni 3.499188226916164 1.7109907253528396 11.037329352114046 -0.5360644676051478 -0.9450318497487661 0.8478621479742882
Ni 8.539806869012322 6.568134421102869 4.373072772551284 -0.5575547762684397 -0.8590819279495076 -0.255153963733167
Ni 0.5709456849687752 0.22445642173877636 7.54307702276987 -1.1690708372446834 -0.5105493540531787 1.3641949414784633
Ni 8.058380838375143 3.3507870572358485 5.9605085693800985 0.2612726750363952 1.5214826915907602 1.3392117891705646
Ni 1.2622298126564069 5.686528271439498 3.097749120502521 0.12229323631498291 -1.8051345056533041 2.2897244595282435
Ni 2.581850551473595 6.683055234504724 11.930183011616286 0.8856866750212296 2.000756375459109 0.5185344291411844
Ni 8.806538030597666 2.426038124177682 8.267312528223648 -0.9938815242616174 -1.03066064076318 -0.05025195417701668
Ni 1.2668618486661551 6.187242100021267 10.263766368785255 -1.8462706135719815 0.4994511872574882 1.288398048952807
Ni 0.44182675478983985 0.5161181275357886 5.162743197900373 0.10659665151533254 -0.6818146493914903 -1.1234347845731234
Ni 7.058898636335699 4.458797862983696 11.947389172578097 -0.27496431359087486 -0.06094157268037892 1.366551357525782
Ni 4.30746924654522 4.317177994021652 8.00246660529427 0.42249189899261436 0.43716801294755037 -1.1804834499569992
Ni 2.2403675927629316 4.347906920910322 11.97254112811103 0.16393096646042735 -0.462914525784035 -1.1527155358151113
Ni 8.316218490821772 2.0708628670222033 1.2449773313344983 -1.5382928211695637 -2.9041317260093535 2.7086466388917287
Ni 1.2484634016354348 2.70302461348861 5.455398938625078 -0.3616534275490029 0.0021692397371769092 1.034469730096625
Ni 2.504968017783793 0.5921641155222301 6.538416204471525 1.6063859172930592 -0.2478414892321538 -0.7837457771103534
Ni 7.8481141957486305 1.9279182357613711 4.031794549832252 0.536087093312967 -0.6732032535733954 -1.3733128446193317
Ni 5.979652774208388 2.1642817692668066 9.08140304741613 1.1043960227741172 1.1906660469169559 2.5415599004111393
Ni 4.795176318011616 3.4500793811408124 3.726814814100012 0.3053670942524483 0.8986949143554394 0.6601893578122308
Ni 3.6782349468369735 5.652186356463223 0.18575020243411777 -0.17406445535000345 1.5553248369511858 1.200701833886403
Ni -0.05561129792583592 -0.07799144311053571 0.3169674449254691 -1.4947558171188773 0.7343353449980257 3.4460544521674907
Ni 1.8191580302524817 0.34840877895243844 1.805585238336717 -0.3586511503875694 0.3533706187149205 1.1298499440708476
Ni 6.327555734828562 6.630842924602841 11.451729821690167 0.19327213862670584 1.984556882881111 0.34003996304428535
Ni 6.442550660806573 9.45546774741936 10.837375474459634 1.0263316743705226 -1.5185243802933848 0.2195138459320542
P 4.78239189862471 0.8658257293853605 7.093110854303699 0.39709608462732904 -0.2543389240310394 -0.9677334051113398
Ni 5.974807664542191 2.905741037419234 7.041953722204838 1.7286375017368294 -1.7219814298728926 0.1121628327492004
P 5.7250297547525255 1.851350680520232 0.4004497035219604 -0.5184752937684748 0.8604420415218279 -0.48416880717712096
Ni 7.055637682984836 5.615593271986212 6.546483358386103 -0.5206856711562323 -0.10161591047128951 0.48413306884317914
P 8.24009561103757 8.551729729701414 11.744995138353753 -0.31772021650116244 -1.544261894268805 -0.947737164495071
P 1.083581447832435 7.24934016484049 8.363458773270791 -0.23368550944674593 0.010571347757943085 -1.1926169999957394
P 2.7941552899443973 9.018351773251437 4.239950836852724 -0.5501016624245042 -0.4483088600557183 0.5490796489178931
Ni 3.765659994484963 2.0021697729976364 8.558638874613555 -2.724915294144765 -0.5321851871553995 -0.18830348176752085
Ni 2.8016313960641313 4.231253726040821 4.5654736522881985 -0.6196021804184877 0.11725850210455291 -2.0578819168275078
Ni 6.108219565694961 5.938066354912868 2.5245865430994807 -0.047084612192628585 0.41553989315481343 -0.9519329477439735
Ni 8.42206051364452 4.596563877985629 8.270187169771297 -1.4816915277357514 0.7923522878324418 0.4525360107631884
Ni 5.13166594190377 9.293994972119538 9.197778320125046 -1.9576130073024156 -1.4453597831842528 -2.0649663344781146
Ni 3.5066550689638785 2.7498637616191846 6.222805946096912 1.209609677898994 -0.22368443236997607 0.044407579581097714
Ni 1.2161132621433528 7.50567703761996 5.547029874969918 -0.720175765668192 0.8871511753818979 0.897432502703248
Ni 0.6923846994435479 7.376146782643358 12.948198916137937 1.2622699844071874 0.6202971496029833 -2.958673051590343
Ni 5.947534236516794 5.159485950178318 9.458421133579177 0.6880755426995375 -0.32518952829501413 0.11317147651937284
Ni 8.245913448265814 5.757009331363828 10.420723835382777 0.517911965065837 0.43988849720250695 -0.06180700600446774
Ni 7.877481304050435 1.1803910004361742 6.413050149867688 -0.6221622278361801 -1.1757968431146075 -0.08258666175398034
Ni 6.352411240056871 8.546541849370495 3.5388477192316286 1.6119569836229337 0.05574305919857497 1.106890507061197
Ni 7.082383058905122 7.338979325701138 8.935169670588378 -0.06169310613442278 -0.06855640891315935 0.3964265693641302
Ni 3.414829587106628 1.7444432894152417 3.81624923896903 -1.081257379874125 -1.0765180654169266 -0.34004587658155633
Ni 9.295199301482072 8.453363812998399 9.799102750060152 -0.40399512574000745 0.08121446399680207 0.31486526355087063
Ni 3.0307411611783004 6.818718305158231 4.714621506173286 1.5000977981570809 -0.6324204152290785 0.08036677128452611
Ni 5.699970439939786 1.426296528121691 5.050516376641788 -0.2511872657759351 -0.45232209498016934 0.42767550007608285
Ni 0.861123286428264 8.19647109589776 3.2815538678125447 -0.5645962564962534 -0.9549434524355233 0.923675495560177
Ni 4.257480313928016 3.5671494592511905 13.139434375614798 1.0913990962938172 -1.5572061131342987 -0.19753528477843402
Ni 2.0489811289121524 2.2281946021293133 0.24088995909416133 -0.08481323709165393 0.3359452241496214 1.353624879272101
Ni 0.3560266253740704 6.6705672654224415 1.4227493149454256 -0.9851168906951098 1.066567124851802 1.0328188247567631
Ni 5.763484917705456 1.4468720320769926 2.5872153755800853 1.5193494472978413 0.27655736910960754 1.9916497851721504
Ni 5.106393553434584 6.772814828301625 7.735627054066297 0.8118219665212792 -1.0941872005619155 0.040444481168291635
Ni 8.431213416799782 4.387899919818489 2.0578348025411852 0.1103484052482809 0.5469631167955226 0.7672513789997559
Ni 1.0929937450042435 1.685755393171731 9.992560660414494 1.0628999604128597 -1.6358484455285502 -1.6664438018169045
P 1.5631731922097525 2.6122459717695627 7.767883626430982 1.5447763720113783 -0.17953293466374243 -0.49117326351941204
Ni 0.8106915311685285 0.32018948917385 12.019712856427105 3.0683344580739282 0.025180098810053408 -3.1535634425467625
P 2.5153715706616873 7.167353127467945 1.5902020487338357 0.2427087959912788 -0.04681053259563551 -0.15773820738615413
Ni 3.0184662657524672 7.3284923961750685 7.352805026783035 -1.513010135343375 0.6026899780441813 -0.5977220925159449
P -0.13064750206215223 3.8368914442428723 4.239517278282212 0.20578981147774236 1.089989360430484 -2.0663974104976863
P 5.197765095762878 4.273395989657511 5.869636360533655 -1.2196588346048802 1.6354887481962868 -1.7250004192048745
P 7.5520993025096566 3.4425940109490596 10.130590701468982 -0.10601969596593999 -0.2262791896803458 -0.864527524445111
Ni 6.8474184002746314 4.31260154244402 4.0487024076750355 1.650863430880144 0.1160606251417098 0.3748473005314577
Ni 5.524508915890522 6.10768224951783 4.893355100459837 -1.0012230522283532 1.668110905106682 -0.6247893810463819
Ni 4.460039248634308 7.8373678722060145 2.5937372822818108 -1.1885191757772822 0.41947728053600664 -0.3831483641979853
Ni 8.444118269122942 1.8516193386087976 11.539292904011246 -1.1843169647704765 1.3128453833618938 -1.2940791584979843
Ni 3.982170621652617 7.203427423911864 9.90696341417595 0.4284823122480943 0.41868640920359507 -0.2530808832542222
Ni 4.601853663108762 7.891247715071406 12.882235017730315 0.9848764925495297 -0.41791353559331257 0.06729631125381313
Ni 4.355086576725432 5.4519527038338245 11.237905775408164 0.8494243502550856 -0.5671308499926491 2.0522853965763366
Ni 7.4278773608002275 6.853273293790953 0.5742316513140906 -0.87748202772325 0.20211621928089707 -0.18984640077460854
Ni 4.475769642923414 8.345437373971263 5.747986125216838 -0.6885059453687369 0.41772661639348707 -1.394025908796967
Ni 2.4391189938692115 8.935178934660396 9.303605520432564 -0.015450787337431455 0.5472546798940123 -0.008292321915779268
Ni 6.497773794114792 8.980035571378798 1.149439735819036 -1.1676772993312665 -1.4814444447219517 2.686307609074896
Ni 5.947988176045748 3.5840100703266744 1.7542372663542536 0.46328964973526665 1.1715146707994857 -1.4128417559518893
Ni 4.008397209539812 0.943601319617842 1.4527964061334608 -0.2889945664316958 0.15990898978522783 -0.7483416865794468
Ni 1.5016226977122176 4.803328701388773 0.5008981836149577 -0.37474471351532235 -0.19805387628606536 1.2681467549029386
Ni 3.5561159494759704 5.646312934802864 2.9022429238246716 1.7093002348607982 -0.4870430434011224 -1.9753541333359206
Ni 1.0768742596903196 2.409029287949886 2.9983215411460726 -0.20602069654162583 0.4351993192569537 -0.3281979761040347
Ni 8.39024769032957 7.746135290958012 6.4392331966163905 -0.4072550274382019 1.4468739058359341 0.470492338131293
Ni 3.1366850887932634 3.464892632299988 1.8746952156021617 0.5334324292989394 0.18418406028250858 0.7710892646886075
Ni 8.865105493904924 3.4627155753754058 13.447831627515031 1.2584750361411294 2.0043708322832448 -2.8144182234026047
Ni 7.121570083547593 0.5714348279714045 12.934789171889717 -0.18944942244650598 1.8839686423433877 -0.5550332953981667
Ni 2.727880118716919 0.049552594825085165 13.365894616131392 -0.13881463100877384 -1.5310063148104796 -1.1146472681884805
Ni 2.280462496463313 4.834354078582067 6.597749806534795 -0.4763763077158957 0.38393126511059683 0.8307853949976596
Ni 0.5360275447128887 3.855753094874567 10.059935476990686 0.37424694794329744 0.9220554434582506 0.7233731895595671
Ni 3.811702432421861 3.691445513536776 10.156705194084742 0.1702042010636488 0.46115820521456063 -0.43669852951029947
Ni 2.5265255133731612 5.506203109579997 8.736830520686965 1.024756616573919 -1.0082069397453541 0.0446016978697748
P 5.8006709027917145 5.474927602442176 -0.0024225548330983515 -0.251173124708548 -0.05808533417850642 0.16471746691746472
Ni 6.360739640802398 8.501907550380562 6.875585811249911 0.012711791139713591 0.989218314457993 0.4143551288180929
P 8.435613851009043 9.16126861229621 2.2936647254982976 -1.01757603966508 0.5879639846879164 1.465538572124973
Ni 0.11817435549510207 5.826369438573797 6.738803640696448 1.4685030540699355 -0.5131592808722001 -0.13522742787814776
P 1.2378189828850334 2.4493465293787353 11.968744711397441 -0.44490086281543373 1.1542831374125475 -1.395123769846836
P 3.3298502544717863 8.87529597312637 11.359177110179386 0.37233173319845553 -1.2717115894360613 -0.8016270282661485
P 8.897983685502117 5.702647756753421 13.076317326538765 -1.1240590484206834 -3.3522361833637495 -0.40294560142957053
Ni 7.504908119642341 0.4325580507343335 8.639653184424052 0.6254344708295487 -0.5041048839794157 0.2060024417091807
