# total energy = -340897.10385123274 ev
CRYSTAL
PRIMVEC
9.01965681996611 0.00000000000000 0.00000000000000
0.00000000000000 9.01965681996611 0.00000000000000
0.00000000000000 0.00000000000000 13.20117947691058
PRIMCOORD
 96 1
Ni 6.361951721995075 1.8376287792356178 11.408604788695762 0.4461177659416704 0.7968977411112791 0.25335367729963465
Ni 4.875719748479803 0.3141501333411226 6.037031216577906 -0.9086322280738093 0.07745036896867952 0.02522149357095011
Ni 2.5351458915016294 1.4670201047254072 4.66764618982886 1.0112531827708455 -0.25627753581464896 1.1726526410586708
Ni 3.5582455519872385 4.388378676843569 4.928132071649298 -0.6320038965169502 -0.7672156406658142 0.19987987375121058
Ni 4.94326795757243 4.438374633980762 2.631918690296623 0.5128690033252908 0.48257523743775604 -0.32582947587185823
Ni 7.102059653240307 5.858248993088975 2.610849674190405 0.7579000196918432 0.7829317658494903 0.2733445185992648
Ni 5.1341509525019635 4.633361572712825 11.448498730319034 -0.0894759326746459 -0.9790629711915461 -0.46472149708578675
Ni 5.579947485337203 7.920764873046516 12.49273776023319 -0.5191432663697769 0.08225447522554222 -0.3738913643760916
Ni 1.845674313019918 6.4296442455950436 0.20240741030643938 -0.44881973825386573 0.27461618622283673 0.4823489803595628
Ni 2.5980850560160307 1.3760839257867146 0.4781996495618073 0.9243686649724596 -0.3576232233436873 -0.6697173519073241
Ni 0.4806800551567429 0.1096429469528614 4.679673000084448 0.05423459297384853 -0.7764435870219853 0.9600270376060175
Ni 8.443625352802226 2.4979488272343042 1.434519575706384 0.6168385016304215 -0.628532135918266 0.10577132740055976
Ni 6.869217215301172 0.678647990431083 4.759685472783045 -0.14044471041302908 0.17177643064677514 -0.07365207826851186
Ni 0.5328028473458837 7.275083727886304 2.4381656406023318 0.6820537619854898 0.03515752173773945 -0.14122529733279549
Ni 7.57394103327756 3.896230128181515 3.969198248990494 0.8899377369880996 -0.8890273093586883 -0.7565172804117035
Ni 7.461429835491282 4.0497537050229635 12.555892494542935 0.410528555983151 -1.1904266772126402 0.4684763361425287
Ni 7.939155953075875 8.760594128864867 6.909497198231584 -0.4457254155992582 0.5568623781871055 -0.37290817452721586
Ni 6.792324641858169 0.7239988243632142 0.42600740601600834 0.652971757017869 -0.180631824154876 0.28013068828316273
Ni 1.728148186103516 6.542029168187397 9.154437439057093 1.0149722834936454 -0.36182800545365423 -0.5380516732385056
Ni 0.2276931159240481 4.808099382133505 1.25560205736682 -0.25898207923000555 0.2986657709728727 0.7380387619915418
Ni 6.48188609725274 2.0790669500182926 6.891820475013567 0.12212071529286064 -0.42339924129823214 1.2097202353349297
Ni 3.2538501773767443 4.367976213368135 0.2652040642448411 0.06581329895038343 -0.9634628027604438 0.6071032766205287
Ni 5.798746317780647 5.403757511186397 4.810588807385148 0.27613390841894375 1.198358273354891 0.09852441603015935
Ni 5.373929506450208 2.8645617938224914 9.35949121664191 -0.10938347023185033 0.21307606072651047 -0.08884524106918247
P 0.12842367615204273 5.501683924074454 12.321782794836206 0.4169133764635723 0.8507006458643477 0.5424310332531239
P 3.9970969491566586 6.083307467288366 12.472527415445654 -0.8110501213522614 1.8258005186430877 1.0093963320677648
P 2.1954024822491256 8.319568994428613 1.384724756913799 0.21966914056299586 0.44960880981406437 -0.0449829924685935
P 6.346546148336348 7.638602952223353 5.6538933369334226 0.0033948846141618953 0.16676766457827408 0.772615985745779
P 4.68656852763837 0.9365921329909654 12.670557586351286 -0.4658167870324946 0.49474683980328343 -0.6448887228994183
P 4.168686898385947 6.065953647780526 8.200955096913122 -0.6842281439289892 0.4123285853063673 -0.5219892204590043
P 4.664740958402938 1.1135217189918973 3.805965913667632 -0.04269522487568131 -0.8863687886899186 0.4725404789095733
P 0.2536724331425679 5.49895096809167 3.6309972010352056 0.35291424790379217 -1.0102669075981763 -0.6867303415255528
Ni 1.296900359539662 0.9844053332046145 2.5777412203092043 -0.06191730633008691 0.437841127755175 -0.5502962949338136
Ni 1.914837040663431 6.654495267690131 4.651620063788563 -0.7714337925122198 -0.6706640320913095 0.4937999025089818
Ni 6.2440467694969 5.677855858911842 9.130609309963635 -0.5624696970715539 0.07025822209561448 0.6232788579391265
Ni 8.541885492988511 2.20357429122735 10.21004304035575 0.593263799634275 1.1990671264964574 0.06947120741794488
Ni 2.351433523655637 5.235270323864955 6.9917672910044075 0.22116629393381265 0.2501526538638337 0.4110101236052599
Ni 0.5724289051649035 9.188594879013532 9.362276486633606 0.29499397854824033 0.36024163480314086 -0.9192686247417329
Ni 1.4889649294980554 1.054713557250152 11.494834510763772 0.16361883453664725 0.658884008737246 -1.3216107882593497
Ni 3.9295487400640314 6.938136412213546 1.518439363691257 0.2036002600255913 0.2166594072023946 0.24221308730178281
Ni 5.690961420109811 7.771507593828356 7.987333547420561 -0.35043287624283515 0.7296916755784272 -0.964287098433952
Ni 5.37604912577679 2.8535397733242687 4.922376628703376 -0.4122915614208447 -0.24258898258396283 -0.6885118589060077
Ni 0.6962949487819611 7.309141951618947 6.827188320934913 0.4997442930178748 0.07324121598333838 -0.2411962160014943
Ni 5.1688946701444785 4.397064606254198 7.281691528391212 0.19410260494780118 0.43976199892697165 -0.35454329886678293
Ni 8.238031297780548 7.325954591724255 8.973145045106087 -0.5054937939071423 -0.3062204433916791 0.6142990230380194
Ni 4.661421724734078 0.406169573050549 10.468033183164847 -0.3724919129254036 -1.043031503623707 -0.4061723358969843
Ni 8.23272773963574 7.06731593559779 4.6169674446788065 -0.7955294000088429 0.6576874173259835 0.597606649984003
Ni 7.32544047129185 6.1518839172458035 6.946540026369187 -0.2930067729148825 -0.585353800758579 -0.4928820186804027
Ni 2.499500208188228 5.031254708767327 2.4775048733380096 -1.0204317639463198 0.5852476141980179 0.2724338338595373
Ni 2.335504809907796 5.218241211998634 11.229015305931387 -1.0502920418408623 -0.2300491982457393 0.9364410227559614
Ni 1.2440090925989264 3.385005005580229 3.7928576465726507 -1.195447270355683 0.2436014830088772 0.15337298843892297
Ni 3.49559501648752 2.6524735859704363 2.7614626078119056 0.34201534160310126 -0.30981613116273743 -0.26226409241538706
Ni 1.2633923348662595 3.208634638295246 8.137325928660493 -0.9080192770801587 1.1619609656727796 0.6397017793818403
Ni 3.8493820312357134 2.566606454102121 6.960875868742244 -0.469188788828521 -0.5169796830595548 -0.047162002397783294
Ni 4.080438577146494 6.903762500496093 5.931871039009347 0.334588710121727 0.0938781755073996 -0.10967323355812726
Ni 0.7752656511306846 7.286349279115666 11.158230844011623 -0.2376676340229455 0.24377940334763823 0.9840979625122924
P 0.19775777727302377 5.589102436896693 8.01708939490308 0.28956432289223677 -0.9819235805687928 0.08874316827367941
P 8.600423065028991 1.639106135073683 7.885764095187797 0.05558905011921394 -0.2640798054678871 0.8921404010663732
P 1.7725970543647616 3.211538967755498 10.392430420631213 -0.6643931114809332 -0.326550927418915 0.11386747414513292
P 3.8786237582858267 6.120486492242272 3.7831939863747817 0.19248280995619108 0.615941700847765 -1.0067457818187953
P 6.92887322477355 4.034880291110059 10.399928461253284 0.14745559451322346 -0.8563840694023702 -0.30150581152482914
P 6.273928892173342 7.722810467257238 10.054137372177491 0.734358227816161 0.2754332828074934 1.9101278172372589
P 2.285608068994401 8.511453171252828 5.922854088197502 0.872021261718995 -0.3116372435318762 -1.424346157047063
P 6.8569414625204175 4.007839360296907 1.5523532729165581 -0.6435892873617045 0.04423788677245284 -0.3816820640651039
Ni 5.176092356198147 2.873933217142994 0.2841633826468578 0.3016009423417967 0.4998779903822617 0.5425325918279946
Ni 1.7196877481106083 1.1926601869554057 7.076162414897837 -0.5884887468431349 -0.7166651814117722 -0.037729139119657605
Ni 7.029307102226669 0.6569196374194473 9.069223330334498 -1.139739692380734 -0.01268479455652009 0.5000322565719388
Ni 2.9660509711105467 1.7628017071789432 9.274026361462811 -0.1462392056076191 -1.172271346459852 -0.35986188286621895
Ni 6.167163215710606 2.0817908863443675 2.4929636629713188 1.1732043997970827 0.600103705374244 0.8785210105107258
Ni 4.043503082923726 6.800523509806521 10.437763215249925 0.5672938579330745 0.6369751244792966 -1.2650128372596472
Ni 8.051432639787722 7.162626648040279 0.4734480944075816 -0.05413946215688095 -0.2825711794038553 -0.3411972165771801
Ni 7.774339766034936 3.87267980451469 8.20793901710279 -0.023016772610147455 -0.3537866232064165 -0.32237879831909644
Ni 2.9858220586163604 8.314833674656462 12.299102868041786 0.6775923837800265 -0.2933171050664497 0.10946445998143084
Ni -0.012039437774981853 4.804518578420089 10.20441928439778 0.2837490017620403 -0.09101988012299808 -0.07099741425448418
Ni 8.730405337860324 2.4058220536100423 5.862300622882593 0.506580856323734 0.25787933308413 -0.3812555180506466
Ni 3.606266204305191 2.7569933679126675 11.5215137533429 0.13371459077804715 -0.6988410087461577 0.1751314631619371
Ni 1.037603268473451 3.2436489456390274 12.563338221156094 -0.40980607599482965 0.4829380200938134 -0.049047906566586495
Ni 3.237335185942828 8.134287206315278 7.868958670807856 -0.2496057802214282 0.6087115016479129 1.0994163101713388
Ni 5.471206504055227 7.665228978827898 3.6542444642366125 0.3211724367158211 0.645931562341636 0.037673860401689956
Ni 3.1309844136886995 8.337869877890883 3.4968866313282283 -0.1760128373256259 0.6558215677618383 -0.04213986659284355
Ni 3.3268823377483567 4.365712279534212 9.307860897709073 1.0088515153078883 -0.2191045263087775 -0.9606312468489198
Ni 7.10092317649499 6.216058774729318 11.536180617117171 0.5867002874841444 0.17304655560845036 -1.0263208757372455
Ni 0.41983796082715036 9.07233150403637 0.14671914782028753 0.17761926258079733 -0.9244722804298595 1.2775328241035289
Ni 4.705140000801905 0.44119921381073557 1.642979175664466 -0.9063809701457873 -1.1668013244842164 0.2559926575843785
Ni 5.764219071899144 5.805754591043429 0.4891738658794732 0.9679354938198168 -1.1782612454946997 0.039516570037383555
Ni 7.910067560189812 8.697961632678567 11.392907880125337 -0.5565749288536738 0.4397180330629136 -0.2807500670347165
Ni 0.15512456590727103 4.859448287777025 5.852267156759662 0.14246148373274176 -0.3077985865120763 -0.2846388605661614
Ni 7.92365116319335 8.985255738169068 2.6817405680593347 -0.538308526444318 -0.35163306719852344 -0.9530552342738747
P 8.487154216079169 1.8088290153642386 3.719432229168532 -0.20171898384247838 0.040357063660807914 -0.6979969155783076
P 1.787425369994122 3.015388493307993 1.5377793116063876 -1.0366130016918729 1.071341920532626 -0.08897431044787903
P 4.89845830304283 1.0267165428258611 8.265166033023473 0.027652985830578184 -0.3016225396083515 -0.8010966096839751
P 8.401656890135916 1.673471027134427 12.418164140530035 -0.33744443440296723 0.22308073734770614 -0.23514075383603375
P 6.277951659065493 7.738937613452674 1.6303056560228517 0.0522872394394906 0.1240151041020961 -1.002522487766067
P 1.994688061506939 3.250936828259784 5.989876451304004 -0.5311647163106852 -0.16220524201857225 -0.2182609473615596
P 6.926861841327476 4.068271060246246 6.0534668350327845 0.7870031077053865 -0.26784672870948706 0.3478124079008526
P 2.4491344451259724 8.440964554073114 10.070466558683206 0.4807602957162043 0.8288092451078952 0.6172974435447112
