# total energy = -340879.90217737114 ev
CRYSTAL
PRIMVEC
9.19893079060039 0.00000000000000 0.00000000000000
0.00000000000000 9.19893079060039 0.00000000000000
0.00000000000000 0.00000000000000 13.46356505421591
PRIMCOORD
 96 1
Ni 9.030020066345566 7.516519976173999 11.805096487073694 1.0468483062666358 0.06708059569858126 1.2156988215158675
Ni 5.199750847687467 5.429420553828071 11.643345246962168 -0.8749399780276866 -0.5360235870648832 0.33952779929455723
Ni 2.5650022770508056 2.792970180987059 8.07263214083231 0.5562468560902936 -0.574788623648223 2.5467368166263884
Ni 2.3559933695640973 2.7540127089036903 13.091984595713988 0.4697310344852362 -1.354938712987518 0.47150560988715573
Ni 3.173382766709753 7.2016129769225365 8.747614729517942 1.148273440883358 -2.543390011641342 -0.37992960015037147
Ni 8.620796429249765 4.062533023293983 5.468442418427279 -0.08295587216794101 0.7488685056171941 1.2404621445034767
Ni 5.161455698624169 6.750488209876383 7.349033202687269 -0.6295927159722963 -0.7867087163934193 -1.3571534612506497
Ni 3.388297387792099 6.714805557170035 13.143374422819946 -0.3595872890485936 -0.1283990921024047 -1.153122541445543
Ni 1.6511620901072466 8.785227317913332 9.166735496298395 0.318617017283819 1.1899309685231443 0.6129255397292606
Ni 5.570430964587445 0.46932485170186733 1.5213697755003317 0.16333292786511225 0.25166677651551494 0.5334504270210684
Ni 3.8815716559211326 0.6024812153148951 3.670288772732179 0.24420260692798584 0.7785866015069172 -0.6812898872362718
Ni 3.8662462371511466 4.38031928789659 0.8068336240132681 -0.6418782182078687 -0.5686549999466594 0.1363322309065523
Ni 3.133459406888781 1.1118563720832486 6.3335567886345 -1.8014388019692718 0.11260429116199316 -0.5656786909271548
Ni 6.704861512938129 7.058137252699563 1.7432755840167646 1.2558933914568822 0.5089154179941816 -0.08133016363905993
Ni 5.636111330744529 0.2004207856597823 6.087093514362751 1.3498070481879074 0.13901594838630252 0.7799852816266567
Ni 1.4539554108809778 8.28681084744791 0.5316292102427536 0.6319208498848407 0.8550841196440241 0.11154936753491757
Ni 6.419648662419867 1.4787557284103192 3.825510611737503 0.15753534734672867 0.761812724482688 0.3502061049440098
Ni 4.775468560815874 3.6224653711106876 7.128203669078453 -0.963832784505353 -0.5904954928605185 0.533447598807591
Ni 2.046099787617341 2.647470691980533 3.472711376593286 -0.20006113652408125 -0.2130773462780911 1.8843856752761483
Ni 7.495693596765087 5.645199874408842 13.068018621211321 -0.8139793791839143 1.1013608354922193 -1.218791344398262
Ni 6.367325143834225 3.7548839804708027 0.6515933871462752 -0.7826355747653102 -0.3735236966240277 0.36254560034596917
Ni 1.0692285265969845 5.354127304949117 12.950092007487601 0.11550269575571076 0.9857360123363476 -0.859303042821378
Ni 5.919236023963397 8.20465519616655 3.8130699776771615 -1.0002881991189094 -0.6873538340421647 0.45886632385659043
Ni 7.249438218330195 1.7605097809348733 10.139155394688022 1.3827932733059412 1.1107926703290805 1.6009403207974557
P 5.221138361877274 6.886788768048582 9.577966340102247 -0.587631283938846 -1.67360535256235 -0.17235030087237416
P 2.8878203568197884 4.436359174539301 11.965231475037633 1.5270594143475893 1.9334901461122829 -0.9183265725434379
P 0.7951877775770121 1.736022227053899 0.8660885369825755 -2.3586217967205894 0.45052335120853376 -1.166090928680753
P 6.7229098152350755 4.245370972557035 7.643373232379348 1.8520252566675717 1.1256449048505646 -0.6323497098921432
P 4.455161789164662 2.1578943940468984 0.788465198923287 0.6028061919070715 0.6848045852577497 -1.0517120621168403
P 2.064884004381034 8.806504444933127 11.817509524341533 -0.8047570892546978 -1.507215383038469 0.20015523889978432
P 2.797753625020908 4.677040000888592 2.9650407817085336 1.1039429943970989 -1.4281321064520565 -0.0594665307967492
P 7.5522486235345205 9.140517623527485 11.574815052032609 -1.70701683814326 1.4811742217797008 1.678070330312239
Ni 8.949391437582705 3.6007650932725137 13.281093456126799 -1.9169648947637503 -1.8179702239653917 -0.5337787568947646
Ni 1.8931951592891836 6.000931728703042 1.5429780640301622 0.6113214284669343 1.9975430107281338 0.8977852580569763
Ni 4.428438895090946 3.0149771777426695 3.253133817471021 0.6775964975450846 -0.03103784314241106 -0.46737770376171117
Ni 1.617107648158574 3.6338536474835825 6.270897351363407 -1.2372595784057787 -0.49504405932872814 -0.9144156675248057
Ni 8.152506457266758 5.076016029034955 1.7254498958460087 0.6847631904968529 -0.579759594500253 1.387887914220029
Ni 8.018588422180649 1.9133684146088592 1.7301082344205112 -1.7491747024582327 0.35992178956987686 -1.5255280653047276
Ni 1.4019446559437017 8.58214252188393 5.152722233690061 0.13345568068970565 0.11744182175995257 -0.0478950239090659
Ni 2.621152550863528 1.3581577451723124 1.6028511451515361 1.8631936145795653 -1.789568018673615 0.9332340857828896
Ni 2.9868560461821363 1.271476219920464 10.769505690858589 -1.7253847991274867 0.8325368304711274 -0.8776195817423789
Ni 1.1216808302143082 3.5074971335432883 11.217627006987335 -1.1472946219098563 -1.1259040720492222 -1.0934333531150264
Ni 7.333746419426788 6.111291301922445 6.094229125010937 -0.39708580021468387 -0.024463789469319156 3.347082664187268
Ni 6.235725239318365 1.894280633127634 8.093837516191597 0.0799232559892043 -0.36666707871351045 -0.6317899807339312
Ni 8.041594948197297 5.289394428667968 10.675583687147041 0.6354139506397638 -0.6966031205545745 -0.3019783802858735
Ni 3.4782353345592987 4.471039143784708 5.228131389097528 1.3651074259904037 0.08847963019964762 -0.8552424995987593
Ni 1.3774938977860645 4.80429801005065 9.360920326745587 0.1281445528894374 0.6614980493213252 -1.382565473565851
Ni 8.252416045058368 9.024077557026592 4.924958546018329 -0.4411120851969629 -0.6885283139662399 0.06720477998127135
Ni 0.12088866945237134 1.3221163341634252 12.164680853601311 0.5733452063334771 -0.4847138810473136 -0.2198547742112407
Ni 6.594308762171205 1.651364466585602 12.735253737531181 0.6809638713554208 -0.20023725709062934 0.6861024781335667
Ni 7.54120990653333 6.029742780076149 3.882528344727903 -1.0887850557097378 -0.6854566170194518 -2.0457146853373547
Ni 8.083036131605933 8.911639025438632 0.33284491437839775 -0.24335722820855507 0.21981723610508594 0.4024491214091263
Ni 4.12039429824189 0.539717830125376 8.330001667501236 -0.6466221606507574 -0.8100448200161985 0.840065791858321
Ni 3.8401028757199938 8.172918884788126 5.258572491014477 0.3165933019855709 -1.0091762456371587 1.7606613629415937
Ni 1.042928783341648 3.901441346523276 1.7023329826593487 0.12760333567398668 -1.2115994546355133 0.4564785403507042
Ni 8.36549850180473 3.251086135467301 8.714750629219232 0.5882766308323287 0.5028103335377083 0.021744333655627068
P 6.79027358573484 3.69539449476522 3.1917263546864816 0.31528692446932155 0.27770459534017333 -1.870942919507681
P 4.499804200503643 2.2795962489850243 9.486118695293841 -0.27537363321415154 0.3622946606774276 -0.0821122932207231
P -0.06848879974080328 6.697345986446484 5.058786431582264 0.5872204216536726 2.1960393738682567 1.8354521828002388
P 5.276543522292416 5.955167047802273 0.49240312937902303 1.188344597872631 0.15612226904928597 -0.341184875282006
P 8.98066780241941 6.929471807119853 0.6835559922232225 -0.06906343045656493 -1.1929576711646102 0.26422918656155786
P 2.501226089576427 8.251634135937449 7.1037271539144795 -0.38532711701685896 0.8086415119107686 -1.2148303028679852
P 2.5568520243315933 8.353889451091812 2.7467023185696524 -1.7437861844528098 0.4005259362444844 -0.08943042414869115
P 5.538317497044814 6.399438611376854 5.0170628409970135 -1.593970574347842 0.18987082625464075 -0.45424965102018544
Ni 7.2389698350407325 6.512824632840751 8.666671497320545 0.8844330051197865 -1.383823000122036 -0.08721027656892077
Ni 6.113581835700192 8.566338758710557 8.618755186497628 1.3389878460852167 1.8118558835375376 -0.3320525739634346
Ni 0.35607129484198613 7.521809361403737 2.9659156000308777 -0.14913246799501412 -0.594603344381305 -0.41179225318692303
Ni 0.9115744902790645 5.224238401568441 4.07174575252456 0.5100970970071086 -1.899315814223419 -2.147241121418631
Ni 3.0676134599766796 6.569582036088539 3.937891190061207 -0.2852914065484958 -0.2330465903111664 -1.1138142307642238
Ni 1.8723779788111052 6.066400519450936 6.081909916837609 -0.08260620213800612 1.764835034703309 0.6204519300132927
Ni 5.135413525432195 5.3754504266230825 2.8902911896418884 0.3609093502941268 -0.16453080482795535 0.44555315168745196
Ni 8.584497448177515 8.939888942030846 9.800735008330939 -0.3788139984886895 0.6922466433580916 -1.7628848529554737
Ni 6.286898891549717 3.739659749939994 5.248420550945716 -1.2830745798573646 0.30770396991574106 0.3078235262127408
Ni 4.681998224608293 2.767820304086013 11.716788590850337 -0.23210222412002607 1.2215977034988057 0.43121899445296696
Ni 4.277502837961334 7.460213320537094 1.788096454613932 -0.2593877993088565 0.8105302442930492 0.7125845835844954
Ni 5.4513508049371024 0.627757117568371 10.77179438485017 -0.3338238069312444 -0.9953028300891762 0.28731640739832454
Ni 8.798584165484773 2.805131167550037 3.661403525439304 -0.30105663980255243 0.3040401479109086 -0.9295152421704056
Ni 0.12968468711615333 7.614755358553762 7.619570078952448 -0.13625355514981696 0.6814582944933361 -0.9611943184412414
Ni 7.699606296569579 1.9017225681726033 6.06455521392557 -0.12534410732616477 0.37045662766292975 -0.4230809387268649
Ni 5.669843810114 8.091269174702655 13.244095356311142 0.4100521305673647 -0.611500634357276 -0.8489124436156735
Ni 0.45968805175982796 0.6511711562209797 2.8614516215831944 0.8991209461492644 -0.08941036954403311 0.26057487763842224
Ni 3.8355770017495057 0.24571172162258367 12.773463336537718 0.32201627277335504 1.2941421505254358 1.8971404038386552
Ni 3.9952704410333952 8.058769352064983 10.88284203809598 -0.18550277909393212 -0.12137689514830063 0.22587964024908191
Ni 0.3860239335316332 1.4582421126497733 7.499731007508273 0.8299215043354674 -0.6019402443623504 -0.3956002168080929
Ni 6.558534120156514 7.261562409169835 11.163718512618939 0.9582768876841301 0.6955096303800795 -0.46167782516345646
Ni 2.2933762473748436 6.4450193136609375 10.844362910415995 -1.216521574527479 -0.12943318979387386 1.0255256335294596
Ni 0.019982837451405173 5.199622062655786 7.450440376418706 -0.42248469990376264 -0.045673590777714886 0.39264241973134956
Ni 5.788997561211017 3.9817940073611084 9.638243254287246 0.952561839577224 0.3086552780854168 0.23702228712946274
P 7.809496724316431 0.12060718216884098 7.259164247901327 -1.1045423185439944 -0.733480453196898 0.5470147959690644
P 3.094649117698762 5.009443366586942 7.521636421504051 -0.41312691283794656 -0.20136031495147905 0.9286423526471491
P 7.478114439940692 9.07449689692953 2.689966072862783 1.1870063386771814 0.5087557524878659 -0.6945436669223846
P 0.6288361521552375 1.8362629763555434 5.2157983825279475 0.906384055469581 -0.7540878450346046 0.4184542385881309
P 0.15698067458084725 6.904929059653873 9.776298968462637 0.7978714178784582 -1.8736400067238699 -1.2155769512260226
P 0.9396615857955105 1.710955140530362 9.573873735774056 -0.06648538531674357 1.1327308651630685 0.9738616294962648
P 4.681703858821594 1.9582499981495334 5.271995570887925 1.0131503997935585 1.770237436665803 -0.6725674197616095
P 7.124617925839233 3.6552135648808863 11.82226261190363 -0.6085526074725456 -0.5245312701545676 0.03562674806467412
