# total energy = -340861.41993183916 ev
CRYSTAL
PRIMVEC
9.33122016393468 0.00000000000000 0.00000000000000

0.00000000000000 9.33122016393468 0.00000000000000

0.00000000000000 0.00000000000000 13.65718392411041

PRIMCOORD
 96 1
Ni 8.214963805380494 5.548073028881913 2.1913092670722616 -1.2829290554184356 0.4637295654861627 0.8881814164186252
Ni 3.305995391121815 3.296076303864446 13.408992603961007 0.524779895830264 0.09585329695589943 0.8295191266907262
Ni 7.518957408917712 0.5803981747633898 0.16439930679001724 0.791652947772572 0.10498097028878049 0.17428685577345465
Ni 2.7037584281955396 4.37261919839194 4.75149847171826 0.489247507251609 -0.6522287082042574 -0.3124828793616231
Ni 5.6694068874026815 5.988254687576076 2.678857133505966 0.24179554014839005 -0.2654098371332203 0.28738377030115025
Ni 2.105776501759725 3.8031348189777683 11.545113993561978 0.07023585349811129 1.314429182909246 -0.4569292547348776
Ni 7.648558728689684 0.7507125421483709 10.527613462827787 -1.405225377057212 -0.9855074412653091 1.0349243011355402
Ni 4.133917250009277 7.748346799367304 2.8921548344209067 1.2146066168929532 -2.2213979072377033 2.1435515883821856
Ni 2.750115931012672 0.12909183513956105 4.827500328540978 0.1995831684463982 -0.0018774195283709602 0.568496105771292
Ni 6.561294261952671 5.991725901555137 8.903022801450895 -0.19023592290354335 -0.14247151103507075 0.14146261015458217
Ni 8.16059078426225 3.7154866660064862 0.6574908512478074 -1.0400595654795766 0.19046732218805906 0.2209528923714259
Ni 6.913697130590319 0.6072907518807361 7.82949948983637 2.2550533905086194 0.06682785625782685 1.9438180104008522
Ni 2.753008609328556 2.4654857159500723 8.271747080721294 1.032572513073912 -1.7126146439460117 0.008133684850727928
Ni 0.7529175095227043 4.191976103175178 2.700107121663264 -0.34016671843013674 0.027632417005287898 -0.09543240736839693
Ni 2.732330624980173 6.400041442672706 10.338105708255895 -0.6120621632877007 -0.5084585329624212 -0.3197580728667977
Ni 0.2401632174932029 5.753807775683875 7.600332182431675 -1.4055799321831535 0.9434506213045752 -1.8699522734596374
Ni 7.289549356027373 3.026889258520516 9.789538192431678 -0.22566906690017263 0.14106794581932477 -0.7352524574956564
Ni 1.7598028439596396 8.642427010705141 10.987491461487005 -0.5181575054177399 -0.04326369578464161 0.3607424856989594
Ni 4.820051215316559 3.580445244756578 11.499717606443348 0.9416734747994945 0.8703932391972687 -0.8823211009831062
Ni 6.012935765464826 5.46802048929492 6.3961101995292164 0.7975909105235619 -2.2206384033638593 1.3930869419224654
Ni 3.851778470786486 4.170831557808104 6.783427695439581 0.11588296191326494 -2.9713753296483603 -1.3032741947336908
Ni 5.74309553469473 3.957006642942043 1.4071265705650398 0.08340067301484347 -0.137807272790182 -0.6762194146919
Ni 6.159211976044813 7.933235599854152 0.5071117030694531 0.6952813164193574 -1.3676857282405412 0.7828366350325227
Ni 4.612328918574975 2.1986221444792236 4.429748662008609 -0.5157118720907247 0.5033669773721267 1.1431731435423151
P 8.130852184930891 7.921683549031365 1.9273971606056524 -0.742280053766399 0.3626664421945496 0.5121377815862213
P 4.143780349944403 4.09280389304223 8.981988253864339 0.44996387916063796 -1.0799047225009724 0.9036980239969856
P 3.158179529180149 0.47351091162536846 9.34802870107832 -0.46224938139621036 -1.5194857157653894 -1.1601092571760214
P 5.713282285600379 1.5468737262494645 11.241323983705815 -0.11311028426413423 -0.6471767476026467 1.3428954086697389
P 2.2870354575211587 5.983178503692718 6.605857371091919 -0.8825748688651253 0.13683770978806112 0.9468825298042596
P 1.3967717153162127 8.882649948008737 3.1874226407096606 -0.031333777116275066 1.0817659440794274 -0.1481770460602803
P 0.8001810738381347 5.054656757955114 0.575277201022238 0.0025286799591246775 -0.10907596629376051 0.3760971137781587
P 9.075731559983799 3.677331305897941 4.573190047839028 0.4970646893031827 -1.4895251648475574 0.5583227647827158
Ni 8.6749463137079 2.333206335930815 7.900639780844328 -0.33322036901929064 -1.2056108411522464 0.7940155344674777
Ni 8.580756975254571 7.6565929094315415 10.022912013980891 0.06571893946436425 0.49844717147300605 -2.2674283671342046
Ni 7.290361172199894 2.127938150147545 4.2168606016680785 -1.6388396669463905 0.8346289371134659 -1.64027819916513
Ni 9.266097786830079 4.706826187300639 12.234474694874525 0.42034322808072766 0.8826162636260219 0.33779847530827634
Ni 6.042693027236935 2.605687302066702 6.467660131111586 0.47141433572493 0.3547070781381569 0.44504921546784004
Ni 7.995082928491824 7.62409226886953 7.487988021619044 -0.34655616689624835 -1.1002958845628146 -0.35865552126294364
Ni 4.183661985822106 0.6222486981399679 2.8285392395223963 -0.39190888399943474 0.9579596135540275 -0.9654569503723373
Ni 6.454909018470762 7.222065970283914 4.788413712639126 0.1237040006195805 0.8725786768843619 -0.7137708905831127
Ni 1.8291618049982359 4.527274844867615 8.487325331895597 2.502972012835612 3.2731621627487177 0.6216233246135745
Ni 0.5854277025448783 2.4540922958736395 -0.017083598260387755 0.8838578493426068 0.5592064529392498 0.6359515683107886
Ni 7.0965797186967965 5.045418849785034 11.411437729852759 -1.42370415258769 1.2551701401376125 -0.17068679712702217
Ni 1.561906322271687 0.6122390980449723 7.252620118275947 -0.4780554951905315 1.3483654306453745 -0.033721046401529016
Ni 1.0045245356823589 6.031010339328914 4.732146453784997 -0.7009955931953153 -0.6559308396461929 1.410177835966481
Ni 0.8573917190720562 3.435699354317899 6.757916138937562 0.7568836626121868 0.06363994544814847 -2.8088697827805498
Ni 4.847429015893343 8.320098665332313 9.129376745912884 -0.7991096611609335 0.9157354147774939 0.40707633576849245
Ni 5.735761195480909 7.544478296640107 7.2472938576865715 0.4621969308917201 -1.551900127540353 -0.8840522247416
Ni 0.4184399152231637 9.246436905502442 0.9822490464059783 0.43607555121431996 -1.5464943831437494 -0.8736891363397211
Ni 3.669371774919073 5.594365213156429 0.766699722014835 -0.5920342981025482 -2.5003888254894684 2.074688961082517
Ni 4.9253913621166 6.72824845688104 10.867977190939133 0.09403064192486386 -1.3040732935962187 0.81762571768725
Ni 2.141123164535751 1.0269567894610196 12.71860826777345 -0.10334369179567364 -0.944897895274063 -0.27059061000321144
Ni 9.50188839445611 2.407389537902675 11.479204784695582 -0.5577656067276652 -0.5715433772380479 -1.1213915288908494
Ni 0.4003952012642726 0.8251570182906987 9.734512919009306 3.9861216131741286 3.6800983733949204 3.217703467559781
Ni 2.5863716758928965 1.6676290491070558 1.2527163351851958 -0.1766260454295926 -0.40351792899327277 0.9720965671760421
Ni 1.3670984345274684 7.926489127523881 8.622641091024496 -0.5532499782454988 -1.5778682694693407 0.9495600766364227
P 0.7186691313846766 6.6440435242276985 11.033680069215372 0.7328412769510023 -1.3709291748785035 0.99674239074918
P 5.049841848242225 4.053080887910883 3.505634984775597 0.06548342641479045 0.3332129128201229 -0.11436935348221594
P 6.934729701312907 0.5241822376213175 5.7171295477605035 0.6285457627650207 0.3837880546645132 -1.0807107633420356
P 8.468306438529678 6.70664668171565 5.3780218019114745 -1.5395768300883097 0.6412246437842699 0.7413626841584522
P 1.1780852346353916 3.1074830088891905 9.666049755126595 -1.9807202827438404 -1.9955020690387055 1.6560953687030446
P 2.6635501996047535 6.093389547527894 3.448972082177619 2.263514891012411 -0.2586257243318514 -1.7344841903255934
P 6.419581018135483 5.598704230630256 13.377362566259873 0.20101218758344092 0.11782800145477772 1.0959841445613383
P 3.8430071236350964 5.396757959300065 12.102340881893099 -1.730312061225775 -1.0440350051875567 1.0392270422759522
Ni 7.207593247484121 2.8936487628027554 12.048681699133454 0.8496526642158078 -0.5109651014343587 1.671589864794218
Ni 4.046894288803041 6.418144010197915 5.472461217070822 -0.35070438473666693 -0.2526563941222939 -1.004274180349851
Ni 8.611745958116025 8.916307659897102 4.169634362234143 -0.7943945150734512 -0.7665931765904668 -1.5219809713834176
Ni 1.6798902726782539 7.051659223817232 13.092322710622861 -0.8027454581413077 -0.7648044601211603 0.015219130942599595
Ni 6.534625634124297 0.019963212867748287 2.6647763219618734 0.24816107735510162 0.035236454604790926 -0.037933541820979834
Ni 5.023471819465812 0.17201731510320303 6.912652033908452 -2.107696012136157 4.313678870370372 -0.8632363164375134
Ni 0.8891505276143491 6.785299538246569 2.4556160841606838 -0.11280458009825732 0.9395867674737947 -1.3606499044396825
Ni 3.213616309421007 8.267937143442666 7.4889715322464445 0.11844172377937666 -1.1126364084060387 -1.5617150567482458
Ni 5.100585024635051 1.8207263817803034 9.270223119357345 0.1367672615614419 0.3322063259324795 -1.830787687445034
Ni 8.74340947759061 5.109459015210554 9.768219153243614 1.2322942639807035 -0.28241151389753943 0.15679384119501386
Ni 4.046194447275004 9.086527781956306 11.386308753386066 1.0600339517189745 -0.28165560956812136 0.6396986940580467
Ni 5.630421048680867 1.9318798788732348 -0.08982512668449348 -1.204782688823996 0.28883747202854126 0.0956982594352739
Ni 1.5665719324585965 2.2388956916126266 4.195446384032201 -0.3108828818643549 0.3879103043630029 -1.5172419140365354
Ni 0.15780306710776462 1.7765150596491492 2.152577237544614 -0.8184253307704099 0.8137235544193663 1.847833072963095
Ni 2.7294659403254107 8.388319217485304 1.3864775129998155 -1.0633797282627557 0.8344070509106468 -1.4827770474904463
Ni 8.426614545899456 6.701887759325002 0.1601881270353127 1.4131921973127726 -1.6756264967574366 2.296879068295154
Ni 7.384914428247803 4.95202266506348 4.580469332852645 -0.1788248528531243 -0.328594440211505 -1.0879728442210874
Ni 2.955141505066222 3.8260896210973625 2.3697128693993066 1.969969986205872 -0.14208173179581982 -0.37226102786152016
Ni 8.99991539444652 1.495831950804675 5.456223027376302 1.4728109374166698 0.1593451468619578 1.9686957474791384
Ni 3.338617337548686 1.9186295459424119 10.886237456088658 -0.9275195518966155 0.19115946315907725 0.313144424205022
Ni 7.744502336573291 7.644443660504829 12.139037772257218 -1.4869347784125617 2.222200862754973 -1.8188441419299128
Ni 4.105559671293241 5.922198978549812 7.989207059022431 0.14608776763141937 2.9504095260299703 1.9464441351697894
Ni 0.45883756758753813 8.274123742550508 6.039439230692585 1.6824039246905864 -0.3410434646081352 0.43295166087335757
Ni 4.066331220841706 7.229204353869886 13.227187771807706 0.860430471557602 3.7195383245580977 -1.7307332079235935
P 7.642176173953992 4.218943330055515 7.974730603734488 -0.5408791153849717 0.7786791612207234 -0.7233839881928444
P 6.4880721756793145 7.826495769998037 10.296082557302402 2.0586509337830483 1.3258495089310458 0.17164196195143988
P 4.6304968046428 0.09697004212472665 0.5215060436181063 -1.0154553937776511 -0.16574410840976614 0.469488836567443
P 2.7067910748170303 2.156603659135917 5.94136717144171 0.7852568144382412 0.3848609760137178 0.9794211258619132
P 7.225173266668396 2.0613785552210944 1.9304839283053115 -0.31222474060423006 0.3781822784419616 -0.5169876534793548
P 4.70998013978699 8.41650883423461 5.194701579569465 -0.96874153466088 0.19148213660581861 -1.6019371374930862
P -0.0951532535179441 0.18457153899413906 12.408589668317765 0.5792924250558474 0.4932586852935311 -0.48939817389686036
P 9.033797055623856 9.164284841331341 8.3653392210707 -3.001317111513115 -1.2840608550300336 -5.258683209315311
