# total energy = -381169.16588845075 ev
CRYSTAL
PRIMVEC
9.26036367568807 0.00000000000000 0.00000000000000

0.00000000000000 9.26036367568807 0.00000000000000

0.00000000000000 0.00000000000000 13.55347829127312

PRIMCOORD
 96 1
Ni 8.742514755785782 7.126923950526206 0.8680951858934497 0.5194371434611119 -0.2932690254373337 -1.4429259769317795
Ni 9.195994758614814 1.6434274580777104 6.346741099916749 -0.7613635527604113 -0.12218627842347345 0.8195931258262659
Ni 9.35602310104668 4.048556859236884 3.9611399534025815 -0.16998025797830082 0.06604058446984111 -0.9542623672080984
Ni 7.048423848749982 7.439581604916988 11.693601854285971 -0.6107627277499869 -0.07074158948993624 -0.5059766470808318
Ni 8.296387481611973 8.660958734039504 7.16135953840695 1.0943466089579152 1.3295539543658264 1.555806918793927
Ni 8.81889423431006 2.3437609719423462 1.5660228573089332 -1.2662374536953678 0.37400629268740104 -0.7775370771964804
Ni 3.9117442482138873 0.7981386955244147 10.977002511853453 1.0638245291096582 0.020136365738558867 0.5058141533610385
Ni 7.588988310362029 3.0034692709323454 5.174487421294688 0.9829106270724105 0.3014021960674293 1.2714670775254233
Ni 5.153873852042137 3.8704800682546026 1.7503503936845077 1.3344544769912372 0.05240139641985169 0.5713238050280741
Ni 4.052798105740777 6.151048319361635 12.190621308397446 0.08961811467946502 -1.2686362929448476 -0.20457136568960896
Ni 0.5259367913553845 0.11535171850602079 1.0212273355928927 0.34853231678601265 1.202647130538232 -0.43201629354328175
Ni 6.051286422884666 7.302398579352167 8.594057237604169 0.11185301481826543 0.1594472196574609 0.9963060745427101
Ni 5.136807002027559 8.919906279865687 4.823235349754824 -1.4044951837594069 0.4715763152240911 -0.8840977332675549
Ni 8.399983168596828 3.6855876497027453 7.567164411594065 -1.49891174826878 0.09421704690405709 0.28639312425310676
Ni 4.5494314026924005 7.671729658642147 10.489782374445952 1.9646825125546872 -0.6376487535075535 -1.2891418690973668
Ni 3.9594073393831954 6.37277846409797 7.965460055982035 -0.995568682156053 1.284387128021201 0.42286393762005237
Ni 5.542410925325733 5.255302613957317 6.833758435362601 -0.2629726884466374 -1.1471807220398114 2.2474256987600323
Ni 2.171036671089434 2.0272324855894945 9.718263519969778 -0.816756170598103 -0.2949649250825178 -0.29950729303756163
Ni 2.983781738034356 1.614535123815375 6.956336015543269 -0.7617479326830235 -0.41612918999938014 2.3290021740819435
Ni 3.3652161124784614 3.3470750602925907 11.295671994258052 0.4841711211699662 0.38820006768927984 0.10273536878771339
Ni 6.703540129220441 5.107785022675585 9.397101147698699 1.2406140967003083 0.3694299861706283 -0.5490480243490092
Ni 7.607157143638536 0.06155826666951175 0.15481012757390938 -0.19753374211653724 -0.6758142088336813 -0.8178113513354947
Ni 0.11008349768491732 4.142595851042659 13.5120992633027 1.7560765717843885 0.29173047730562013 -0.9805578105695176
Ni 2.3149705016790123 0.27366781971830206 3.196276522206644 -0.7574387637847084 0.7275545746307663 1.8374584145969903
P 3.315154587150837 3.399164605236706 3.593013647409887 -0.18471602152657868 0.7538600452945147 0.7989255701745853
Ni 3.1426247539323833 5.436527928545109 2.560157147276404 1.1216612376124684 -0.6235123141061714 0.4313858590481345
P 8.795771106536645 6.132555373361031 12.406257207884408 1.0111169143032974 -0.007523047849922528 0.598832037750672
Ni 7.314261105054108 -0.07868993922890953 5.304899269034951 1.8617615101187293 4.240962673652566 -0.6031221804855936
P 7.03390359871045 4.070439098295184 3.2408670247515157 0.8316958226270709 0.14298238923321827 -0.9722096957151387
P 6.094782350458446 0.8035986058709127 12.094513551375579 -0.6142856533015808 0.5433951969386062 -0.4261204968841371
P 5.240161919560228 4.9832609140776265 10.816109251466425 -0.5748313039607003 -0.9100491630259939 1.7580581209907915
Ni 3.2310982672472406 8.7759909700032 8.814572422643318 -0.5350205997216657 0.06335738121072314 1.8095894561008643
Ni 9.20348639272322 1.526070870864063 3.8067113528067513 -0.29237762397131584 -0.40983461523992004 1.1504020571905864
Ni 5.948598251527282 6.014865413059741 13.513955966193597 -0.025955286413181105 -0.5416728149308607 -0.09076842623382432
Ni 5.999039451760276 0.17218442165820244 9.641090428289642 0.6700755065776912 -0.5245708651432514 0.20891190204649182
Ni 2.6218496892173273 7.818432337931865 11.42457903292215 -2.447123281297108 0.1780301248659708 -0.32144754475407866
Ni 6.555383572854059 2.3940354856315196 10.158427120020209 -0.26585746619360023 1.1997968055736306 0.3661934815112016
Ni 6.886534173245446 7.531898169103278 3.9959450297887957 -0.5553917071788499 0.22624550822893294 -2.662084989082106
Ni 1.7333918899234129 2.299005634926363 5.0962567960976415 0.897168450408584 0.8559701217934033 -0.8102975594569528
Ni 3.1368833285340987 7.4124765208189585 5.927884670348438 -0.36134360961806805 -1.2742991476575796 0.09297597540810439
Ni 8.279200246871302 6.520851677192441 7.776687545104563 0.08019245049019093 -2.620878432936809 -0.9525237872504371
Ni 1.1828077149550054 0.35844089176032967 8.087631106203052 -0.6631181014232514 -0.6497573638456293 -0.046556250492984334
Ni 0.9628926014736114 8.831738358547835 5.391356801205927 0.3398085637597696 0.33075339553603683 0.7519959955025823
Ni 8.800910608304465 6.956542521650337 5.264807451100542 1.1032104871064483 1.6425163444670294 0.060779078960585646
Ni 1.5340903456945703 3.3444914188633628 7.61882983188779 -2.136399807828753 -1.223197443885758 -1.2393545132615944
Ni 7.456222478208469 4.485627497863076 0.786781785672066 -1.8610886524214205 -0.15683986394160085 2.4284352179693016
Ni 1.5186903611182037 5.990603260570216 4.437381929826748 0.6699842324154655 0.8561367292782547 -1.7085188766100834
Ni 8.420115198945007 7.86580835783126 9.485848767774506 0.24625846101575008 2.4607709539875295 1.8121114511917695
Ni 2.9864765038261316 4.571295121023611 5.663686498391887 0.6132608115814923 -0.5082420460762408 -0.35423733759058995
Ni 8.586153517317982 1.6677081312943274 8.99185189632432 0.42396745509687633 -0.10927291279591504 0.3494203758179208
Ni 5.300983987327863 3.419407759947432 12.816073670559486 1.6508821999332215 0.9680149409075007 -0.850047328551065
Ni 8.236741480014631 5.977277597428068 2.7366911616919847 0.29993101083854157 -0.8746193614634743 0.9509371594896074
Ni 1.4849270756308715 7.61162989923107 2.102903546302532 -0.6979768609736496 -1.9192130673679786 1.5972561870776492
Ni 6.371519054655766 7.465593966116637 6.406945501435892 -0.9519272913170187 0.2788767612714036 0.10149352596081229
Ni 3.683550369722709 7.530036836030608 3.3573864751006393 0.8664604798017658 0.3083413463894238 -0.03461759007386941
Ni 0.2957899021924347 3.14527321790643 11.452445318903633 -0.042720421686661916 -0.2910635331455826 -1.985144637063781
P 0.9876733343216917 2.188631361826113 13.264192848931957 -0.3075013669866317 -0.08987651054717424 1.9707868256802126
Ni 7.091679006871575 5.679353181438367 5.244437429409241 1.5317743033247553 -3.210183247923336 -0.9545698711461883
P 5.48057021756808 0.3016396738442031 2.4610138430842827 -0.6037091633373152 -1.431298162884864 2.647084401908215
Ni 6.065464039473011 1.9830049892956114 3.950486831179699 0.4312642458686056 -1.3853972865876916 -2.3862228462673096
P 6.170161709719795 3.5290504643275775 8.072207970717821 -0.7740324064773315 -1.57190845234148 0.1239827082022639
P 4.319774386761014 7.228213806988203 0.864024330078795 -1.0484362195790458 -2.2769666456419433 2.516826402220201
P 0.4676242821086127 3.834485035152776 9.326826100823695 -0.29185080493356835 -0.2731701978049295 1.0497770498776564
Ni 3.4408918033732716 4.0247855060152755 7.986075477307296 3.2853003407731487 0.3578754485638095 0.7460235799692312
Ni 0.48293721926765065 4.957656008873986 6.150351940023005 0.07303527062011939 -0.19872339154926422 0.5984718261977758
Ni 5.719413514136722 6.013568962163354 2.5492604774922727 -1.2610440824198863 -1.696747080786136 1.2661235538253228
Ni 4.47464470669797 1.8085860419138509 8.838372482991918 0.463616436947066 0.8583627903952958 -0.6538837273091772
Ni 4.298021792792352 2.1566831075937225 5.294679531826004 -0.36634543370803363 0.25704732410113795 -0.5388255752900527
Ni 6.520212712107794 7.674600371341289 1.443987934432038 -0.07476279483418737 2.3702665800483693 0.04246871068717202
Ni 1.5954587749113969 2.4858612505498914 2.4798660911904573 1.3465026664050228 1.0781108638253432 -0.250469156662988
Ni 3.014276115190084 9.011370890605779 1.1123743158633708 1.2545157943830652 0.45031663451436643 -1.6741036323550071
Ni 6.682658009425066 1.559834156351395 7.288843259194088 0.06758967412451584 -0.09920575836790012 0.03786077960151544
Ni 1.661466646264579 5.279925920625122 11.724734270489993 -0.2770646477633293 0.08399305518320374 0.2868605508078285
Ni 7.459380262177525 4.6198935089110265 11.959615983533817 -1.6356047049488605 -0.6577010441727382 -1.1596541719164737
Ni -0.02552989625892094 8.19851469929831 12.251233165912597 1.796498941465493 0.16862297261945797 -0.40308289833838323
Ni 8.144924975459805 0.8655217308641218 11.410686635531011 1.0871647464974954 -1.8829669405517506 -2.9258230949398576
Ni 5.4894879476625125 4.17291428129102 4.77491755088284 -2.265562774680376 -0.5472297401933479 -1.195814680997431
Ni 3.456115841042271 4.390579126430828 0.36057540555759515 -1.4515975365638485 -0.2363527718662639 -0.8199561655926394
Ni 4.814703776820243 8.359413515903466 12.845444765617131 0.7385802363173086 1.9905727500578878 -1.7916066463701983
Ni 1.2029582660302751 5.077698101515863 1.6134877766983653 -1.2487842912159266 0.08198425228329106 1.3452942479192185
Ni 3.2724087490242537 5.364787892157187 9.973503216232295 0.4954106986395274 -0.35586998809800646 0.03675674790405927
Ni 1.6522062827189588 6.685658367213847 9.024014064954615 -0.06645478918912426 0.8816235606954493 1.5777119463971343
Ni 1.9245257935050186 0.6320994511150861 12.292151008275274 -0.461390890050657 -0.4138977295657001 -0.3358274676248345
Ni 3.9618705960863307 1.9780229137080678 2.1069697719354137 -0.947741278260129 -1.3566616092158958 0.8244476257050898
Ni 3.6677707102409713 1.9189325339234637 13.261184156815986 -0.8776972290578496 -0.5720020620420213 0.3800643259560229
Ni 5.839779719502696 1.4833991156458441 0.8823154001541044 0.8745507130090681 1.337443127305916 -2.131521396690529
Ni 9.03076209187031 5.75485292542581 10.232673010783573 -0.26030311203427425 -0.8593840325709586 -0.32976609192210304
Ni 7.699075512192364 0.3935700808706407 2.54154844673148 -1.2622365600660908 -0.3357189670714283 -0.508998207515975
P 9.179483530412973 8.512644751492846 3.491416346878176 0.6602639198039081 -1.1415988570766595 -0.09301968416184625
Ni 4.629635411361019 9.10889177910471 7.224153137573448 1.4394051082627144 0.11843889556589925 -0.7895042768606855
P 4.95390556163801 6.336542661543958 4.987083592149259 -0.7450748429027169 1.0028284490422599 -1.0706330673910593
Ni 2.317748610742698 6.508127937680759 0.09980264207656953 -0.4282087468717335 1.1601118282791827 0.7795888175191864
P 3.0371306924206753 0.17977884580196574 5.371500729691408 0.7338126397253362 1.3361166951850085 -0.803077901780062
P 0.9797927649443686 0.027365300313662907 10.304885325712322 -0.272671146681324 -0.24858582359734607 -0.08732957575560445
P 1.129866216564693 6.915074613693048 7.1108461073383005 -0.43300128316437037 0.34699274021303467 -2.877880248511992
Ni 7.686999998128875 2.3099606450008316 12.890862218626626 -0.8822629940516613 2.3491143714507867 1.5320519824661745
