# total energy = -381166.0489362678 ev
CRYSTAL
PRIMVEC
9.29614341065487 0.00000000000000 0.00000000000000
0.00000000000000 9.29614341065487 0.00000000000000
0.00000000000000 0.00000000000000 13.60584555007616
PRIMCOORD
 96 1
Ni 1.8102565835969298 7.188772712710756 6.703967682502675 0.8042541814763503 -0.9193483289397327 1.528584078522232
Ni 8.071320672352426 5.856356488736536 6.789943064121496 -0.005425541890945495 -2.511860573574493 0.03271291685198882
Ni 9.268431530109213 8.636321671868963 10.85177762146719 1.0164239283385075 -1.5791522783880867 -1.9318618664802407
Ni 9.070953557278093 2.399910955233606 7.099761210679252 1.1255443747169585 -1.6537939742633776 -0.09364394800940647
Ni 8.1839713372664 7.563816319352883 0.04231046676757321 0.9313870052718217 -0.10536432177012822 0.819123128168383
Ni 8.64647306038902 5.641513320158651 3.8532160863438456 -1.2648621706143959 0.3521912536948386 1.4525694135588143
Ni 8.280790670083615 0.035829195635536465 4.267799909040196 0.9390938869977762 -0.36873784519961006 0.2958041331543615
Ni 5.7353114063925155 4.9143782847645285 5.9621763475291365 0.7519016360165631 1.2613037638391762 0.7989119433278306
Ni 1.845052048093794 1.5222341746986303 2.2906533826363202 0.8440381462425077 -0.39327516821934205 -0.18895988440459716
Ni 3.487978051689775 2.8674790764729234 3.9105379653661707 -3.332972964258763 1.2645310125272222 -3.1474516732220694
Ni 8.620118494038872 7.726526716117139 7.7315484927458344 -0.45432241323964984 1.8058729264812254 0.05080782668048669
Ni 2.240463504779369 6.951804722999413 0.5970215652283848 0.7611516938599213 -2.2603683749636296 2.2879581116564403
Ni 5.189479054429421 4.321144897944499 2.478822197533387 0.10438601701725894 -0.42108550556339086 -0.06031036685428323
Ni 4.909758101527836 3.247533304371745 7.687547987120251 -0.03311426605546555 -0.1504704700801473 -1.150480732947322
Ni 5.746987362419249 6.700762372281323 3.5996303108097414 -0.17358263061757848 -0.6898069235683475 -0.24336674129025185
Ni 5.10041270515225 4.789605448943822 9.405993070313661 0.6174825629723236 -0.9736965646733101 0.42096286394259763
Ni 6.567028054287231 8.476242083668057 9.582909833319997 1.4605151507684524 1.233798616440372 -1.0687145102121078
Ni 5.154906697372559 6.917678580822552 9.975982380342892 -0.16700394895879625 0.4185645389137501 1.44048394314919
Ni 8.54662318484512 4.856816565244203 11.401085801422639 -0.8271377709427432 1.448655423216389 -0.038838313023436336
Ni 0.09483739505853768 4.210957711013874 8.269129587886216 2.1671733415661842 1.939996579772233 0.7727468548966886
Ni 7.162260111923939 4.164727990216945 8.379622617932508 -1.0533151449379021 -0.9438144324018971 -0.1606679794384394
Ni 4.216814281313907 7.687138956813582 5.572831553982928 -0.23820010948764786 -0.6995465194536146 -0.7906651299380061
Ni 2.923711447496576 4.445425038168536 7.724855269545796 -1.810991221544397 -0.2897234741779204 1.9099861494530717
Ni 3.202930408658159 8.187559648593085 10.204928727971856 -1.8919578311964513 -0.5565520460355382 -2.996167706101692
P 9.21623368529225 1.8676230841072552 2.989803308139617 -1.1193197339634853 0.16233636827979786 0.3198956268859265
Ni 3.6803524418308657 0.16682672903227916 0.33941241885959095 0.20101167336280865 0.16069009092562647 -0.32239062539363833
P 1.2668784134738493 -0.458943159454602 8.877405993848331 0.6759157674085521 1.5972644146077652 -0.5390821713855489
Ni 6.7731514404184 4.073216755243093 13.457405721368298 -0.9931880977390186 1.6866094781315017 0.7305951612293031
P 7.7902424825241665 0.33405969952822734 6.568670682814241 0.7399467776475321 0.7337630174343234 -0.050738921115764224
P 7.577407280906293 7.750389916053941 2.7728852403697206 0.6255985072112388 -0.21328097764846493 -0.2326920351852251
P 9.00664283769773 4.990699621531628 13.463895359029333 -0.12607764305807964 0.380120633115255 1.0449302633083164
Ni 3.271052547005212 5.4661322800309895 10.643471500881343 0.6544303438412665 0.003149087151942964 0.03518091877650715
Ni 5.720614203782433 8.785069261346473 2.0672177887753866 0.17961983795059389 0.8542935054219287 0.01525461216622534
Ni 7.912133513911524 2.5127475430142456 12.710240285933727 1.5531409419259896 -2.9147771215383416 -0.784678830447584
Ni 1.3011068132273766 4.211357445177209 3.7224500269161043 0.5753835769197445 -0.04833339699806515 0.4667791509457638
Ni 2.7007434496453118 4.816006496010638 1.9391727105013274 0.7492318024938839 0.007315816935122885 0.07826515156049102
Ni 3.72873886788114 0.7885035256094703 4.464118652797643 1.4160067839434325 -0.7272208454404314 0.5157208709517892
Ni 5.82943485764305 7.424411353925426 13.627206286652926 -0.6294693030205546 -0.27886184887306814 -0.8456553701309565
Ni 6.227867560911975 2.141348024558807 1.238031551096019 -1.0209536978880611 0.11872454512711811 0.7696533035730294
Ni 1.2247018111702768 1.6586829665460705 9.84415563096081 0.7520386758150597 -0.48684198313391 0.6067284097796132
Ni 7.951112242908412 3.77340683659806 2.290965733052322 -0.1799286274402643 -0.8047516899380592 0.05748858113477196
Ni 4.336864676321254 6.6675193637211345 1.6771925175371756 0.02879841228893105 -0.34248431081971986 -0.20087077690957017
Ni 1.3501811538843216 8.583073362855329 13.382301249763538 -1.9008379072949007 1.3659875146025122 -0.5315231280913685
Ni 8.71441857201274 3.4094907135259964 4.85753143866654 -0.33493812304134574 0.09702289178396839 -0.2629102106398182
Ni 0.7406321058998657 3.5806791930103006 1.2407794910653678 0.4473647509748941 -0.22511293728638648 -0.6868910354731331
Ni 2.3649202717267412 0.41362260147567836 11.706156407580036 -0.17613882138052891 1.528098397135065 -0.3624856936423112
Ni 6.9577077740161135 1.916028102444196 3.5942422661337106 1.4092193287079537 0.36586232342402797 -1.5774700055896576
Ni 7.12231458402038 5.744895730169237 1.3752519228401303 -1.3314514284988554 1.5721897310273245 0.5376554662413515
Ni 6.681119621417878 1.652891469249371 8.11912515983003 -0.844418669510378 -1.5567867662086932 1.9759814825072746
Ni 6.758110280504981 1.1901945271167478 10.807884951104274 0.3702928483915558 0.5814382677542567 0.24462143963295935
Ni 3.8101173066216014 6.530680133853692 8.073259847851771 0.3909038397736881 0.9885945648310651 -0.42302540289858115
Ni 4.644446170792999 2.4801552644873945 9.95866273569846 0.7010837820337475 0.03357192241817444 0.5389039939364719
Ni 2.9565826103234287 2.980715398416899 11.498300220331524 4.053560877763709 -0.9135394355674394 -0.47433125226140893
Ni 2.3823319481901737 4.7796027987170975 13.135259959136137 1.148887420318273 -0.7263057898253298 0.37225819964804274
Ni 4.663224380326438 0.2655415454751721 11.318484919833836 0.26706382779687554 0.10018072068665972 0.38133959312402066
Ni 7.61857989972986 6.184268648678395 9.543316629248773 0.20534681040305278 0.15178507512651276 -1.6145216590263163
P 1.2996566148673685 3.8555196706618586 6.146685270795849 -0.00988306344166685 -0.6505706037755441 0.30390002278861855
Ni 3.2525253333417736 8.609799774938814 2.5277208410813308 -0.5320818288083159 0.4041409072892524 0.43365100093322734
P 1.431903549928118 4.855979912344197 9.925423445595605 -1.0238621297841077 -1.287183202709099 0.515848397668589
Ni 1.670126518989469 6.518111748066954 11.904121498321823 -3.4901043912988543 0.08674182157293449 -1.0128801768513072
P 6.520510153046968 3.6054255265637742 10.947141178238397 -0.4041151962576394 -0.2991532521322525 -0.10859748399544523
P 4.309329499767765 1.4578026052549318 2.2464474322430696 -0.4266917960065748 -0.16090863469433578 -0.08802145961630647
P 4.658343905076411 4.850383634057499 0.3895911413445421 -0.8343602568331114 -0.19448389954661988 -0.033953474127309265
Ni 0.3447539828189546 8.566423970145234 2.234936947567671 0.18681249904429117 0.29558661782691675 0.07525438975862522
Ni 1.0236727115858038 3.3391096123489308 11.730701014823174 -3.5337884624503655 0.7114471275459425 0.7149638824499494
Ni 6.037817206604231 0.49353039034079804 5.074055349959101 -0.48534688664562214 -0.4938459252555688 0.5277497770918653
Ni 8.038384436522241 0.6443677528396533 1.1737738195326548 0.25944976289504346 0.1829386179111817 -0.03289880761054979
Ni 4.544168672655763 0.38256046814150224 8.924686178841931 0.37567031065338524 0.17904571061467875 -0.585787802972204
Ni 0.7432062079888803 0.1972994868791186 6.6775722131218584 -1.7642241405921872 -0.5280734789798712 0.707405353376401
Ni 3.414380484919358 4.507625533212223 5.564695569337549 -0.3777559895378204 0.7198608055309343 -1.3284627781841767
Ni 5.464096424640979 5.426177455984098 12.075555395990127 -0.3392624614483125 0.5263297568158872 -1.214166186921425
Ni 0.28813675146130024 7.205031667400848 5.222889393569611 -1.4582664639435916 0.6124439721071517 -0.8541736920146128
Ni 6.0530814739576515 0.4572057102655921 13.181750901560733 1.7577925260342309 -1.7083191018944515 0.22910894581965702
Ni 8.573925957815277 2.830619868156048 10.318292407079499 -1.2642150239487002 -0.42827508133329467 -1.734229136891994
Ni 5.992498507853974 8.519171673581633 7.003880788338708 -0.8889026108553659 0.732248637672326 1.6450653361411283
Ni 0.8625538145602236 6.825274916088696 9.232750143152678 0.2948944768558986 -1.3673059763036195 0.4137732881726938
Ni 1.2044919955634954 1.6603190877727465 4.896090911599092 0.21246053862969863 1.4770110915409465 -0.7493235908767417
Ni 2.955801734283425 9.118847287731699 7.203709755818841 1.393490090898155 -1.596176066639593 0.24435327357323722
Ni 0.062675527968022 6.095760068001227 1.847660545913142 0.7398138516140936 -0.4787566350226142 -3.0632776123763117
Ni 1.6691411277961297 6.876970769165656 3.0765948911431096 2.1695377280333026 -0.4946895042027868 2.193667016981338
Ni 2.2238420004992747 1.8631330468772296 7.785360148045472 0.31323981213230573 1.907554400083128 -0.5889312336971921
Ni 7.039764831219912 2.776953232692411 6.349371872736665 -1.057047872507457 1.1134640465136565 -1.8996176617345542
Ni 5.3558242432370315 2.8664193161329177 4.765406658232684 0.9971486250486633 0.5276227645956978 1.6142059275581102
Ni 7.076475301243454 7.249560193967769 5.313695051264459 0.35740930756066835 1.120923073894863 -0.13879817594854163
Ni 3.059081886717343 2.582533691017975 0.3824089410051681 0.3582675417959056 0.31062911398233595 0.48506175130503565
Ni 8.534370867931719 0.5969341814810509 9.03131573171887 0.19522334881580572 0.2771168411575034 -0.6145515053684577
Ni 2.0261316240848206 8.79908784549322 4.920036847211561 -0.3881900403869508 -1.838645750036872 -1.3487945477629932
Ni 0.8914034657810539 1.5672089161455518 13.345184538276328 -0.25772198157065934 0.33805095763871457 0.47054170331198963
P 8.662099877332443 0.05171723420662654 12.555324705354515 -1.4406142980794674 2.2403456519848 2.954000842925655
Ni 5.106250683165616 2.355112840510019 12.710281188964395 -0.4395519397986946 1.6281243374114154 -1.3350327180922104
P 3.7189407328077513 5.819125434686325 3.785785581060797 -0.8216736625043785 0.08523155557599514 -0.03289443673517561
Ni 7.295418069031362 7.17925346193737 11.515892241975623 -0.6490850203689531 0.3541512056346869 0.7085883179409087
P 6.059068190264352 6.5933268437773815 7.764869588910023 0.39476100873624914 -1.9386567779148869 0.5691928747280004
P 4.371083779931449 1.4016446033779466 6.778242008507762 0.5437086144139668 -0.41810611122009284 -0.5077352816431514
P 6.783312125081791 4.522973465855643 4.009996473275734 -0.26439759381862205 -0.2757855239405896 0.8774578593535339
Ni 3.449138764842888 7.619081891469863 12.258458875303164 2.8428744218607687 -0.13109232266385168 1.8668294115599398
