# total energy = -340860.0816808787 ev
CRYSTAL
PRIMVEC
9.37803664023398 0.00000000000000 0.00000000000000
0.00000000000000 9.37803664023398 0.00000000000000
0.00000000000000 0.00000000000000 13.72570456945454
PRIMCOORD
 96 1
Ni 4.52351474936691 8.933114487164344 1.092660374453847 -0.6381848285166816 1.0908565935267858 -2.3143474002832463
Ni 6.519986222405734 7.599538914989931 4.659012374555057 1.3691617985654354 -1.305715457185332 1.8369724760995074
Ni 0.5112108465604255 6.3523913288716845 1.5178155430143563 2.3279441651310746 -0.6507480098936728 0.4337672147961175
Ni 6.5240281562154365 3.9394506248467027 5.264260546134974 -2.276810836790369 -0.4161636427817413 1.2779683689790506
Ni 0.8075689971416785 8.40493408322885 10.356496952011254 0.4977694286796911 0.2581662681969295 -1.252581810585146
Ni 1.277710607663065 7.321705200265529 7.2560392496184045 2.4933509448060795 2.0655258065260105 1.9020622666203049
Ni 3.892710490026396 1.6822978661738355 11.90338440873808 -0.4177037335753516 1.5612106063080016 -1.3277927487003454
Ni 0.5149226734789402 3.82991515640746 2.1140326652700447 -0.4878508840143985 0.004419469223934325 -0.24370072759090286
Ni 2.0720396926178837 8.370976212405349 2.103505819095126 1.5568011643863964 -1.3133233514395768 -0.818097515117346
Ni 4.461441524572446 4.2848999840443005 9.686819792822492 -0.28660755425675805 0.08542104587898192 0.41095433066666004
Ni 0.34535182761611044 4.6709468640358605 -0.2176417240882333 0.6543290423767117 0.5563684692698224 0.25732011814655037
Ni 0.7949574134124753 8.332507505938073 5.207079843077218 -0.9896687717318504 1.8017524765549486 -1.2274053113195182
Ni 9.345297955387084 6.346455031652332 5.95462284083199 -3.562309195597878 -1.7884917548903005 -0.26084484347035725
Ni 6.876726737767789 8.803585044520268 -0.30675557984996776 0.8088618554516908 -0.46539384056246297 0.013464610145338103
Ni 7.361177356657719 3.481727410498882 0.6896580041422401 -0.0998701314247764 0.7321956729472036 -0.754688454733081
Ni 5.3391601116986465 4.239482152396077 2.212432652953743 -0.20627832107838667 1.5247467070540128 1.3359210342344348
Ni 2.4757360376439173 5.479333625976161 6.014370312529457 0.4404016893934996 -0.8982357153308337 -0.028845977697414836
Ni 0.39034202079166025 2.362383708275328 13.666711325250578 2.0448042577079426 -0.39222615812953737 -0.9247234772087172
Ni 5.669013795895006 1.6470552043249767 9.792095757001025 0.04502207323664504 1.2499752262002344 1.1972331586115124
Ni 7.77090377926992 6.606592391158851 1.1375792945506178 -1.8705035179774174 0.035929109796441344 0.3132475254417896
Ni 2.5194939567995256 4.971616098079572 2.6452449884646496 1.5626388541140959 -0.9591855155413287 -0.26720498136043014
Ni 1.2612615313238158 1.291290004777793 2.4791505807996304 -0.5320854283527416 1.1941828018209628 -1.0649961808202562
Ni 8.62345171594313 0.7340480029701776 3.4763641113207653 -2.0596017277320917 -4.01483697883095 -0.9841357577287632
Ni 4.926882863109094 8.235266643588202 10.174054750803144 -0.22474012732800006 0.24128337639866188 -0.3584945702050471
P 5.672474291430458 6.160526076406063 10.186092398687444 -1.2444296137916568 1.282098331987024 -1.1806284601752957
P 1.6416534551964659 0.9874791284457981 4.686778865561471 0.02251849281749025 -0.12772957683920583 -1.1317214500619477
P 9.498732013532155 8.221105808199225 2.656459244728318 -1.5963611860672056 -0.6266739996636046 3.233515752001689
P 7.532148343397088 4.835831504968973 2.4314810825441926 -0.4311315769454834 0.49802268234107777 -1.5166737002378912
P 1.261880481744791 6.463671112133675 9.455048180866331 1.6673604000939026 -0.20936827285762005 1.1628726788537715
P 4.516968879763264 4.5890766038068715 4.643460776326221 -1.369168226323339 0.24722031070838715 -0.07006641779978257
P 8.334767612778302 8.957262931619058 11.552074714418248 -0.75335893728838 0.30101215971786227 1.5330462280586437
P 0.6456665718732638 4.265871947617654 5.560969435288113 1.4775492234326038 0.18014100056138654 0.036782201825356006
Ni 1.207037723231718 6.187140944507995 4.008687731862121 -0.580791378198877 0.6801951115101963 -0.8375669366958672
Ni 2.6662602308640926 1.2207015226765792 0.07375825849954132 -0.09753222732021913 -0.0029207731912207764 1.370188440057737
Ni 8.84269145748188 1.2040742636403825 10.256121011998774 0.9530416074271199 -0.053849184609971776 0.1469470303079211
Ni 5.118701225391309 6.838323677557283 1.2654206905920353 0.8995330939860186 -2.3710561658292004 -1.2876575712423566
Ni 6.97728742510289 9.189763217025368 9.622555858659243 0.8273959097001364 0.11284623196947018 -1.4765647480321473
Ni 3.413005157697275 0.695595239165261 2.764562686966304 0.6675828220628244 1.5600363834942423 2.014404305259847
Ni 3.3383184735662708 8.593563913039375 11.993671456888661 0.611832563775398 1.2346393671741125 -0.048448325309374624
Ni 2.0075750684696514 4.199006546078973 10.04908209618258 0.9378813547469139 1.5979113041631448 -0.03324976319206532
Ni 8.4751005536794 3.12226726449921 11.793976481597705 0.5500114167035431 0.3459020782520172 -0.3190229944729861
Ni 3.5522314902699628 2.242485509303092 8.998187745893203 -1.5505037614134587 1.6131070380669768 0.08774275203362308
Ni 5.401542811703599 9.567660583140754 4.437397176324897 -0.18520658800975198 0.23693435540134675 0.22896444982199277
Ni 9.233558648327701 7.0222738670637685 12.56121616979451 0.5547615297940188 0.6563787258168889 -0.24044185433397297
Ni 4.722873053141004 2.4599340458356873 4.14026252430642 0.048696693874754844 0.20559286497558785 -0.3649434111541844
Ni 7.018072506630482 2.7141163520494915 3.1526295960590467 -0.4152398454158913 -0.9773593582368781 -1.169458045380773
Ni 4.734558086846081 3.2160194972035856 0.3371488589308531 -0.5451229782629903 -0.9538893001393958 -1.2247295642595681
Ni 2.926472614664064 7.910167623989333 4.6550585942901614 1.4651626768427928 0.07669343619799696 -1.909786631847756
Ni 7.750103293910481 5.452043539233164 12.906993760275958 -3.214183884442297 -1.2275737185765827 -1.6166093947932805
Ni 2.457186281088025 3.096890297239228 4.914598572860073 0.34201302761025615 0.6611458081882292 -0.19660608809594526
Ni 6.62297582124133 8.359009837599828 2.3016496671189732 1.437456469176776 1.6189868938865215 -0.008959266075816827
Ni 0.9654407422444093 2.372043086057213 8.685969459676295 -0.21339076375345187 1.3285748782820086 1.2167974538966853
Ni 8.371079370808845 4.565312658856097 4.261158546381562 0.18786356601662482 3.9389706665199387 0.05749475178235904
Ni 4.784289815367768 5.033998798084524 7.634648408717913 0.07569250573730836 -0.5255843940094302 -1.1909527249194392
Ni 6.2691143631404795 2.6350313687148907 12.236534472827966 -0.25452712878244554 -0.004963771763178549 0.16675172373867408
Ni 0.8917078044439078 4.982700937437037 8.023689695821858 -0.26229417432237406 -1.3692738986632678 -0.9199157714074286
P 2.654415770535432 3.425581104887089 7.345941798265049 0.5193147589506347 0.32714279536664304 0.024116176321913305
P 7.521710588570643 2.7434883629357683 9.628842894450484 0.10748805298135038 1.3274975860574298 -0.10423612170295597
P 5.5124380954616505 1.0002520144059222 2.301128248279485 0.7592974142600021 0.8551766793578304 1.2317746440318076
P 7.204751704811266 5.759324289137293 6.450422759713803 -0.24328677998193582 -0.13287358293399051 0.16788969399785925
P 9.126724054452716 9.215393391275748 8.320535504310545 1.493165589813622 0.07661373199999708 0.4772666807406491
P 2.951971496400905 0.4556881803879481 10.245909267856353 -0.08534005612940142 -0.47344293611918464 -0.9393286287164017
P 5.93912938643058 9.11972803908836 6.871143054727658 0.21245976729875024 -0.2855462028717792 -0.6645059829097136
P 1.7864222074478862 3.8722945041708963 12.247459885561847 0.9105371584060061 0.8311515200878267 -0.44808003187436374
Ni 4.3710560070367075 9.68319799505612 8.332243983107325 1.4960305700662428 -1.8552208807867339 -0.8143308489860621
Ni 0.9024034552790925 2.0720772047646094 6.4833781184160575 -0.501524010626117 0.09136749327040394 -1.3617133127071903
Ni 2.0662440659487524 6.660459833857055 11.744316963958466 0.037552247222161134 -1.4759248004553034 -0.3632439119645744
Ni 3.3821139048686053 7.167783484213022 8.63521177394166 -0.13465844274855518 -0.33438533586166924 -0.3651915226092485
Ni 3.540415164051346 1.0093299539135578 5.991640765024646 -0.9619808188982788 -0.1201849317227285 -2.1047574983331234
Ni 6.521796183485253 4.370952848633212 10.741324687234226 1.0405323913509372 -0.5892616204534175 1.2121635546690994
Ni 3.1501387895164554 5.85959425733527 0.45054057605350456 -0.8484226484634485 0.05569446534882666 -0.779831786767928
Ni 8.740245784773808 7.08485350583903 8.595598946999248 -0.21342393098423243 0.7143861555696084 -0.2785890548276557
Ni 2.0866788078776146 0.5031082228676595 7.839106488839374 -2.3157262829086442 -0.24894680648119064 1.992977759954955
Ni 1.7420828500180285 2.1737913906115294 11.008056682135134 -1.0984811999515791 -1.888933956768463 0.46635183360035815
Ni 6.254081370340128 7.012286257998032 8.02544713989596 -0.7563527298093812 1.2728184493469952 0.013594965075615296
Ni 8.060656978616432 1.5859385392720193 7.824639929454583 -0.8918447242028255 -0.2859272403602818 -0.32468867739919566
Ni 7.576900334440929 7.239638001266231 10.676512137925112 -0.5016183701121361 -2.656926327699302 0.4069747771936217
Ni -0.23970918220333445 2.619435693713653 4.186010462845831 4.380245759657328 -0.05383272954973955 1.3000844841517996
Ni 5.312395195009811 7.283424054531883 12.207504760280562 0.5040696598661061 -1.5085366729530536 1.285715102804005
Ni 9.204908746265897 5.029103462936811 10.449996915528898 -0.09521360648937151 0.6090030647464028 0.7990860070118496
Ni 7.557834785867557 5.171161962587295 8.807633542955646 -0.6556906986109288 -1.5847675676923352 -0.977523137508252
Ni 8.049806590176004 8.60738713910782 6.543125590113524 -0.3512337748775758 -0.2225099524459007 -0.1306133261449041
Ni 4.998615465685443 2.408448624454571 6.725512460905213 1.356914091546334 1.3222756755368583 1.0920241314723258
Ni 9.211989163960386 8.491990397742676 0.6623641661845714 -0.7346451629289605 1.659360926828194 -0.37880731362047015
Ni 4.467856101662552 6.81587265774191 6.123077700329728 0.9628691350405031 0.5597412423967973 -0.03821482050682451
Ni 4.059573896699294 4.4342264621229015 12.014590105510287 -0.7771089885201262 -0.008812198974991275 -0.01534074412212842
Ni 8.372701771154734 3.6614012152786293 6.8597637450183955 -0.07440489727413638 1.0442131826366339 -0.31174548697496635
Ni 0.8976047139091987 -0.0724003187880685 12.522056302023813 0.8592297663812815 1.30161660452561 -0.24215395192907324
P 5.003041898999084 7.338885763465931 3.2429447783196736 -1.5853758907002955 0.42045764217140486 2.0584362466690806
P 8.275198323777781 1.6315064195071456 1.0335843701827714 -0.7513035974212481 -1.9107988751623544 2.1791837357634987
P 5.486245239010383 0.7430227840743177 12.614073597942122 0.5419327534604667 -1.6196476673989721 0.942016717071526
P 7.518034398191518 1.836857288720681 5.252100045970147 -1.2477365666777027 -0.2207834566730972 1.5022235862508322
P 2.243423312971236 7.933565825509531 13.6798199449239 -0.40572110729217864 -0.6040956001424563 0.6263284433987278
P 5.487698834696007 5.311419879194942 13.44008637982519 0.18477618534055276 -0.6392364097096475 0.2914340291111239
P 3.0835172169314915 8.503769211814568 6.7175936467314035 0.6353522441638928 -3.416998158231483 0.1650931050893286
P 2.8473032289993307 3.051744428654766 1.4724521039788852 -0.9326558446819163 -0.45480372375144257 0.7456034617126771
