# total energy = -381171.1047630898 ev
CRYSTAL
PRIMVEC
9.22382799826959 0.00000000000000 0.00000000000000

0.00000000000000 9.22382799826959 0.00000000000000

0.00000000000000 0.00000000000000 13.50000463428558

PRIMCOORD
 96 1
Ni 8.813616786030126 5.294504996752212 4.062070585195043 0.7954766923940365 1.5041580842693836 -0.2722448577771827
Ni 8.239184443894741 3.6852606047135437 8.990396063342708 0.0333898883143554 0.1931962910834479 -1.246293406473273
Ni 4.9685256881245214 2.75426273999474 5.6752535518293366 -0.15395020109863164 -0.5487119811658292 0.32998129325670267
Ni 2.2610554280445627 3.9808289521192677 3.4265303819448496 -0.05585438796545865 1.6641084688155083 -2.62473560189937
Ni 0.6116551004038846 7.001199132591324 8.874943251870734 0.8704546885628235 1.7804328891415662 -1.153122284335227
Ni 2.80655262145283 2.9832442723985313 1.155031735733617 -0.15904047113734543 0.782599322210736 -0.03319011359872349
Ni 2.385152811205111 3.7059404272976044 10.192449952310618 -1.2175019361628774 -1.3870589905608304 0.6910749916474936
Ni 1.652301221575864 4.8497781252577985 8.177600633250343 -0.0986282885978753 -0.44841324684406647 -1.4351913272916832
Ni 8.219925090836972 4.054103042488482 2.0733034848327834 -0.32158895542794935 2.153401227482756 -0.454032907023689
Ni 3.8580782478602687 4.842463629580206 5.400892629974581 1.497898476512917 0.12941956294711904 0.5915784415120522
Ni 9.072907817546863 5.138437825422014 12.275648759921358 -0.509940002603954 1.3002084113241736 1.4851442621710425
Ni 1.536117882918939 0.4064157015109635 7.737446935724341 -1.0709063756571042 -2.3769208521400937 -0.07980832767789482
Ni 7.591708607092462 1.6214659642616294 10.105077240701558 0.11964474294854234 0.011077597970400276 0.5885185716398058
Ni 4.539719143918283 6.573776162599006 3.2361533372578593 -1.5662723371016252 -0.012953731947190593 -0.08556605609727844
Ni 6.057638414010126 2.9330574237455997 8.424353715240535 0.46979762605711345 -1.7336989754201368 0.6003428179682435
Ni 0.2622186745533918 5.2208435056031 10.082005679493033 0.761476938409824 -1.6587603171297174 0.48132413863947426
Ni 7.030088162177978 3.72150102529016 11.248716626357755 0.013722491792415078 -0.1801111757647156 0.2928144543984183
Ni 1.4092994704710144 6.972162521755186 11.416751714638362 -0.14995856344073527 -0.6485602582137346 -0.25558950860868884
Ni 1.132584627686976 4.87625973571223 1.0571798330283255 -0.9141271897501095 -1.972983576221215 0.005833318852325437
Ni 6.841359415571171 7.590325032878542 8.423435944345302 -0.5460766004255112 0.34916866481843095 -0.20006705006135223
Ni 5.726336956572889 0.4981531285735371 9.357461069444163 0.1463937289076124 0.40262087110030015 0.13067606106203947
Ni 8.55478694591803 7.858295686630605 4.075975506044941 0.7910916759524633 -0.9081290631851456 2.5361328158582968
Ni 1.772515373109343 9.005979720905497 5.021704746610758 0.26721243755959784 -0.677999132300142 1.9114403654010952
Ni 4.653993150159997 6.1875099135567675 7.829314418763023 0.8248206927737923 0.35960940053578067 0.29580876114005183
P 0.9534302146404968 2.426383322779933 2.32773817085866 -0.5995606883865804 1.4752136333208916 0.19894270664892189
Ni 1.3192011176605316 8.933987742641182 12.59137301647547 -0.4152092492882721 0.1069136685351191 0.3168722666785704
P 2.740777503323064 8.460565541950064 0.7409602569056287 1.1168931267998636 -0.8567877325986921 0.07593521787573373
Ni 5.742220388548693 0.7263063612145954 6.7448182188378665 0.61075321466829 0.38525975411403324 1.5739337103016249
P 4.852360797123782 5.259980208200856 13.129618436237179 -0.7044203026061481 -0.7401563225551769 -0.18341298644443896
P 2.8665443993684097 3.116187306700076 6.993690936523785 0.046530796571687606 -0.25398154069162066 -0.34409433561931707
P 4.543510137264424 8.349086355620468 8.356125058838085 -0.9193871525974682 -0.6227471538053726 -1.0315039626000815
Ni 3.301715384958681 1.5551005211339242 8.867572490841777 -0.5384355389404857 -0.24345107347394201 -0.9958023954334141
Ni 8.093650884246522 7.772680114273224 12.978013752938278 0.7076701770020135 0.17915986759503985 -0.7238804682132888
Ni 2.5845627507433817 2.362360731987799 4.763638639464745 0.5421600389799244 -2.1058905834963024 2.1533048111142077
Ni 8.486087874282845 4.166624521392564 6.054508769138238 1.3441706758377368 0.6880896837669247 1.5539636949376012
Ni 4.057543530367096 4.034982046852105 8.533758462632061 -0.33365051457817374 0.10851366603238731 -0.9175596124704263
Ni 4.716161751505479 8.718316194175303 2.027430620578855 -0.16471978091030987 -0.6976323331500373 -0.902731032098026
Ni 1.8031384823774432 2.185318575574571 12.624313151360484 -0.2648755618963051 -0.25419777046748476 0.2139906021209798
Ni 2.4975451565158946 6.594428313698788 4.535920771509668 -1.043032017844339 0.14060746124313847 0.7877808664116756
Ni 1.997032572716219 0.794777604295887 10.791472097758602 -0.8488124277026995 1.0721628737720246 -1.160094344777686
Ni 5.141472464864545 1.0556025584244566 3.7890729451324034 -0.31853011399696757 -0.8966940818753266 2.335461813664358
Ni 6.569357948942554 3.6391506880776303 3.9099392213120434 -0.34095836109349664 0.23126533004102753 0.25586590219852706
Ni 0.9982395715153254 7.10842613417014 0.734886366106519 0.5028087908758114 0.006022294934679951 -1.5123390774182792
Ni 1.6684890398787302 4.424024668150277 5.587341246276848 -1.9338128195590245 1.0904914968778832 1.0874115724009787
Ni 8.873783816679468 3.2026237997577174 -0.04702215323429163 1.744994602938614 -0.9858085174454956 0.7898272074177429
Ni 8.313574617463182 1.0866499637848257 12.475422118286485 -0.19959576685188848 -0.426792069029865 0.5165012007612395
Ni 6.564939735286102 6.060534696031264 11.793968465938754 -0.8804467667785287 -0.41846272322856315 1.516125798154221
Ni 3.3717980308077853 0.6149480070330148 6.564309747827364 1.6513861361528335 0.21239060462371162 -0.5399182941335993
Ni 6.51633016123704 5.331750814590944 9.534472787224685 -0.13853129544040013 0.24599955092740858 -1.0467146089022488
Ni 6.7316419804073 6.441810854075299 3.0623948636456686 2.404046761822608 -0.09849279146127553 -0.9926437951997744
Ni 8.410314126500483 0.38106862191194557 8.267132643015929 -0.8377268593124992 -1.0945412414672246 -0.8627832880604946
Ni 8.205831081511171 7.075257248348427 10.531961539133256 -0.38436886686864774 1.617066536935357 0.3393141406218544
Ni 7.019803593854505 9.131156291952902 3.0072880250880365 -2.085554185931795 -1.2336196676603464 -0.6420862204536169
Ni 8.453020450570154 7.924172266869392 1.8774862263366585 -0.30030613478977314 1.011258067866852 -1.0760660654811725
Ni 7.863461030362574 1.8336601295365227 2.3269827393378595 -0.1629770871875903 0.022452415466245202 -1.4058797228117594
Ni 4.5109408002687434 4.643920729882659 10.786557642150756 1.552467827118365 1.8769747275240578 2.196095938137805
P 3.5346078204738203 8.429748732292015 3.9702842718435774 1.6648548600632296 0.8636322663243513 0.11066927892280941
Ni 3.751386228310836 1.0133113066189627 13.461462254766273 -1.0395671992241902 -2.3742268502476978 -0.3045528258812691
P -0.20321938054059774 9.15969481607203 10.697012719025844 0.2781134007428178 -0.01433981366143982 -0.29624173491241235
Ni 9.329533162744779 2.9431390678510314 11.185955855248718 0.45497161678787446 0.6427230827066672 -0.5212780533245925
P 8.940453646134236 8.876827679950093 6.077836752767741 0.06768197672800602 0.14064885600403518 0.5879868675060519
P 1.3788885092490486 5.889958443111091 2.880320186625008 -0.4290338138761901 1.2727233185300275 -0.09541029588120986
P 8.165578295714187 5.90487337313715 7.99285289084839 -0.11826868853662213 -1.1703556174943779 0.5995709727992254
Ni 1.4942324795495285 8.320095863924793 2.6938586569634118 1.5374505277739263 -3.1079893534613894 1.6657604025966344
Ni 3.1832906560752052 6.091960278343439 1.2233175798702436 0.8727601967675485 0.19044855313498169 -0.36948835021238946
Ni 1.0913264446278759 0.6351278981344454 1.2294357450441986 -1.5805977525853618 1.5235822544322664 -1.9485010176988187
Ni 8.926193607902766 2.9864449407467335 4.147552412045079 0.9970090141470055 -0.40345133742139544 0.06472829341632079
Ni 2.9475111623670194 5.922749151980999 9.838155336203645 -0.8336254355496159 0.6974341010963021 -0.5534114435240276
Ni 4.404027408845083 2.994091494235666 12.772853678966955 -0.5870275889165761 3.1390585640623683 0.28116427175399966
Ni 0.34480329699947876 0.7921137627426861 3.728188300657441 -1.0740652330010598 1.0115480883034451 -0.529186766648708
Ni 6.106838313057127 8.596229605538985 12.101430939670147 1.3853132115143174 -0.23910565202105277 0.614713999088251
Ni 5.977769286554558 1.677500719925397 12.142147684020198 1.141085407775351 -0.9441224505606192 -0.26704480163348204
Ni 5.343179137597924 4.1934381896583375 1.7187801177891104 -1.3912509171549912 1.7096110812329977 1.0623276328491575
Ni 4.163091795233021 7.4287604600050345 12.695215795527037 -1.8315569615108906 0.009466801839854664 1.0418372262052895
Ni 4.2253895301718005 0.20640898029508842 11.212415328515727 -1.1386672852521615 0.930869699315771 -0.7360250739956228
Ni 4.531657518165175 2.5404267333193276 10.382907244302016 1.251383933622303 -1.5870692192423181 0.8162779454101038
Ni 0.9173807273054015 2.3042044958626873 6.513373924333297 -0.8589472021438561 -0.2646364493023055 0.09295154992807217
Ni 2.943757064333249 1.1882873255394029 2.7038213136864466 -0.5216223240378888 -0.8994860427981669 0.5454001431837768
Ni 7.613154007408225 6.4160025830716405 5.968622016234928 -2.8129059005231363 0.9411916500670694 -1.1960738481960884
Ni 5.779060357951341 6.850896853819128 0.7609196985156413 1.5487654385661134 -0.3357138248651057 0.6801100079955578
Ni 2.54800872001161 8.179294128088182 9.570477077802124 1.3914702322546488 0.5371070499370493 -0.6324828930358978
Ni 0.6321052496684344 1.939475885417139 9.109789294175929 0.8349552101046329 1.023944919305901 0.465565847363953
Ni 6.732545915560395 3.3975048397024223 0.22771510080665008 -0.5464990326749104 -0.5957181747120386 -1.0889478065398472
Ni 2.735492249825889 7.2022601373582065 7.140192998121747 -0.3789392112126442 0.839843905655502 -0.029837137966090548
Ni 4.993328561866065 1.8646890872407063 1.6394810229096795 2.073525794012351 0.5577766624712587 -0.9319143385302016
Ni 4.862977423258596 7.284850294101149 10.589269183073831 0.36850721724604274 -0.7189208102151683 -2.599979992221245
Ni 5.695289551212519 8.144243581335537 5.3744460700669014 -0.475335268045891 -0.8757547606194982 -1.28369318727797
Ni 7.346299436855392 0.9788234133799788 4.957728274959088 0.7729548571424365 0.6899771305976246 1.2536233644757828
P 4.320560988433325 3.0014244375694425 3.446564536562414 0.22803345336729114 0.8231348204309371 -0.23529630557729153
Ni 2.3983521092059097 4.402800639708741 12.621289580511663 0.411626159922704 1.3892508560058268 -0.6314606224189706
P 5.784354835276608 5.662074546250342 4.7386097819349295 0.45663434920227813 -0.17759586554202964 1.8262041818394097
Ni 6.274804222627039 4.589481696478946 6.806864143269713 -1.1986197545463937 1.367362797683484 -0.27606166042011165
P 8.102754802574117 6.1354967469414605 0.8329042977174811 -0.5131641659682065 -2.2118616856124937 -0.07619129975059781
P 6.830761237092543 0.4762695964233661 0.7718287200009973 -0.017780206801556474 -0.10892015744218661 -0.47449785974626024
P 7.1600980191460115 2.6676233227190576 6.475520256223249 -1.133019600048081 -2.028066119017655 0.20663493308685704
Ni 0.4631265637739336 6.749019672534137 6.501655973124202 2.1068912568466747 0.13971297445332712 -0.5125954379489301
