# total energy = -340871.2937276475 ev
CRYSTAL
PRIMVEC
9.25835327767249 0.00000000000000 0.00000000000000

0.00000000000000 9.25835327767249 0.00000000000000

0.00000000000000 0.00000000000000 13.55053587056332

PRIMCOORD
 96 1
Ni 2.058502250800585 5.518496975817188 5.748435584256664 -0.7420473689303027 -0.4142420002789962 -1.3036151230128776
Ni 6.931053182108886 7.650121700202476 3.9269721729657134 -0.5913347009323623 -0.04685938355569995 0.8542438831309159
Ni 8.196188630374596 2.2207826657148275 2.6697128057684374 0.9724143555267768 -0.4920230131142172 1.4782909866946345
Ni 6.110837155289935 8.186411809393912 6.3080317459619994 1.180022965380813 0.7947526697438184 0.2546083756423422
Ni 7.231921886094972 6.489105692039774 13.223778092723 0.792486499417461 0.14009555460372647 -0.24829811715359823
Ni 6.1374641790971785 6.4957068978723775 1.8369785595858665 -0.17719734455203032 -0.25128959568175435 0.7276972708562177
Ni 8.463736521188824 3.493704389022921 11.014485043331117 -1.1725845068248966 -0.8340067301484346 0.7622001897290938
Ni 3.0073630953530697 4.361100983756236 9.483654300726778 -1.1151069814337184 1.0191261577610191 -0.027909067705442256
Ni 7.193518237015541 9.07041788977055 1.9835679174943661 1.6894855141277163 -1.41864550711786 0.43601410184876527
Ni 6.872966274123265 4.928628776649216 9.305451369976758 -0.3055293308619254 -1.3603817383799603 -0.07292291341197119
Ni 1.6136106044134277 0.8817507455367745 5.127387103176997 -1.0239374631067333 -0.56328550810463 -0.00883302491059769
Ni 0.311042708319112 0.14560704663383053 1.2421626964670633 -0.36168710900041584 -0.07490214862552906 -1.5483964852624688
Ni 5.720921610212726 1.3016503932920565 2.7585772573014915 -0.8960955290593793 1.3107630469115685 0.8224833028898673
Ni 3.0672924156257704 2.697597113940432 11.164259274740902 1.3359768271730346 -1.6760484147862038 -0.6929989481430839
Ni 7.76440681212063 1.3573764212113184 12.253573040699994 1.6925973202838203 -0.9496912028976483 0.19226195219463663
Ni 8.783427457233369 2.6512960895802014 8.38066779875985 0.11630050906665776 0.8014809896065874 2.2268607301244874
Ni 1.544524772824537 4.319910570363182 11.82930622773961 -0.03127592729514614 0.9090960550841053 -0.23633503125445107
Ni 3.3758085193562186 2.2043583471355332 2.782399000088709 -0.9349981196618478 -0.22067906988474897 0.7831567373761028
Ni 3.749160870556113 6.14538007108438 2.0801973498574395 0.2818397005544695 -0.9768055426159372 -1.5478984625801278
Ni 1.3868365010981922 3.220110793568176 1.8402032440059162 -0.8824424570523189 -0.07178031516709574 -0.42259268623653673
Ni 5.23237682848094 7.064132751025894 12.006153735580943 -1.4673293454768084 0.012560610273829983 1.0035524716924782
Ni 0.8963641302298735 0.379813755899155 7.433634553129322 -0.04808631398426557 -0.010918189574400551 0.4189998266789558
Ni 3.881286829093376 4.102996613207442 6.473497034377526 -0.43512450015496024 -0.3909868864057976 0.022615423406670727
Ni 9.195711183645175 7.867433766545875 11.602429356703837 0.5853424879046694 -0.23224414901452906 1.3694091386895513
P 0.9382137383708683 7.358696516481823 4.764341150760909 -0.62014262630299 -0.16924672224638596 0.41866764015051766
P 4.692531511660165 5.141265374625904 8.456550187433892 0.5254584099545273 0.31408673351363325 -0.6384979888817263
P 6.694817041821812 3.733069852692069 12.501304352321933 0.4705589297031703 1.6631162801055681 -1.0126423498088883
P 6.955310067496568 8.398724365008553 11.975286386007454 0.4345048642930904 2.049253551728548 0.5911495815047497
P 4.8298328896370135 1.3208892512445778 10.174460769837758 -0.8917884170435932 0.062241779549041205 0.7662897864174351
P 4.713946082615016 7.852425976006397 4.734801449036503 -0.06570351284539652 0.28126325922570916 -0.5983980355370468
P 3.751818017924916 5.29434298645795 11.754899620565869 -0.518063660152353 -0.7047563457893281 -0.09857840919654635
P 8.191383545063067 7.0258679772444825 2.1672323507978954 0.2289760197862186 0.8409312251824099 -0.550625139028142
Ni 3.9136910652982966 0.09243354669219608 12.01699434134447 0.4654095242917469 -0.19446333072132962 -0.9504450503445373
Ni 7.236514029282869 0.7806856361549077 4.488479258771818 -0.013188216555499867 0.38244336771116066 0.6486790431797861
Ni 5.8365862167578895 0.7084677036779814 0.44622299757751926 -0.3832560934204432 -0.849625410522298 -0.9487208685645789
Ni 6.620666891031753 2.4108751736460934 9.722211510161445 1.1553486025625845 -0.3538187619959326 -0.04219925907586925
Ni 5.111175726721336 4.057056664622067 10.55444487943582 -0.19471247061765823 -0.022442388163916187 1.2874110024491892
Ni 0.23583803109941215 4.782281987594593 9.441349181608276 0.13926174584852144 0.7907142380083866 0.36572348385331854
Ni 5.312007924366232 2.7466108357886747 4.779355422147628 0.5266092357295189 0.8380029957920213 -0.7335239048403237
Ni 5.619292667120893 1.9745104705574308 12.1827586745684 -2.223147800049275 0.7693288303540751 -1.38895312225975
Ni 0.6264294359603237 5.9782297623861975 2.9333657073908337 1.7194735758493742 1.4129116899578762 -0.8654904025790127
Ni 2.525039926972629 6.843135860108335 12.855678005294264 1.465872558425624 -1.4130047638923149 -0.5782665548944944
Ni 3.187104764405164 0.6609149499649204 0.6024567820159235 -0.30673569246520077 0.24392775600004446 1.299523469442007
Ni 1.8154612209104792 2.343261420216226 8.627652887113754 0.8175277586568049 0.13239432930472683 0.5018698240013099
Ni 8.48879888330503 3.772140103202002 6.177404714808042 -1.5927729544953149 2.055595434786176 0.458405582170088
Ni 2.4164116688605337 7.940815474020218 6.2844534978639786 -0.01580868489748245 1.171381487655731 -0.7585597647630291
Ni 8.106132628784522 6.089959568820765 7.822114127624993 0.351824100163407 -0.5871934250704791 -2.0866741584688513
Ni 8.565745056761914 0.19365049306656595 9.832051686707603 -0.21551449496467398 0.6711468852649989 -0.320280521029171
Ni 1.4265178029194177 3.043766940140998 6.244913848846734 1.756013322646621 -0.19042926986127204 0.1686034322354322
Ni 9.220338403160914 8.989185098781414 3.648116129551289 0.051150040511253846 -0.20392524746517782 -0.4625769399389582
Ni 2.0069980319411638 7.7058292114153355 1.7613257780712184 0.18662557984446568 1.0876694540480558 -0.6324741512851494
Ni 1.4943815318857228 1.8614844946746676 12.7120827988111 -1.738924485485134 -1.372761857211868 0.03372695993879998
Ni 4.076054805391352 8.682816932993692 2.683344805022188 0.4521485455167826 0.18718196656856795 0.23166590791355587
Ni 5.51028481652754 1.2914384297109058 6.433510206900652 0.9117471195537071 0.43926783289937255 0.23330472906855948
Ni 8.022770416559062 4.760978516878158 2.1798746320944153 -0.8083144675886531 -0.46724812016238243 0.4477943823131449
Ni 5.0821507894349285 5.234034073703992 0.13066036122548086 -0.08892134572275652 -1.3096839549147767 -0.8720796257607561
P 4.6787087903304645 2.438807625254735 1.0616044406626053 -0.23139388519909182 0.30906125527458383 -0.8764196478970068
P 9.129736158731957 2.203099211100142 4.926947459707841 -0.8995382361923411 -2.292438516025297 -1.3591046714397497
P 8.973316281394204 5.5642517573385355 11.583309931507612 0.07771236438081454 1.974760722726296 -0.9936966619443209
P 1.0853845208604165 4.709279872601507 7.5796952590700215 -0.19257228434620383 0.05063967653373859 -0.5961092395028701
P 5.091362850870326 8.028834637905984 0.8133537354260684 -0.9330561654441285 -0.6725141979261707 -0.7617096232459204
P 3.216305610402398 1.6851776746602956 6.976235797402387 -0.34229096386199115 -0.038426679407314465 -1.5997807532717156
P 6.772226132938767 4.243538414804784 3.9890068427564134 0.22289356103756452 0.773383717149739 0.8830371532135244
P 7.994152846813518 8.418259490263518 7.844093458125131 -1.8823930703261518 1.2205486934090013 2.7908008410939806
Ni 4.612511564940413 2.6774509373741724 8.324487185698398 0.1774320862706557 0.9094750356900788 0.8590055661856174
Ni 4.43363092273605 6.666449447612704 6.645358919019902 -0.14245094220978047 -0.10662827608421638 -0.9208691364596333
Ni 0.4110644012951804 6.637174534789859 0.3446644179700175 -1.0239189511639721 1.03789495372809 0.1202108998646575
Ni 5.573213843237497 8.458922177524093 10.053237448030472 1.7429004394137466 1.9200507327779255 1.663727945547638
Ni 3.793897233225306 0.8365922019615971 4.7462105176865945 1.5563625341870808 -0.7748299626779624 0.3495224486134239
Ni 1.7177300445164385 6.490679612084014 10.290588294042994 -0.8617903280196062 -1.2536750436493247 1.7367295347163443
Ni 2.922649163560206 3.423211287747417 0.07482323306780196 2.0445548607012984 0.9156667663230876 0.041642101020818605
Ni 8.531368791325095 8.02670521666966 5.9991878965282215 0.8318369761906256 0.5078373544386544 -2.5164798175140595
Ni 4.57547815213479 0.27849033846296894 8.239688077056082 -1.4495303696221744 -1.5719596172943895 0.20828455287513806
Ni 5.999107348855368 6.9981947595254805 8.440561011455065 0.0838264476983524 -0.3531788144190885 -0.599492039932174
Ni 3.5449401156395015 7.621800397759376 10.21438001133626 0.5575444918557947 0.06370165192401932 -0.5595237270693525
Ni 6.9402004350718745 2.8668675855217356 0.8933218353678914 -0.6650122331221707 0.5631788073234365 -0.6991269154176928
Ni 0.4186553250850131 7.435883407121945 8.699768977705466 1.0072846850414006 0.7391024273693658 0.4307610809799419
Ni 7.414265152396661 6.9496346969841065 10.572859743953416 -0.08647391262352849 -1.8056893497155095 -1.6806591740853376
Ni 8.479549788456826 5.921809357976831 4.811835576848801 -1.0362031678479637 -0.8026305298299984 0.49391997302661395
Ni 2.818613048636008 7.045004993311789 3.90172742129144 -0.2061757340622514 0.21148969007599705 1.2759315410546799
Ni 8.78725115710555 4.5468050322700355 13.412754043258175 -0.5223440326952618 -2.3998214108873506 0.5932172626670558
Ni 5.083095141461471 3.850697230115931 2.6913940172954898 0.3145438756557099 1.2121049335170222 -1.579068203314713
Ni 8.073404350217553 1.4135931418502552 6.717217627392614 -1.2164480409770664 -1.806440111838605 -1.13184949099938
Ni 4.569932398567148 5.513136389313574 4.38535972081456 -0.10501542307114173 -0.22941413576490166 -0.20479145212021502
Ni 2.6433524225333946 6.301874015247743 7.885694016565007 -0.866880855168636 -0.9490373713637333 2.397071873166672
Ni 0.5709070918114926 3.9599180228329165 3.8685427059116404 -1.958503894547801 -0.6788856486701533 1.3374444128574967
Ni 1.7654475969164845 9.149067600216492 10.820129989585924 -0.4507614353612689 1.2315715268820662 -1.1501840276425093
Ni 6.065702683433081 5.086881807920846 6.216443486917091 2.1926457748056754 -1.1600676053048087 0.42317966908825827
P 1.888130035188314 0.593154914554471 2.601837966778291 0.9134946983724331 -0.2658307267207228 1.153069833830737
P 2.4471771765488053 8.456181704976476 8.469681309779446 0.2635511866579267 -0.16610457707297843 0.6085752331803648
P 9.061363220339574 2.1762407284628633 0.6233991769575036 -0.6139992324094135 0.47376638089687445 -0.23436299512974476
P 1.656291612671909 8.707296018858209 12.902901161633356 -0.6121732349442683 1.1757988999971365 1.2281473316918654
P 0.7526513426610506 2.056798713811526 10.606749945847161 0.32126062555425317 -0.4487012103981305 -0.6664204263236071
P 1.8752794409447626 5.222766657857881 1.0448625605685031 0.6328107086889617 0.31597315190306874 0.22694459117848656
P 6.743108612120345 3.1718562566824486 7.539897301998459 0.11817818570534486 -0.34065548514109717 -0.1889308309388746
P 2.5711280092092275 3.9974884201242213 4.079917390346979 2.7968884420489575 -0.046422810238913606 0.3409318787309354
