# total energy = -340861.67118543095 ev
CRYSTAL
PRIMVEC
9.34217088807548 0.00000000000000 0.00000000000000
0.00000000000000 9.34217088807548 0.00000000000000
0.00000000000000 0.00000000000000 13.67321141580685
PRIMCOORD
 96 1
Ni 7.614093281895315 1.8862122782820012 11.283339169067293 -0.42097751923061694 0.10396667009165321 2.725798982301299
Ni 6.55400915311321 5.3319131011305245 0.698004950287905 -2.4450861962624213 3.2941953292699333 -0.6661031521935045
Ni 1.5818069902202057 2.6789141412398787 11.48224332411651 -0.2156152822085964 -0.5913269876228783 -0.7935496505746527
Ni 2.615125800125039 8.306021150183337 8.32033989511988 0.18257403548291137 -1.4876644574897346 0.03366936722798717
Ni 7.421495092026607 1.630115354588225 0.08069113044979584 0.37211421787101073 0.8688017263404328 0.28568015734648217
Ni 5.517953087211503 8.856415133308818 4.940787245689302 0.993139246778954 1.5789743580493258 0.16902123649914116
Ni 6.096354897909083 4.595694001848734 5.0157852573524275 -1.0859977227725877 0.06369805237959353 2.488595946619598
Ni 4.267260650906539 1.4498955408145908 1.9515635645445437 -0.5295253809350494 -0.07123267019374184 1.1979160436111498
Ni 5.107514162410774 7.989769989752822 7.510339134792003 0.20125824215597599 1.613869627264614 -0.4907186924804968
Ni 8.292727241365759 4.323407096439665 12.12697641477654 0.24070667795958545 2.201700685919092 -2.4845084068137857
Ni 4.129239421903808 5.790856575882666 2.258076446302225 -0.030516937641934538 -0.5865213387041189 0.30859460005081046
Ni 3.7661466178954064 6.199735358186883 7.4492478783402944 -0.5521770568962941 -0.19528634084325722 -0.19156055525223784
Ni 3.618914008643814 0.8433504410706639 4.360290920334729 0.7343358592186578 -0.5798200154245434 -0.6941513165799722
Ni 1.4488772442150715 7.389339340691328 10.514917607597036 -0.5755800092012668 1.1004234112796145 -0.4597764943756856
Ni 8.305722200722927 8.436157587167772 6.663489116600423 -1.3956804136812544 0.19982459503324293 0.06339183399308437
Ni 1.574585492317193 5.243536166897018 2.6713759437522446 2.49743334240557 1.1389719609767737 2.3135359601255447
Ni 9.023294327411687 3.2504307721774066 9.56309896011923 -0.10707410537238332 0.4872644153833092 1.459004370550881
Ni 7.989984859677491 9.099872100129662 1.6184292333374117 -2.7232767301000775 -1.0656592683255517 -0.5824343131189389
Ni 1.3021491121779194 7.779823389009734 2.7785876282086033 0.41414121303507384 -0.26075973995571866 -0.944324025048464
Ni 0.7662700595723744 6.024298735779798 0.8062760368945886 -1.4320774642530496 1.0673736799134972 -1.6188290281524185
Ni 5.329727033201281 5.241845234011578 10.761158541267942 0.2395388829037294 -1.6777252882679947 3.0022658485796296
Ni 3.2328861757196345 8.955918592771935 0.4382075928044995 0.84025579638194 0.16857077922528388 -1.0017442148391458
Ni 1.9021500213900735 2.1932707428049296 3.561420422104718 -1.0493972979407347 0.45242416777567246 -0.2764403839157691
Ni 8.337485580891418 8.513267863612102 3.9516400869940744 0.23581078331986485 0.7703590713908024 0.5081008925126862
P 7.602452937280627 5.281829724341324 9.965883844516418 0.14784845907626795 -1.0457265339573667 0.36909265743586755
P 0.25365020920373865 1.207793188736226 5.129573829937791 -0.11348437977410132 0.13514643812856722 -1.0157212458445282
P 2.6489257734925684 6.956413811165437 0.9514599081253137 1.1882083294050827 -1.1615431614090708 1.4906847323732972
P 6.172344113876878 0.5266181588523025 2.931085484831655 -0.03686499134714941 -1.4749614081007694 0.18959674665764767
P 8.101212743291034 3.5106289087811735 4.903486760983792 -0.9000462861770112 1.2529204248714871 0.3812280072468209
P 6.538445096830649 0.2831294286512895 7.010760954633724 0.40559718011980467 -0.0006772285726827046 -0.5760734038979175
P 3.5645612598731433 0.345920960159077 6.820730927473345 0.20372238742575238 0.3825117590552509 0.10878568874685135
P 1.6007622544442843 0.15239976383135523 12.495783824564077 -1.232183706544768 0.5575794588587881 -0.409486744982198
Ni 4.687219247587176 2.379833890441624 5.902616029005501 0.4190551053969235 0.7976963257531746 1.6819177290827874
Ni 0.7099778761772984 6.858124833885233 4.683827105428594 0.7193342436035031 -0.7331598366326857 1.9630534615916966
Ni 4.421555941160301 2.431085038560548 10.124110320174564 -0.6525470107756246 0.9138358837619359 1.268811899290763
Ni 4.202678225287486 3.2622205915222993 0.5518990068152297 -0.3095502790958604 2.2005850842574097 -0.7159020779935025
Ni 0.3551491563150873 0.6835853099084739 2.5551266434208872 0.08041819334775183 1.286310570296159 1.164651110910433
Ni 9.093846400068287 4.237496495254535 3.2150781300498763 -0.9855498644674703 -0.408061068279265 -0.4685640107603285
Ni 1.0779743855534765 3.3480377710010516 1.2672178019461535 0.4521567730468987 -1.4414239384649563 0.13864210998665155
Ni 5.299066029168049 1.33975134899503 8.257456810339841 -0.5337975259478419 -0.26960073528611633 0.5882162099080386
Ni 7.7789919358229715 6.41378317183996 5.062451268122325 -0.6248024936725046 -0.4164994288546052 0.34152117557550216
Ni 2.3698097413472743 1.9152103759417058 5.87476328146599 -0.9469007846367047 0.16492829737669013 0.4706877419715507
Ni 2.6971967691780367 5.056319067315678 11.114625172651163 -1.4381601801120198 1.6013393560080873 3.0286605365230743
Ni 7.054245022084388 6.52388999497697 12.046946710007898 0.7759381081404766 -0.3338294633581993 -0.03818473859983746
Ni 0.8122503550174561 4.069804532306179 5.344694124780087 0.41847095075867935 0.007723336786186698 -1.023746944362482
Ni 2.5480303306044214 1.109485527114747 8.996986774895666 -0.6915259631419832 1.4881557953038564 -0.7396611280863133
Ni 7.394935300903366 1.6539565740558688 5.436482819730515 0.9657325726312271 -2.2193528517832166 1.1670633198963514
Ni 3.9016361186552952 8.24547454227981 2.978435342492237 0.33395133364804425 -0.11648922803869616 -0.49011859700265265
Ni 6.0922443428284545 6.610361126400367 9.27980324083059 -0.03244423657163445 2.346455850782017 -1.3639807685851282
Ni 7.7295158001252275 2.847596374275841 7.683264581731651 -0.4359981610091653 0.3414093325879862 -2.4272658802515483
Ni 3.166528737679402 0.7291377339383449 11.138266469667158 0.15679769784975575 -1.199265872770825 1.0852880983000728
Ni 7.9039901789566205 1.1633337986709766 9.219025881312309 -0.8591559757205526 -1.48758706728458 -2.5540168952275693
Ni 6.587500834849691 3.0901004396916303 9.635716586703849 -0.7125668429726825 2.107362282945822 0.015713296970198742
Ni 5.90830634514098 2.406683288854637 3.9384040996344516 -1.6314307760768292 0.6477817281764974 -1.4059632836645013
Ni 1.077862279505823 9.093313896341932 6.403916905429388 2.125936446403584 0.03959910244886084 0.3291387427507493
Ni 4.196325549253788 5.673743124767313 13.445059533194275 -1.8371221143034944 -1.5122881695756858 -1.1771536142528178
P 0.0005698724089052766 6.4043008686426015 12.103499539963769 0.9860345174133729 0.09281245324704661 0.3161245898792685
P 5.341414088669158 0.5112951305721969 10.737600389570623 -0.912670659809241 1.699240279521635 0.21980463769959566
P 4.889869613062148 4.345604093875058 7.281313018955355 0.39366623301017367 -0.8760771769559234 -0.279049539403842
P 0.29158129042729936 9.358893123233067 8.554631258327987 1.1999762685742883 -0.37455625165360007 -0.03192333107115792
P 1.747733282918019 3.699322071323285 9.44449730122128 0.3577798035262096 -0.2927902860287022 -0.8932264350417003
P 6.020459103647665 3.344039321968077 1.4657548096893054 1.456379531333524 -1.6803467850512417 -0.21881296321028765
P 8.262505319352504 6.257815633042033 1.8464576053499437 0.12872690775546863 0.13204954437079836 0.8588145332207339
P 2.3210903214711918 0.3004825106109871 2.145928358880858 0.69794960728014 1.0646290272888246 1.8249623390125085
Ni 5.220591795810602 1.3091650823269008 12.865848690519462 -0.7619045128655458 0.33711533319832265 -1.36964696573197
Ni 2.6042795400145633 1.853206389418684 13.567967932756249 -1.032850449325647 -0.5161772417629175 -0.6009349430262876
Ni 1.3386302885184949 4.544256010317055 12.86256772019147 -0.5678461308921188 0.2804132525205881 0.41548384310589737
Ni 8.35892586250515 4.221773622071132 0.9641811418827944 0.6806571387482794 -1.458071060103334 -0.7068044865676085
Ni 3.457911039872117 4.007296068568717 4.411661648237817 0.5606275016564926 -0.6959050660462854 -0.28820780886434233
Ni 6.242195523735646 3.76063473721911 12.772392418110188 -1.8131308935952195 -1.2247735301236262 -0.33983324635011797
Ni 0.5516168732619684 8.526701904989245 0.5829589215346949 0.7756347179674448 0.1696580987521917 -1.3672596964467163
Ni 7.395000696097831 8.903882702319436 12.6702264400153 0.30138574100719706 -0.058211832454041684 1.5535931989720597
Ni 6.765086156503469 4.592928719339947 2.922854098282697 0.3114894051001023 0.5127607598822008 0.6734796471632337
Ni 3.6767607292330187 4.720411979863249 9.3771841591248 1.7460497836760058 -1.3388400076534426 -5.6011574928327015
Ni 0.35029776710288224 4.420752514485452 7.539354048358856 -0.6099757130723172 0.7961487787603967 0.5950103500117365
Ni 7.695426219467927 2.054044373789924 2.4082630499094875 0.6147085997716123 0.8749942283043898 0.29044261173213204
Ni 2.226743740200136 7.4685702898704385 12.544295848251998 0.6607061495476492 -1.5947411339652793 0.9545266766130788
Ni 6.56555607602152 7.052619484393413 2.8209749248263902 -0.8128344669461937 0.9259720049038375 -0.24372026797492866
Ni 0.788782822375324 2.171886514215025 7.5355387058703815 -0.5264943074182095 -0.9127634766333635 0.5135480316701865
Ni 7.544989245687572 5.4056601961452495 7.643201617168545 -1.2133370061519102 -0.021054506677454062 0.12111592817743011
Ni 5.579723519468579 -0.19123610138971794 0.905635626929883 1.0939540015051872 -1.218990862003578 0.16434182874560085
Ni 0.10168485630704072 0.4960991558127654 10.75198452970163 1.5421700447367828 -0.8370655715794165 0.8646529942793817
Ni 5.060672518832888 7.855569708540947 11.924475524031772 -1.8879109148205873 1.5049047326274212 -2.858879281929457
Ni 2.607250350277381 4.15021259498565 6.807508953369679 1.197425991348609 0.07865878745448387 0.6092303502658604
Ni 6.9580954018802395 8.700008512490914 10.497963436323573 1.2360827844888584 -1.183975779380974 -1.4587356902705266
Ni 8.757416151060143 7.288593372533387 9.111062152119608 -0.3282239442459638 -0.08192100314552343 -0.6565599885897596
Ni 1.578032753282538 5.911277155403797 8.894710559187253 0.21902379366951313 -0.39800162716073395 -1.2402317736602253
Ni 3.121069735355909 7.824693834583046 5.504575098858186 0.8154050558868473 0.44053744364041547 -0.07121492958192896
P -0.1906550183760473 2.7781560199251367 13.067282705377393 1.7371445107665762 -1.8892386324930754 0.4636390626548854
P 3.9352399064394312 7.065464969020376 9.99778362037622 -0.7692121022705526 -0.6842258299361442 -0.6695240049495953
P 3.9908818747581174 3.5722872349905965 12.063832683435704 0.2032639597320951 -0.09236868084140866 -0.26139788776034983
P 5.478108729441323 7.176917064729228 0.049856362042701476 2.9358100309492405 0.5149071168012422 2.785606441377235
P 2.7080430292885125 5.822302322249472 5.069958636446852 -1.0900078723732454 -0.17165815990135597 0.7451460624602845
P 5.569503184790836 6.823811041132626 4.781125812621192 -0.08225961743186479 -1.9444906109878448 -0.10071473881325882
P 9.210698270405782 6.5371278507707204 6.835115067604352 0.6879035358980475 -1.0912162908590497 0.15084482270043054
P 2.9421204567890147 3.603817060893143 2.326633965527657 1.061340843455856 0.16736081807758274 -0.5908811583347114
