# total energy = -381161.2305372055 ev
CRYSTAL
PRIMVEC
9.34225504661690 0.00000000000000 0.00000000000000
0.00000000000000 9.34225504661690 0.00000000000000
0.00000000000000 0.00000000000000 13.67333459033198
PRIMCOORD
 96 1
Ni 7.44049868329415 5.819860378114481 7.038690173787731 -0.05152902111722738 1.8947225384257822 0.45845674712299755
Ni 5.266481258655585 5.086315875281766 10.94111441781115 -0.8098872113924117 -0.8686993964346136 -2.2286401906224134
Ni 0.3899214245282054 8.357431647398737 5.271863331632596 -0.5910760479543369 -0.6115024341294888 1.2218753826402247
Ni 3.378159327351465 8.124744107668807 1.922880800175078 -2.4046676832360583 -1.9270274212060747 1.5438836849937798
Ni 0.4608001772955805 9.041779836575941 11.993989333851825 -0.7172598775729776 1.0098881841025187 -0.8356267822503609
Ni 4.0648524224776885 0.370430678387018 0.7221759129946231 1.6213147706887496 2.1854204607018297 -2.4784249196238672
Ni 5.318022478260115 7.489181172936927 11.090564335929257 0.015064093421974057 1.657557555070868 0.4969204504158346
Ni 1.4027862660355623 1.3376333812209906 9.824140423294745 1.3079497458324894 0.4308253585589742 3.2169084824623115
Ni 5.519030432041348 8.56353113003342 2.462335288888904 0.04324621228314488 -0.5533003718674601 0.40933145035125634
Ni 7.513517746630928 9.064789810091613 1.3900723915095872 1.6969882502626645 0.45079871635710744 1.3822284019414066
Ni 8.36130868313118 8.608710274134834 7.51824212487164 0.24419206540502464 -2.0552419081014994 -2.2145001516766056
Ni 6.614353751112132 1.5418550706455012 5.3821934920976275 -0.020494520408925992 -0.5881048811411549 0.9388601737204154
Ni 3.9524464130012147 3.928249973128869 0.7392600943052637 -0.4722332320817996 0.2822654752379784 0.3723049937255782
Ni 7.7062764894440985 4.884625936901814 13.762894827694836 -2.80402428176279 0.9910859637943512 -0.05183086862836235
Ni 4.817258937705101 6.220549685498619 1.7656646656608797 -1.0150447886027938 -0.6989834478612929 -0.4905677687249293
Ni 2.4040984752857213 1.1356725174525062 2.0835292790943343 -0.48667460431811016 -0.10884405278861255 0.1996145359049659
Ni 7.397262728186344 7.429811143829299 9.251692827610581 -1.7754146099913681 -1.7982151528256516 -0.4137270083157907
Ni 0.03898990031167406 1.0440249980904546 0.9774548932262168 1.7763566621896634 -0.9777391101738 -0.8421242170492464
Ni 9.058343654295504 4.870042677194967 11.736219708496693 -0.005539955981622717 1.379745744728869 0.22895339407839926
Ni 5.982864039463011 7.832873383926787 6.1853518064009165 2.4428894457214185 0.0758089767105146 -1.315933278258598
Ni 6.9733205486623335 6.621173597099318 1.700142761782618 0.09053599850804407 -0.7276093391281018 0.6224093108499797
Ni 1.853176368833168 1.5958719877659275 12.917486166162712 0.5735933177885412 0.9887012656122585 0.024380485726893497
Ni 0.19602105818128848 1.1831872252481632 5.972088682803257 -0.3586418944161888 0.8947521276576075 -1.0387171925190692
Ni 7.425018567128714 1.3408751436285982 3.1083867730588843 -0.047384402821234524 1.4528244669924142 0.14649862991659285
P 2.2511564223319853 6.300425963841692 6.127910018679254 1.2051894373441114 0.693404925332251 -0.6187794274068763
Ni 1.0144474194665751 4.530236844192326 4.178215078843323 0.2690227512954593 0.40519017448937317 -0.8455095885817115
P 1.9820247467171044 3.8930203303649242 2.0655762680894356 0.4332396244274216 -0.7724174965817278 0.309331478216835
Ni 1.0031059221673366 0.5052973367982768 7.9165052486902 1.6935511995566574 -3.0947070345301864 -1.2713783744663587
P 6.110245683346963 1.3770203273606858 1.070542988274877 -0.3660050196494793 0.6207679185918148 -0.2574594719378921
P 5.586089136830422 5.6309413020146435 12.910963403877433 -1.0631028204522852 0.49238322466711326 2.593981351435649
P 4.721827805158377 3.628354252533433 3.9547931874011892 3.9764966884898545 2.518040220022644 -0.7232798585148124
Ni 3.5987486471452232 0.2721342763001985 11.824686190107187 -0.2671754136740753 -0.9261715225091532 -0.22574825687754024
Ni 0.215452948117381 3.683127892290794 13.60766111964431 2.777848394698371 -1.4306600150802329 0.6646993298674424
Ni 4.886288858252114 7.514601448185057 7.9927333765428665 -0.728497655270326 -2.2106445253759412 2.261721546557415
Ni 8.124136861108305 4.430835253365392 3.2465419051516355 0.23215724572767757 -0.03925945972125497 1.0934577785950588
Ni 7.6871715784252 1.2207898007254576 8.026096436802373 -1.9931811342150125 1.6281852725563377 -2.1470999678550764
Ni 9.16855423389939 4.236880701940769 6.178446011669783 -0.15240111144395688 -0.6068263688100582 0.6244916473003052
Ni 1.728784246477845 7.340994327664669 3.6589295839674927 0.18752906549534157 0.3351564096997389 -0.761456883805166
Ni 6.814408794906115 3.7518401761753903 7.063890906048601 1.2041586820867518 -2.671420921771051 -0.11850548713777656
Ni 2.498716831666848 4.93325237301593 12.61795759618001 1.196444858382262 -1.379072372810928 1.6002358385312634
Ni 0.043472314153663094 5.507324586805809 8.68074840072003 1.8401524164893859 1.1138471408846882 -0.8394011616911286
Ni 2.2494841587269083 0.27557409450907794 4.479917591512624 1.2580253501982204 0.4130456659780499 0.25922119182400516
Ni 0.6361832604490699 2.4814523448390124 2.7603317290881813 -1.4518081099127575 0.45025518514881163 1.161490453794264
Ni 7.425102647421707 2.219028408153994 10.026778600534561 0.4703478421336286 0.20554607089805246 0.6963953754191425
Ni 5.065510673893459 0.30749471063102074 7.54710595523056 0.6635842424263926 2.4761026992485937 -1.7623459497328682
Ni 2.8901573068217883 3.2900898915689925 10.973848744324167 1.7865225469790715 -1.6994413397888475 -0.367130134392858
Ni 3.0258161884381343 8.658233566707539 6.854182510393577 -1.2918623533523235 -0.21656736170922056 -0.06307404564234943
Ni 4.723845732190202 2.902190130974523 5.993583342594103 0.45349528935266414 -0.10146472960540591 -0.5118883845795764
Ni 7.292386576060106 8.472332038900662 4.069061108254712 0.04528149754561879 0.32430969679322214 0.8865030002749378
Ni 7.948726685415962 4.436627451327112 9.73556463730336 -3.403486496898293 -0.03535395401926169 0.20900806130472394
Ni 6.640605487035411 3.7357154444303444 12.118553353695045 1.0409717928812008 -1.388363568304867 -0.2737767210406769
Ni 3.691816189233374 7.298795362837106 13.21418403294799 0.8308054496023175 -0.820857080140354 -0.5230672840145315
Ni 5.98200455202353 8.400079040455594 0.024253427626485455 -0.9904020503534492 -0.9848592661583491 -2.1230989769547888
Ni 4.806655478533243 1.499889662187363 2.960030832975162 0.0834639221526111 0.4173952011959973 0.392529291192253
Ni 3.153337966143741 5.582716582855937 3.824991899530002 1.3740970310835237 -1.3285532810154541 0.32738473617412006
Ni 2.421409673387442 5.773363976089513 1.5058715079210554 0.024265814525900146 1.8740593536494756 -1.0772937672406868
P 0.7653268535839585 8.347631622137698 1.6497422314863555 -0.6275512600622354 -0.9988337260605702 1.1709670258261318
Ni 5.121368015204948 2.8787317292295573 8.330820234666545 -0.9964670256006064 -0.39260668139740773 1.4115451486276527
P 7.399280655218169 8.640408544593084 11.304866318258114 0.5543709792238194 -0.7485445466188722 0.2057756704103553
Ni 4.885915168061035 2.341103651324629 12.90226763313103 -1.1569105477330657 0.1857128382222092 0.9434840456456719
P 5.243751552783223 -0.16332783758929056 4.576327792359974 0.16322494153233827 0.8480732355438297 -0.10669949564178399
P 2.6170364884171424 2.6827031972444475 8.504540396469734 0.015032725963406369 0.3066009666595494 -0.5139324115927988
P 5.966431013310325 5.6330339670846845 8.76414203798663 -0.2630742470215082 0.023455659919778958 -0.12888965858557802
Ni 8.72089206949666 9.32844692440719 9.631455484294312 0.4938551812269495 1.1944807926773557 1.1836857589443808
Ni 6.098876159283394 0.17688251504519276 9.551849197114294 -0.2540836134871237 -0.6535944782035324 -0.854512049190638
Ni -0.1168230275350238 7.329839675460969 10.585881719495303 1.340953968672652 -2.3195320298079793 0.4999145000471519
Ni 1.8821093318774362 5.297450833241233 10.488363527231405 0.2139314667482703 3.5526613880954683 0.03346984962267139
Ni 1.7012806484144523 7.463022859561418 8.775080884104984 -0.2997127241801483 0.4418209383385294 0.17340008229312714
Ni 1.858548165329924 8.690996854210365 -0.02915344025700493 1.7305740566379098 0.9411353429078372 1.0787605815942003
Ni 0.16603335457270038 0.12460886266614855 3.3670999661464918 -0.36928960393802207 0.7213816130508351 -1.1429689979513091
Ni 5.05096478320572 5.125132943880066 6.598217808661354 -0.8826278335902477 1.2933721051286307 0.3521074357317807
Ni 7.278167664289561 6.461906837661576 11.951410139254842 1.007747483610432 0.7784999553303819 -0.27222788849631824
Ni 4.0331634942742145 7.450401473357735 5.088079692983658 -1.3789049939951283 -0.5079391701238414 -0.8194517151523952
Ni 2.45404216932339 4.142561297712504 6.166263711440616 -0.00851086568448857 0.4839965432653149 -0.37171903931512107
Ni 8.778571150489658 6.938735521478 3.1470132596597344 0.9426702914951249 -0.12589483762331222 -0.10309635167155794
Ni 2.795380132109453 5.26911577450269 8.163322014544816 -0.5280541957061615 -0.7116574437845357 -0.33439947692905636
Ni 3.6991685437428474 6.422641340833981 9.838948831341716 1.8428075947240457 0.43611643175458437 -1.2951595360463566
Ni 5.755025129962327 5.698168167389702 4.133475954941903 0.15335627626837461 0.0834945182802304 -0.08725784197740456
Ni 8.08551597986032 1.380411565844725 12.54488715044196 0.8955098317592384 0.45421391268624356 0.6326027064432138
Ni 2.7359914184922705 1.891348821851857 6.30322957450026 -1.1629608676922036 -2.0144775816999436 1.577957229638721
Ni 7.996502976345373 2.762813031956944 1.2141904319510075 -2.1037460263494734 0.1751818567838983 0.41863858668479514
Ni 3.504924382420138 9.245282172382625 9.239345169471862 -0.3945144399430819 -0.29364440649888135 0.5764760386529749
Ni 3.020509787724817 2.798052016975666 4.123618007701247 -4.261580092792602 -1.4039118004521114 -0.731756785637572
Ni 8.52292034851794 7.350327240186859 13.928205091747799 1.308167261159934 0.37807223522665856 -1.0705145395353242
Ni -0.06058919335602304 5.423543245965964 1.4096117173756149 2.065026755402405 0.4710690365703694 1.5488477138672743
Ni 0.18204597926042276 2.4972874666859726 8.176051770903912 -0.2944247363083316 2.725566811685835 -0.6799017486394936
Ni 1.2407168301647293 6.690399704996648 12.78689172086096 -0.9679918009790489 0.22015276506763376 -0.7039163663865362
Ni 9.589544260913879 6.621005436513333 6.683361250247681 0.2038118618157651 -0.24234729888680195 -0.07992119910667526
P 8.533626572492345 2.6308163142131695 4.810442828619825 -0.6108637721042254 0.7717438675534709 -1.2370924567002952
Ni 6.1487637997924 3.907332664683238 2.2857442521927522 -1.5065646368283474 -0.21123412242176523 -0.41622174971318643
P 5.342872875966848 2.660216389996286 10.551821727029434 -0.6727630807121833 0.6805180420672539 0.30671949451528463
Ni 6.066458535207316 0.9513685152124902 11.638605291008592 -1.1332700254959902 -1.1515220297276425 1.1378525026603499
P 7.765412962182304 6.497398063559276 4.980812857859994 -0.07241897719235915 -0.26726308829187523 0.5296804184556748
P 2.5121696785456815 7.527007962528869 11.036527800073797 -1.155475615058752 1.7776568690583257 1.5214973468787796
P 0.374549678518183 2.6653919991427264 11.779987237901308 -0.37971517014672024 -2.2003660262680684 1.25588490681645
Ni 0.7527204149879185 3.6376497960365164 10.130491641941065 -1.0405527030659112 -1.7417866375242774 -3.532319591214323
