# total energy = -340892.0227236742 ev
CRYSTAL
PRIMVEC
9.08458443149169 0.00000000000000 0.00000000000000

0.00000000000000 9.08458443149169 0.00000000000000

0.00000000000000 0.00000000000000 13.29620759935865

PRIMCOORD
 96 1
Ni 6.320254546011447 2.015342424733613 11.527971793831817 1.3118326258266633 0.16917370291660544 0.26470998285271835
Ni 4.601260356676159 0.4088889783227598 6.11430065311286 -0.6222763848165412 -1.2695600903106974 -1.2893632410795535
Ni 2.625072491722037 1.5879490559665737 4.749697927329754 0.33584649378822806 0.1290611511664358 -0.04017631510856952
Ni 3.259312768057344 4.213730145290188 4.965961006872834 0.458427693657275 0.48066027980323023 -0.6577133854679125
Ni 5.150995826730995 4.26623904448403 2.5622062575851325 0.7200466962894954 1.8854097456652885 0.8653693036201161
Ni 7.415755522635358 5.793784697208414 2.354705259923101 -1.1255690573073065 0.7138678211722931 0.3609260624646752
Ni 5.488797021821621 4.565394416534759 11.46953520316324 -2.0599300576057877 0.21241117344900193 0.29432034951998337
Ni 5.553397503165464 7.99395299635357 12.6894886300858 -0.1272544369750002 -1.0090392058386624 0.5076442645912419
Ni 2.0268253397130276 6.538157393081255 0.31705472915827715 0.6822044286307413 0.27684816087714903 -0.49557627768311424
Ni 2.7573349594319234 1.5003918292485374 0.42044093614540495 0.4056447455282885 -0.0916243464762164 -0.3965191290779365
Ni 0.3654610299306763 -0.02622537892608701 5.069165522167249 -0.036024497723725055 1.643719620746511 -1.6175478474471499
Ni 8.83956430340568 2.3154789319249884 1.2140675245371477 -0.2128606022815947 0.6247461865132724 0.3783712545243161
Ni 6.838838975350768 0.6958037810354643 4.838330768868646 0.008195648436914919 0.15046275677066345 0.31609296531038467
Ni 0.6460329756507961 7.20364864056307 2.1906703659086224 0.07941057801884388 0.9025284291689165 0.21908678569696463
Ni 7.695242768949985 3.996263358282889 3.9168904338630766 0.22930974897655346 -1.177561648324514 0.0849631324059569
Ni 7.698667657357611 3.9420374725929164 12.689661237193876 0.8837398357075038 -0.4776019525928807 0.4831655627235873
Ni 8.003673501913676 8.879790844172174 7.181096159205161 -0.35002664194335203 0.23279076554661846 -0.5717058709578412
Ni 7.117790231171894 0.663524434908205 0.7984668550855973 -0.11520856155405966 0.0012585549974494454 -1.5165037503189303
Ni 1.8367939983052792 6.569680901766832 9.068040698532878 0.7615345311206368 0.6440795967345617 -0.05332442245475332
Ni 0.30436083904693534 4.907656142681471 1.3659063636783164 -0.055097712305092215 -1.0092574924970554 -0.848419563139655
Ni 6.345636875483349 1.758112410776237 6.967399474821642 0.336428334433627 1.0802091411152688 1.3798197924999138
Ni 3.503524572231887 4.258871446344548 0.4090388739692473 0.047597547273305126 0.138646995082658 -0.39827390698551407
Ni 6.197176593368165 5.743873989220358 4.74523012860596 -0.5487405204109195 -0.8336053809449578 0.4755702668748326
Ni 5.483400778548067 2.9209846670578523 9.182813523902283 0.4132804076966753 -0.387694588807771 -0.030100676040122357
P 0.23678969852724743 5.6511203800907515 12.411305021666383 0.7951455343068629 -0.8851673121826497 0.5913079614594848
P 4.0115981371478036 6.059190837337842 12.513965370341126 -0.43899786706743754 0.7263330435188394 0.3254561516928395
P 2.353034604808612 8.52268490673087 1.3784449073923892 0.4074661150077434 -0.18145072051174557 0.07335665851528012
P 6.342121141229367 7.917915022953491 5.894568170697439 0.48465680255713306 -1.1074260678496928 0.7532365527779028
P 4.783488039881916 0.9922365030709004 12.772696157680304 0.1821703722865895 -0.3280820193514608 -0.3609921398159202
P 4.031520631253702 6.19228000224957 8.11381137220199 -0.48934932293679595 0.45317827233287755 0.21373786268022546
P 4.6735373120370935 0.8227063438103394 3.782412235960564 0.26062835658417693 1.4063427784911071 1.2582171544940524
P 0.13586632243483424 5.69750626924019 3.6054000127941124 0.796315386245248 -0.5669272186222752 0.9925327235432068
Ni 1.4814141319447423 1.2138549452566745 2.4923476186541977 -0.5074408903311841 -0.775246995610723 1.1071802703874738
Ni 1.9041925317168904 6.724400462695954 4.966586026295764 -1.5117515803459256 -0.9990622971316083 -1.317094645556551
Ni 6.015275955209289 5.607777826794242 9.162364123887519 -0.43301439579049295 0.642148698260436 0.46612583363248106
Ni 8.641929164657922 2.419542848925933 10.385615255032807 0.2189662009587003 -0.17118919068473742 -0.2882268350277359
Ni 2.0984300358109276 5.089665795855973 7.027418600133744 2.502485560117497 0.5376323263128999 0.09262964781227917
Ni 0.50655916465716 9.086946627618051 9.086921190781073 0.1887850493896297 0.7461973865429343 0.3895182722800711
Ni 1.5544905307536117 1.3394039049208433 11.318809225639933 0.5692723218156841 -0.3324217843773953 0.4470855291715784
Ni 4.364470658148911 6.849985760698664 1.846218346406264 -0.5060843763032897 0.37001079837476275 -0.34600826481257835
Ni 5.9250296914391125 8.00610817059602 8.026774692183574 -1.73420548274291 -0.22343812068712485 0.5458171761165375
Ni 5.26804161517623 2.870238177283319 4.862130563697026 0.06698289377845239 -0.03654925987894351 0.2379576544595386
Ni 0.8467605070085149 7.532719549818872 6.972305150524873 -0.24126846400032637 -0.47030953269652553 0.5664137693209664
Ni 4.996839510049282 4.538694822290694 7.025211046067291 0.44264009180571506 0.49265319049904827 -0.0985454990760819
Ni 8.25131927908048 7.192029456814121 9.182002270494323 -0.41628139930652824 -0.5223167790017521 0.011464291885857675
Ni 4.482297720872809 0.7723777449290445 10.499031751916116 -0.3307243420703143 -1.683316666312843 -1.1144009565056292
Ni 8.291291451477177 7.192238402260741 5.012962830860568 -0.6995087242371437 -1.201797895164059 -0.5577216408636072
Ni 7.2439932809298275 6.100453020752796 7.030223919869222 -0.03333255271385873 0.20949785645694885 -0.14647266177466386
Ni 2.465474508843591 5.343679866852343 2.4690792720270025 0.5254211289586886 0.15898184998526815 0.9455463274913393
Ni 2.1610773314581135 5.650702489197513 11.216375083122617 0.23376778474790708 -1.3764400773944037 1.6007287190072819
Ni 1.1873824656284988 3.630708757130466 3.607354106949233 -1.0005265403819608 -0.5092707444510712 1.0192287447771542
Ni 3.8434788138811533 2.4857603863349143 2.592694123622249 -0.6450756420992438 -0.95509309063951 0.3219597085038068
Ni 0.923502535717854 3.340183740483569 8.209889939308232 0.39552771169894463 -0.37861730909685115 0.40675314810111884
Ni 3.7198648707443702 2.6418971424671915 6.9215668368765115 -1.0659251203924287 -0.2989437072246077 0.04392806884151789
Ni 3.9589348000151565 6.839084259135929 5.958788916403513 1.3594443141673556 0.5087830061813754 0.5676697532152546
Ni 0.5404346723048965 7.521572764470976 11.358511585872952 0.20888207724982089 0.5585683051346187 -0.33667516033711054
P 0.22411488604364044 5.599483601021928 7.932065171981921 -0.5317172463800456 0.7268470070407804 0.7991479705980367
P 8.335760493268502 1.7246357163940038 8.173524347011874 0.165865721589295 0.059183966559323876 0.2558227076654175
P 2.089572565791205 3.4516606785471735 10.454595414629479 -1.0464202175902817 -0.8088605699001102 0.22584673012861747
P 4.145868298062161 5.9651017942668005 3.8987003700471896 -0.34643506793735174 0.18755734763011567 -0.48607322328868546
P 7.176867285057283 3.9928838927984414 10.52788439271882 0.46031102672291685 -0.138191138492162 -1.9239760359742606
P 6.34648174185446 7.640281031904528 10.332230601880092 -0.6920756649978662 0.4651765823453343 -0.561575981612691
P 2.2910595684244615 8.780005766534602 5.810721996803051 1.4937782836969564 -0.9712331907344822 0.2832892885168024
P 7.080924986720578 3.7162673752286675 1.5408309492955043 0.1226740166931694 0.702862728311041 0.1864494592779176
Ni 5.373313781933712 2.720560560826963 0.5039019236512432 0.1739688103124036 0.49699269841466664 0.42527434683375787
Ni 1.1664606672126825 1.2765840021655808 6.981573243770125 0.9660930412944394 -0.4076504631044076 0.3312768721396746
Ni 6.822477638422028 0.6981367023698897 9.493757961434646 0.21543941875236444 -0.29049171980251265 -0.38098863754250517
Ni 2.5558479567986674 1.6779682051208609 9.031143658035337 0.32365329415614585 0.2811655573055803 0.7322519801064357
Ni 6.415588177177567 2.0725571387687025 2.865186239767455 0.9440255199714387 -0.3624982920478015 -0.8454656227176536
Ni 4.000097052999118 6.8277376129260485 10.426952840500237 1.3736540300088342 1.306639768771814 -0.6196880552640747
Ni 7.8496625385861325 6.970374676289805 0.10156293085076033 0.5639267412330546 0.9370015232451218 1.930654990656333
Ni 7.760906146696195 4.091070083540144 8.288723239400689 -1.297556061302991 -1.2390346680283306 -0.15187814906095135
Ni 3.214216889926162 8.660725170269007 12.308910851321464 -1.0853757729178726 -1.3693356051391385 -0.07098841539341967
Ni 9.352125653131589 4.865022186986541 10.069111960161912 -0.6973435982650248 -0.10507481555416742 0.6087577815048161
Ni 8.442985845722639 2.2764788100843028 5.824044540171177 0.07016617660244046 1.1537012967671487 -0.34117484797967695
Ni 4.0383885772382255 2.8023127379628425 11.503227202201337 -2.1488830278974285 0.38904467507776225 0.5526524538708161
Ni 1.2705790917214408 3.4316473385949187 12.792800343478916 -0.13162017014286365 0.420715780928798 -0.9342077625500687
Ni 2.989128136409584 8.599912960718214 7.942357097915607 0.3508694495596215 -1.0111012305740135 0.1612197381768514
Ni 5.755629441738841 7.91878714307851 3.8418463140221335 -1.5468494524903231 -0.3943054092560693 -0.8972862069333708
Ni 3.04051054710861 8.396345588203403 3.6364729260817623 0.33933496655746076 -0.12567577963397064 -0.6671714455570188
Ni 3.6843259756498523 4.3801869895685215 9.365609902106229 -0.46473306705001255 0.4223378899132533 -0.1665041265042423
Ni 7.325690950557893 6.04975195390144 11.442384105062782 0.34153197420877957 0.029318803568775312 -1.434536981537136
Ni 0.44040612779909116 -0.12057060728385298 0.27426996935839515 0.6152922401892242 -0.5663417784324505 0.34949288092706904
Ni 5.01133850712772 0.2636410053347282 1.7573202349960113 -1.2422156368594737 -0.4056766272074884 -0.9726712087325894
Ni 5.7341807374141585 5.350484220744417 0.3791896542320144 0.8896112068866162 0.6076712333088568 0.5209862331157865
Ni 7.567758792758431 -0.2430126390026422 11.750749429017096 0.3912172572490489 -0.23217472922917437 -0.4404561967805189
Ni 0.07536026338626235 4.876387002365693 5.880913131531649 -1.1046834721075491 -0.5698238234437799 -1.3409758230495228
Ni 7.855612941522458 8.676114456641734 2.8050208526427185 1.5423227682645633 0.4353733829409728 0.8745049473727972
P 8.59621553477152 1.5749853536915541 3.6881551280737637 0.040819090898890985 0.4655925868368304 -0.6149667385290054
P 2.0479651681600983 3.207339859357003 1.6693260397570022 -1.1849286302125464 0.6701220435449105 -1.0328795027913695
P 4.547470531048695 1.0581633337715424 8.189559547352193 0.9834459307505902 0.4861135896083176 1.1329584077928423
P 8.68287338761063 1.453433611267055 12.433098031748754 -0.20368742042275886 1.5780844992452048 -0.09961507799117683
P 6.443405175331814 7.6388184137781945 1.679669747823111 -0.6534810925541198 -0.30091471490804955 -1.6702035259696526
P 1.5606226253826503 3.191559935844944 5.91694531957188 0.29918410537018797 -0.23924757691555568 0.3406238605722134
P 6.861132546046561 3.8860491774836348 6.119619677417011 0.17039292003568718 0.525951804651178 -0.7264950230180004
P 2.278068612395535 8.513900113388232 10.193245541539852 0.5348460218170143 0.3529864959026243 0.5420391971313439
