# total energy = -340865.45935619384 ev
CRYSTAL
PRIMVEC
9.29626396190615 0.00000000000000 0.00000000000000

0.00000000000000 9.29626396190615 0.00000000000000

0.00000000000000 0.00000000000000 13.60602198901444

PRIMCOORD
 96 1
Ni 0.3960524530921862 7.166415536533272 7.364109886455072 0.7921453140279583 0.8270040735783564 2.6193483694455275
Ni 8.424042017322838 7.107477222863366 13.385427428867565 -0.3344293017257272 -1.2118208266177 0.3338973404816572
Ni 0.8743926461073857 8.592685542289047 0.3287949127813974 -0.880383003420129 1.0017673547675972 0.05230498005130346
Ni 0.684720042378923 5.52012155476183 10.25953914149146 2.324397842540713 -2.3530926393722447 0.8204464749654967
Ni 7.182191296517156 1.7840181327209137 6.625887985585133 -0.4079080876411685 -0.9855745470578187 0.20829792261157673
Ni 0.9872074577069346 5.481941798572192 5.882427639959202 2.057039109211238 -2.2801188181176797 -0.2676857776515906
Ni 5.451310608739016 8.668636019052947 12.054745327919271 -1.5778345880179279 -0.01907424302263167 -0.28153965281554744
Ni 1.8878295126502256 4.496928259165904 2.22159141927923 1.1162891746672776 2.010961855237201 -0.04873371776027736
Ni 0.4390179259817083 0.515619141224614 10.386238852980185 1.257502902035847 0.3303157937779859 0.7627393500620153
Ni 7.328226307469925 3.994734782389567 13.385564083948156 2.8649841092756145 0.786434122575794 -1.3206191137700418
Ni 0.7486960015027282 1.0045821750963753 4.090718708042845 0.8585839052671665 0.9296589668371216 -1.3865748518355603
Ni 5.399744232409842 5.443092711375578 5.117020674315619 1.6212530642128788 -0.40924428995408874 1.106646766481507
Ni 8.788864601181164 4.550549109835939 1.7385770647319756 1.0085131581318632 -2.0779221233078347 -0.5433298909183093
Ni 3.7117658029261196 3.8191469482259746 12.356975236734876 1.5070130372196755 -0.41506243929776254 -1.259897884630585
Ni 6.4823220623469915 0.3904960761078798 10.252192304063492 -1.2191530986130552 5.789905004116177 1.781168224645694
Ni 1.9348407196263633 7.627156972196973 5.378718872153181 1.7819380129321827 0.14441012281868032 0.29132167190297564
Ni 2.0829395011839766 7.386365142437053 2.3203028687859377 -0.13500425612374814 1.116727804866593 2.22928193797147
Ni 2.6006577388165817 1.7940209127696232 9.584857204964393 1.2971691102772176 0.617709334271149 0.17876803147325987
Ni 2.7766546085955492 5.788132845472143 8.28368609403899 0.10059235430278159 1.1304675230501884 -0.0604134680910508
Ni 4.140946422358065 5.943603564370487 10.507318972889498 -1.9075721406949404 -1.5880531804221423 -1.266877915492844
Ni 7.327185125903517 0.908152958398179 4.3706078352477995 1.5893986387064434 -0.8416385356620795 -0.365678489547996
Ni 4.3936839513397254 7.640023001553305 6.552646440146691 -1.047060936498074 -1.8790899740948477 0.21391783990151547
Ni 6.563924667614251 2.5364298509387617 1.6368722182218438 -0.36510513354302926 -0.19214445278016584 0.09512541765093939
Ni 2.058146365133876 9.190955907358518 8.357934424867091 1.782106677299563 -1.8755822180519055 -0.8295522939215068
P 7.517479649692628 8.694656261949172 1.4103185463825585 0.6674074728272248 -0.9241161826420214 1.318334688611239
P 2.7380472242625657 1.0840931209668332 0.11393780028903236 0.2255770214069986 -1.218464557186463 -0.8688786023249552
P 4.425635210658884 7.924600234686296 3.034441868174291 0.771296238493091 1.099164856282165 0.5897365032073069
P 6.581383051379564 3.8135970786264584 6.171419668859043 1.111129484843209 0.12678263954490426 -0.23685490831366307
P 7.784115093333044 1.8590668718781926 8.916176006840152 -0.22459665977160032 -0.22238191150846864 0.3613302398816293
P 4.790560053421053 4.594920177840112 8.522920799581291 0.28108611021789653 0.19363620683434393 1.227574232797215
P 3.443447735504276 1.516992245993095 7.4641544202173415 -0.17841039102352502 -0.279647320888841 1.0553409171186792
P 0.3918310196162392 4.6076746520286145 8.044778616988987 1.520288671282659 1.1331581825084742 -0.34628568684368105
Ni 5.3757040937425895 0.07835727950982146 1.3523851588495166 0.861519847967039 -0.11867466572578918 0.054802292551860456
Ni 8.730725766214036 2.2177353289779247 0.5966054041896168 -0.2878859067485494 0.5062324718453798 -0.012915165399771306
Ni 2.8060586915826016 0.46275314719022614 5.665384046177379 0.38763133967000335 0.6286624908485431 -0.03580698239628027
Ni 6.548111722574424 6.132354908337957 8.018559434043468 -3.075072033908078 0.9268765189959779 1.29873362655086
Ni 9.056011339340797 3.133854255985527 6.598988316115852 0.5352013482739041 0.9456720544359262 -1.138428686878794
Ni 0.5091303489625331 3.7381857851737332 3.8409662094270214 -0.7500872085156436 0.2152440149121067 0.39767098329419254
Ni 1.9218073575182861 2.87503697035716 5.3417243896217315 1.238507848990583 -0.36140197365982923 0.38862044305615007
Ni 2.4452149087101946 5.936854476716803 12.37358859010388 -0.4672270371164598 -0.4168498702154885 0.2996754431843097
Ni 4.695793938349914 2.803734625586154 6.210781909827673 -0.8827309348270153 0.05824782789829969 -0.3631163852477747
Ni 4.062950767517291 6.236975063234033 1.7872188364112211 -0.10677585740567418 0.2077947577229131 -1.8231162869427053
Ni 9.068189445162181 8.392416127243182 2.9476770475157212 0.8825746117548091 -0.0216016374301757 -0.5171971983869996
Ni 5.559556306589549 2.1468977974062087 8.371962487221648 -0.2717879727454222 2.1196979216930396 1.899135065671181
Ni 4.127643468594401 8.076696409757798 9.485928222880418 -0.41332077401630746 0.16036304660351092 -0.39602419171938896
Ni 5.398712347107419 4.757697760231286 0.2484863474609587 -1.9102864543023104 0.47427263110933154 -0.84996531036022
Ni 7.955724126510718 5.773017120231249 3.8088150804321677 -0.005399573749016507 -0.19854392854860645 -0.27021625738292815
Ni 7.179160714457789 0.2629197269252956 13.254088881649931 0.1552061849929198 1.1065423796931588 -0.9581951266036013
Ni 7.819840635830433 4.044953200440802 8.754536287160839 -1.7418066921289357 -0.08011454606440396 0.3720013464422303
Ni 7.460670180475468 3.5748504269434114 4.091534920020797 -1.327929531388526 -0.35952635390367116 1.2126703191021888
Ni 8.091895801374564 8.422554615085112 11.329081750067735 -1.5556436537431855 -0.34245525735399734 0.4484497565089567
Ni 0.52640280744813 2.9357136853924084 9.789859348005423 -0.2800777235580402 0.9865741919669266 -0.22519598391849602
Ni 0.5052965696947934 3.824148338250329 12.512437588995635 -1.6289800005434911 1.027428249868811 -0.563023769802811
Ni 3.4000992565385393 6.23329374269566 4.0572753983539664 -1.0795069728419215 1.3189106157193673 -0.2937837602902231
Ni 7.819450192743029 2.4501977062065783 11.142229632832562 0.43653475023892563 0.05304777175459897 0.3158602804742883
Ni 6.138332406080821 6.400384791576243 11.242778024102861 3.630761474833005 0.3379766527573534 0.02266298881515452
P 7.3304295220345566 5.898163426007947 1.606898274252463 -1.0700838797558088 1.5693322069738713 -0.7647756637657539
P 6.782823795687637 7.066387736046177 5.322961740019213 -0.27220320590596997 0.9575767762933122 0.44992248439974125
P 1.1711805219857099 7.587703627841282 9.441626876856137 0.08730823559936576 -0.011954858369031023 -0.05202961490272975
P 3.450419933493618 5.648698181949285 6.07926580396791 -1.3680027452603278 -0.12936556978073205 1.1761817372578518
P 2.070910135586365 3.902116104299146 10.97608680287853 0.8013053832606716 0.7300387745052008 -0.10574767325147594
P 9.089059557810279 0.40197603250393127 5.768912819681523 -0.35607799034375454 -0.009845268225195948 2.1041226929626022
P 4.394418356194603 1.6224304721199199 11.149780988068219 0.8919010313620575 -0.17268300162144454 -0.29261905055816056
P 4.504811491025854 6.6547026854354865 12.55767785768248 -1.4279343886189537 -0.45115070037988747 0.2555699682246631
Ni 3.1433736303069755 8.220927945497323 13.482479495252809 0.9157973783636809 -0.7374193832399881 0.1332808456747382
Ni 5.353588281720397 9.175077888470788 5.215569439202575 0.17140439201933708 0.02952834847642011 -1.476147972209703
Ni 4.319853022764585 2.322374076401972 0.7919775473677669 0.9526050341103334 -0.9161858720513512 0.23224620589705808
Ni 8.380163651309912 6.571138568467224 9.337785748882071 -2.0461725988103794 1.2663104730251482 0.14599572213824533
Ni 5.847071159142049 3.9536731843643347 10.782309898600342 -0.1726315795582188 -0.10847612792623254 -0.47206791014852895
Ni 0.5169531551065749 1.3807276084893916 7.993197366637435 -1.1270996350192202 0.30232985008802127 -1.3168910141861772
Ni 3.2140903104468763 0.23083181252554583 2.175507979448874 0.21348332346725815 0.3297817756513869 1.0905398336173155
Ni 2.885699785148861 9.221140876520376 11.246029857245091 0.23936790454350385 -0.24314639774932964 -0.04395455120407914
Ni 5.940851870230693 2.322225336178199 12.744339401505943 -1.0721356200785148 -0.9335601016637407 -0.9386974228903058
Ni 5.382025553252927 2.076367042546023 3.948304591912542 -0.7140606539093896 0.02277380336140594 -0.5669009933700301
Ni 3.925217320303833 4.038957110169968 4.055846562579351 -1.1715360109557245 -2.227875544542247 -0.23266863814645733
Ni 8.230791281586246 9.015851478922187 8.894936832511819 0.4694171027892432 -0.7158557981365995 -1.0172999031855576
Ni 7.515025436000379 8.516642102885287 6.78017993821008 -0.5083829425294794 -0.22408089647744633 -0.3255505111788587
Ni 1.3007239606276868 1.251816315798448 1.6043129832380147 -1.6866603859740952 0.7889877422355831 1.8192858574530215
Ni 5.473788975056655 0.08751131065662843 7.561042872356436 -0.6004811433183207 -0.3769090681564928 1.0103962340871888
Ni 2.1736524451573107 3.1747206324670576 0.30469992615662955 -0.7940623285450131 0.39728068983430936 0.9943237540053586
Ni 5.996053085778311 7.096526223888106 0.33448608559349774 0.7819097523428792 0.9226593955908368 1.1782738439001903
Ni 7.981521259071285 5.521051181160409 6.519652140008327 0.1926033946944554 -1.2257446357876438 -1.1291686017331068
Ni 0.7916726299090331 7.527733428868954 11.54575721179572 1.4641326929163818 0.06138431664475234 0.9747360616814181
Ni 1.7782730415776955 1.8904510590942183 11.893187415363034 -0.00341416788787154 -0.06802290500719253 0.2892460203208696
Ni 2.3526891932596317 3.543968237982618 7.701580072788008 -0.22781413826763344 -0.5678227338533511 -0.3367366097026652
Ni 6.827325011387612 7.744643156449381 3.2606971299396323 -2.3258890823742586 0.8156349125094662 -0.3673769602963415
Ni 5.812842315146371 4.747127908079444 2.5770898503598083 1.985794097722322 0.36484725189595224 2.311697621365225
Ni 9.012960340822605 7.431414837712189 5.298157448452329 -2.2431530395266077 1.6476711491950913 -1.6005299727329145
P 4.045083348136604 4.083067882782539 1.859671129037269 -2.51977982842157 -0.7232292077825351 -0.262955976276089
P 1.412511535056806 6.490056553983168 0.682110581078112 -1.0125662451553141 -1.7886599050370484 -2.444132316989584
P 9.09024947960046 0.9770838262264099 12.540044704154234 0.7675593971584781 -0.6186734979566312 -1.5621739986625354
P 8.20240978763763 5.171595321670595 11.604794065863876 -1.041244329816297 0.27334940369527116 -0.08643868851021887
P 0.7565169483939728 6.3105735852095295 3.8355780948208573 1.3526064653099157 -0.5273705393755755 -1.3514805792355888
P 3.169273021771385 1.7811920684692335 3.8284757491357144 -0.3586681196684339 -0.097917892794412 0.5536130180118723
P 8.279438631023881 2.0893539233341714 2.858938630012968 2.0560438351775043 -0.3607383719339013 -0.8756717139873886
P 6.226544655041978 8.055789112053757 9.336479623792068 0.17514123335395 -4.882249281023023 -2.5233711453172543
