# total energy = -340865.0371923899 ev
CRYSTAL
PRIMVEC
9.29531380100063 0.00000000000000 0.00000000000000

0.00000000000000 9.29531380100063 0.00000000000000

0.00000000000000 0.00000000000000 13.60463133248305

PRIMCOORD
 96 1
Ni 2.4042235630647286 7.4536981704149445 10.77630986990808 0.8367642382889138 0.6966841103041551 0.003331378366078134
Ni 1.6125138192152948 3.0810339357082297 8.662667104777874 3.6108570225995935 0.6302642881180243 -0.5666045451755338
Ni 3.5555596941470964 8.84573644674265 3.4934381839370516 -0.1300314854995051 0.024214135352358297 0.37820233304661965
Ni 0.9029597749424743 6.519909558441357 6.272142974872543 -1.131296189599071 -1.4481610000784737 -0.11160901712825941
Ni 3.396191542757589 2.3329006219383537 11.13573083071082 -1.2238469045442988 0.5631214717229399 -0.6625953961505621
Ni 2.5128021210338645 3.61102483029998 0.8587940219817214 0.3467112044168738 0.2717944005033255 0.9626320793290323
Ni 0.057037903211215914 7.216834989679603 2.0406262178689127 -1.0881163117774875 1.0440751143968727 0.4548340627687457
Ni 3.7799113827990154 8.498379873439966 13.016162543812648 0.8435028425643281 -0.7315819506226046 -0.8776110971019466
Ni 8.13703385319408 6.325879182698891 9.538532899687095 0.21141589941526817 -0.29855007133061484 1.3203028680812035
Ni 8.691025247458487 4.26118553889952 12.647694454299067 -0.7252657785965897 1.3360845563954926 -0.41219694482450947
Ni 5.152159936507399 4.055424477414647 10.305548713470541 -0.24005387486693497 0.25587721505243677 0.7027251742919124
Ni 7.360903054910632 6.238633369403941 3.738797281287734 -0.9136967870809104 -0.06478948567155939 -0.4818946664309637
Ni 0.06400102261663325 3.387212269835905 2.469458073793895 0.6090462592795124 0.6751513784387019 -0.3533868166648365
Ni 8.951851746612153 1.1015225455882662 3.1546556078838095 -0.2664321077501476 -0.16193450485568886 1.084352988080313
Ni 4.237398831439283 3.561099701042876 12.83803737914295 0.8630460548035781 0.2523900278347847 0.630010006015373
Ni 1.4500968049703917 8.66470091938995 6.670486202243569 -0.4343451987867746 0.7565753873431487 0.7955646241221525
Ni 3.1969836773491 0.7867135127982897 7.988570963700763 2.476619233873696 0.8829952442319955 -1.7145020907767117
Ni 8.623838720876781 2.4977158270878057 0.4991834367818789 -2.4055081768594833 -1.3729125238571194 1.8445127503406105
Ni 3.0342785083831076 7.479799410957479 7.843885689647788 1.106558320532759 -1.0664550247539697 0.4779850469639122
Ni 3.3167630881863817 5.8336830331377465 12.804855898243845 -1.3731434089210028 -0.3785494319733932 -0.9866304991261589
Ni 2.0738588229927255 2.609324657285171 4.840173890452739 -1.1001693862872794 -0.03743397647674198 -2.586639052137965
Ni 9.304980709650204 0.8730065564509286 5.6393375462648 -0.7444492935035759 1.7035998420419114 0.08127154248698261
Ni 7.194953821503989 7.420142088378426 0.6678320292531762 0.5146795741714685 -0.9471985183827816 -0.6047388901534101
Ni 5.075371350993913 0.9919122078113591 10.358171342729584 0.7497843325632442 -0.8153852583925055 1.9193506213871072
P 8.271564926688413 5.386206637226934 1.5991155542160045 -0.2326573252925477 -0.5943588324706667 -0.05460046095369952
P 8.733662850866109 3.0418820748944295 4.531240425378907 0.11598760581192927 -0.21837407590065616 0.6028339598212135
P 4.226802173954067 6.806920955959807 0.823891978538308 1.7082429972408775 0.0639523344822447 0.7027670832734413
P 4.836426020015862 1.849135321797465 6.239533155758826 0.7741918148733312 -0.12608561347787964 0.3444751159975035
P 1.4140774648342387 1.5584336847863562 7.185830471221761 -1.0778632665909114 0.288968855400083 -0.7512488329239126
P 1.387688069570616 1.5020947891566212 10.753494522717324 0.02990270109670334 -0.43329181782159565 -1.4822060054783248
P 4.798965906274263 1.055352723018906 12.687542534100274 -0.332063372596712 0.7929672957086215 -1.1244920221930441
P 7.293911729914179 7.7169693370410775 6.138450338663444 0.025144103365795405 -0.7117834278394386 0.4003876108944073
Ni 6.4610702234576545 2.462746857386591 12.520164610995842 0.5218820054571786 1.277735169922322 -0.4445360232768473
Ni 4.206873021630993 6.657173454129246 3.260472528187281 0.3555064341110007 1.3962002907404665 0.4639815335959687
Ni 7.0108787266094765 0.29978501744492797 11.882733834348938 1.4222658774792667 0.13956847845566286 0.42766907231817963
Ni 9.109490969675125 1.9644436868010722 9.044358707395377 -1.052483393065226 -2.28005634031086 0.11803857480368703
Ni 6.498149229342329 0.6512519784142456 0.5335984057935157 -0.9813162860020972 1.0078783527613417 0.5097502551906512
Ni 6.831479174447476 2.7118612614250166 3.509328522508085 0.4115125171629751 0.3525167553550574 -0.4723185927067543
Ni 5.961809635573033 8.04018598096735 10.816879266043367 -0.32299226353337923 -1.0641402605778638 -1.5550361020661734
Ni 5.607909161507548 6.358598686512894 12.554952322082178 0.6263469553414891 0.5086148560346273 -0.15537382091903562
Ni 6.651401064393879 7.455352736232812 8.19106286339831 -1.4059560845756498 -1.3339335714907607 -0.33754984963257995
Ni 4.759879112655547 6.040020404064799 6.157305882267621 0.21612616040674393 0.675601835712559 -0.5186339308335262
Ni 4.308898383523745 3.130698796184995 4.001788658975001 -0.45258743282641406 0.10184653842485684 -0.18785096761113454
Ni 7.527716752480542 3.0231891992779643 7.451487744844783 -0.9157287299092745 -0.24637236088579503 0.34002093688089186
Ni 6.365960574871044 4.4159618053787675 0.470229464500562 1.085173941319712 0.7560709369029043 -0.1111431332354344
Ni 0.2197914078078428 5.205580103671908 3.9420374537287546 0.15700467165423926 0.18069095952758557 0.8255426585414813
Ni 5.88650830023291 3.8325228576817576 5.619950310723645 0.3678369306518955 -0.25347091960378926 0.8228921082925118
Ni 0.7627520534426832 3.8503233831942048 10.625353047780303 -0.28689526070050586 -0.06252537222773102 1.0541677227461845
Ni 1.0607068236430155 6.116130431686687 0.2329191791818528 0.40092857099954177 -1.0675184330214775 1.530111828020668
Ni 3.9445592723039646 1.335346158781796 1.2911023251869416 2.513568043183903 -0.23607792093832242 -2.909412000571686
Ni 4.3096327132968435 4.880234832935007 1.8605555440661818 0.1410880004239828 -1.5511640207052768 -0.5653164224917295
Ni 9.109816305650549 4.476372048358085 8.3140761138313 -0.9962173714836456 0.7857365822881371 0.543866737258386
Ni 5.117060832416015 8.781217675159414 6.624843423954394 -0.1839971410826831 0.13641759153150698 -0.3662878409972208
Ni 1.6006065225148014 1.181620262737487 1.278342648230839 -2.55458202370242 0.39482322943275233 1.2089023674193244
Ni 8.625009930388305 0.15140020858571146 1.0635242331901813 1.5242507412542006 -0.4874811593798056 -1.755165629934345
Ni 1.817020013366392 7.060766674612246 3.452038716298755 0.8614833383021486 -1.6809957314891502 0.14183979098834282
P 6.740617484168536 1.064694513170347 9.095212438479475 0.022043352953284617 2.2053699072405633 1.6075922788963346
P 2.7532811787531966 4.6885096949612555 10.944789287672156 0.9314543681746474 0.5211232729142832 0.09562986809118368
P 0.540186924061517 7.246561402519711 8.500554047287153 -0.43046129035133607 1.4817635186242675 -0.5971875601687134
P 2.675702491585111 5.445269059736641 6.628175793874087 0.6819843422001352 -1.5049972923412274 1.0885333447102479
P 7.777435351901897 7.300846033847488 11.77558396607759 0.050885988216589774 0.08646182843867045 0.18193203102353828
P 3.783861891072013 8.797874877101089 9.542043739627593 0.20373035784555235 -2.2649778487111827 1.0564369783963352
P 2.8138401467498513 1.67407668107897 2.898738893364962 -0.7904121333869355 0.5968643725013398 3.7095236206345725
P 6.574380096040804 4.979518077320621 8.313980372101389 -0.04403014163702095 -0.1270317794412328 -0.10689515659235785
Ni 0.15504118291637756 8.74319054728922 11.852830810550744 0.48186278475176375 -0.33484633465848784 -0.31888158379911535
Ni 1.406250810796912 8.918565228669555 4.3410610980540945 1.091510682171017 3.0343161921469552 -0.818699667477719
Ni 1.5607296272414863 9.217995165135592 9.12951028653996 -2.1068388063421843 -0.5103369809320566 1.3491452462341926
Ni 8.9803139968049 1.7399432731318163 11.948471221542974 -0.7081260335925095 0.7832166440797608 -0.8673493101646222
Ni 3.0796582292978685 0.7237173135800353 5.50263787611143 1.8223285009340875 0.1199069954709935 0.806874906928649
Ni 1.6886145515236004 5.6319654330617075 9.131714205390614 1.4943704087550007 -0.6202524124079769 0.37250116889678425
Ni 8.355241339567291 8.925415874780612 9.542587515472228 0.7135490043802937 -1.5009742872247633 2.731944947298037
Ni 3.224302603971075 3.2713183000765365 6.786180322760893 -0.06375050288408377 -0.5565379049681511 -0.7579437284455849
Ni 5.136069748694321 1.0338898439545505 3.367064677643618 1.0761635102909852 1.3611196449872494 0.074674091775123
Ni 2.773405532661525 5.06903194712995 4.389670010907771 0.5224803011628099 -0.9505638353105887 1.048689987461065
Ni 2.698039130126318 8.249377013164542 1.459178326341494 -0.10064120526284602 -0.31261451984348093 0.5878228311243618
Ni 7.636741485501687 0.16062394825464166 7.589302852628175 0.97665924684606 0.2586874308077223 -4.305622575724798
Ni 7.633608964824039 3.277852905525753 10.132579659245621 -1.414660297217867 0.7300801692660974 0.5258605304889524
Ni 4.54149501532425 6.471945740350377 9.98831639242934 -1.0464323017751398 0.02257479997672241 -0.255331884071928
Ni 0.6661830406234592 6.263080044128608 11.669739159833368 -1.1930206631920615 -0.38513094184565283 -1.5926405426825088
Ni 8.038233965114811 5.102244102563879 6.169741152779658 -0.7386699678176375 0.7102060560499898 -0.28744521966670494
Ni 4.730301424832776 2.389406833212592 8.67395905171914 0.7624760690982998 1.1566128139869887 -1.8474219535676055
Ni 2.109850277188128 0.8650321069276239 12.758708384427086 0.3579867773306931 0.2783602266463012 -1.373183775240635
Ni 6.4422843947053545 8.742828030059464 4.501989932594276 -0.4386158011376704 -1.1039023709671507 -0.9240339073408601
Ni 5.404685720630978 8.417222490542224 1.859630660364621 -1.4411300613736213 -0.7576683632970113 0.6626961833944846
Ni 4.0862942138255285 4.793537443141485 8.29440351216313 0.2906935514006736 0.8518784682225328 0.2904276993337966
Ni 6.969254312382459 1.3485733900111496 5.65864205351506 -1.058651212438835 1.3069974092215493 -0.5553289722617146
Ni 8.898543123210647 7.854335481178385 4.545497577353315 -2.0970267053477687 -0.6763415420920609 0.568798210392743
Ni 0.629060346764942 3.5441822303208634 6.308372389095683 -0.497169333201847 0.1927689737380422 0.28283008949219685
P 6.669024978948239 4.639802251783593 11.770141559974435 0.039253289073667874 -0.9380703308292682 0.3613847472686486
P 3.2845827125602236 7.687856414897482 5.447063055258261 0.2579562090686525 0.9779057176586513 -0.25863112364849
P 5.4395245559420236 5.112738511599677 3.9096990577716766 0.5274967805407949 -0.9517966792764254 0.5340980879073963
P 1.077856677204616 2.9886849952559253 13.190519388355588 0.18675284945094933 -0.16034067800600774 -0.873039161460548
P 1.145991325771842 8.279568191683827 0.08402219854418418 -0.9469087550565047 0.1202425244335413 -0.20003413994088776
P 7.42666739851406 8.676059792589015 2.6293402560245718 0.7700178860012996 -0.591536018309891 -0.11356716929589475
P 1.9868175065966127 5.1693562666369175 2.3740900154896623 -0.8516306138777848 -0.41736537639932636 -0.8041158561262731
P 5.885569473560974 2.5942569539662794 1.4775718928605701 -0.14921422907554302 -0.4130070994306306 0.37721528654300196
