# total energy = -381172.1887070691 ev
CRYSTAL
PRIMVEC
9.24939364740363 0.00000000000000 0.00000000000000
0.00000000000000 9.24939364740363 0.00000000000000
0.00000000000000 0.00000000000000 13.53742254601036
PRIMCOORD
 96 1
Ni 2.920486812041611 6.974523819849313 6.06254562503493 -0.19925715256554716 0.22726829306649246 -0.7469625468437329
Ni 2.926748651577927 5.419367760354499 1.7889159865277673 0.3075286206801413 -0.5828264063510349 -0.2140713347602442
Ni 6.929312783433493 1.0957756718867508 6.269613651722386 -0.22693353543489306 -1.8823928132158354 0.7733505499189585
Ni 8.652613571038623 0.1133494699403879 0.36022688712164597 0.04069490661620088 0.034305715260405434 -0.6952332367902414
Ni 5.667177516420928 4.640513314276203 3.972407408629267 -0.4186648119370403 -0.0481881296694525 -0.5637087116849776
Ni 6.310223114771419 3.8831544591615668 7.491826685637984 1.0405789283181563 0.24220228866850543 0.9466642431458664
Ni 3.7680920015075516 9.259845516974618 12.31301673155147 1.2096970954064779 -0.391589552986803 0.6562686826015859
Ni 4.775674704444862 5.277121334610038 6.169721124679171 0.2178706539016764 0.22629178808583605 -1.3524236598751482
Ni 8.167926842261638 0.39067126649207934 2.56191649133201 -0.7666281435934604 -0.06250120385801494 -0.001706698278461577
Ni 2.023351119300972 9.079778320382305 4.7844227810083 -0.06064255338272136 0.3306590360500176 0.9979878331205071
Ni 8.422229672706935 5.30773682776396 11.278189014525276 -0.6826073204961147 0.2896519975100367 1.142125419004091
Ni 4.67181326256408 0.997056892904331 5.29964360827463 0.0967128167427173 0.9274516747731576 0.4247107610208041
Ni 0.7604139298544368 1.520378339174952 9.299275682326632 0.22372094203486634 2.8281453431807098 0.6180489769987548
Ni 0.3221887555217957 5.919639717519509 2.4395248141084576 -0.1194727361470523 -2.6516270269735753 1.0064007397745507
Ni 2.3230684728235373 2.0986966803982074 12.496232421759972 0.16746674752782773 0.3031425757973037 -0.6687220778735903
Ni 0.3975565151639161 2.03952830888593 6.885173751747742 0.03471657754557892 1.6054420653225512 -0.19422293257574938
Ni 0.6940726535261873 6.4137330796915215 10.039650800725488 0.7763515415288113 0.3136380760119889 0.4273183738469801
Ni 1.3038130350341874 8.69156276791813 9.037109942295187 -0.043248012055357776 -1.471817206044833 -0.7684963071504506
Ni 0.2404453888008238 7.905678782626246 3.566082468235768 -1.143518956917508 1.5803578686604138 -0.16351676174114418
Ni 7.993085553111007 5.050307702247356 9.1023190928343 0.629996122058302 -0.9949732146638993 0.5097983348197671
Ni 5.206206233096104 7.485488076133941 9.917908430939821 0.7225398950249943 0.2876174835785111 0.08630242004267073
Ni 4.218222995413525 3.010446415188151 6.559395306530165 0.893191725149023 -1.0719713265865087 -2.0717509615001157
Ni 1.5503001278012172 9.219148184685416 11.642481010178992 -1.7030614530399377 -0.46755022478383346 -1.3884625557765764
Ni 6.654874022898743 3.0504500429496955 5.371554869490279 -0.4321134812427784 0.7304540076657484 -1.1373218269678607
P 4.44930059827287 6.453847700177492 3.9282082558844533 0.2986266902048212 0.0029667959378077936 0.7842139749960236
Ni 7.435374861056011 5.389612460814871 5.617326059184767 -1.3173790095661893 -0.13625921157677182 -1.0265080520473868
P 2.8440405730938267 3.230933462258602 1.450819198777745 -1.3522678510235744 -0.38855128038111153 0.21505169639564253
Ni 3.135155990473447 5.294278959927417 10.588525546976877 -0.33883900075764867 1.304769548332295 -1.0551593972354925
P 6.855770854108164 6.048761253600702 7.746763099551875 -1.3642682179185601 1.6029727778464522 -1.4300092688701114
P 7.92219819977818 2.246492742363924 8.495233287318802 -0.009066223967326321 0.461950876319185 -0.4223746566884597
P 5.240502984943459 1.5132008096621292 0.14079334599386287 1.2200882088328147 -0.2523661165753847 -1.2316306622547755
Ni 2.0061657458024866 6.547673549891504 8.158842087767443 -0.2064852948828702 -0.5733660322690834 0.4585073978552749
Ni 1.1263449180721623 7.382348086961922 1.0542079716501827 0.0171176335168931 0.8919341985928381 -0.6537168627140096
Ni 8.379774955614337 2.779979272313143 3.293722971405249 -0.7222208211226788 0.3734141676293569 0.6987811020424998
Ni 6.019616414045412 3.5231588068824733 12.785581204942494 -1.0202188766045657 1.234056240977133 0.67147290114585
Ni 0.9281581592174533 1.321923347902882 3.124883613827905 2.4392405361149216 -0.31550598245866307 -0.9712563306629337
Ni 1.2055104787683615 3.8392660860451437 3.0642501383532155 0.9510060650543299 -0.4690882586949148 -0.08139829787283401
Ni 2.8267164586898104 3.2027783078294365 9.957207254901268 0.75317896006709 -1.744608166133473 0.03811249060100533
Ni 4.748971704826925 2.0554187672661226 11.523487560201588 -0.43287298511662226 0.12306328171178806 -0.35737074101324906
Ni 5.031605428181727 3.318256988200046 1.840493380628739 0.37654628550043534 1.6076678693292763 -2.669339870872306
Ni 2.7885442108812795 1.70445052324027 7.87297200155628 -0.6266673147953853 -0.22109430304529662 -0.13793197129350437
Ni 3.003065399013882 4.42691706551381 12.829794231777859 1.2819715766011728 -0.19876607186174156 1.406406798959823
Ni 6.182849714099921 7.657277065362883 13.443377736369078 -0.48641235179565906 -0.9575245828991382 0.5931082478930173
Ni 8.988172325156793 0.7239768683044185 4.990949718164185 -0.44157539798662665 -0.002398067918531354 0.45135098931615164
Ni 0.7126186128382505 2.6074225834069287 0.824046983706714 0.46993209475244874 -0.4740103785868804 0.3540043956441774
Ni 1.8794675508712406 0.23997829441886823 0.32347164642827575 -0.296498845228541 0.3786831293377801 0.9690981466693503
Ni 6.36511826639333 8.381800572835095 7.759095316174873 -1.6915614228201383 -0.24142530129316483 0.172761934488496
Ni 5.076437239455764 2.78779500999141 9.204066123314785 -1.2588650724906965 -2.201107018199151 -1.2972966369940173
Ni 3.408799303149817 0.8078716440004968 10.02515145115809 -0.27035252585047637 -0.18879867623638452 0.2048971244601439
Ni 6.180703854761035 1.978334320152894 3.134983026811218 -0.5306394399348344 -1.9281304244622666 1.7886807309726551
Ni 1.214769121864155 4.072979766109586 11.48390385491412 -1.112199063758304 -0.4652436881378439 -0.8166543549129162
Ni 2.3476626106773977 7.036522505834432 3.5851833911699567 2.4486250626536155 0.2149611935643653 -1.9752805997855079
Ni 8.543785204739818 0.2538449854570434 7.926268857946471 -0.13764400773944038 -0.8812407234347339 -0.5099070924834895
Ni 8.77736014389873 7.416256364273789 12.522982593285791 -0.01786145366145311 -0.12706468956169728 -0.14680176297930847
Ni 3.6016214136573135 8.527940993328137 8.147511580482384 0.4880424311999143 0.54918943502288 -0.5180608319388755
Ni 7.242441757824089 3.17780494483379 10.343579403200616 0.23751593893642967 -0.9165993054396859 0.6872651309831003
P 4.826722108286704 5.286453972855448 0.2748179856765353 0.1497402767823421 0.4428444945070373 -0.06082561592780492
Ni 5.774831209719568 6.1749784800594405 2.0689783784333886 -1.7796780132534122 -0.23340140254742384 -0.8299073632680805
P 8.320042371086231 3.98807958131809 1.4912686473157304 0.5903517681938026 1.0777113143940793 -0.5986839422085818
Ni 1.819614724225008 6.500871617758923 12.33355316038822 0.10246283185261708 1.201055617681396 -0.586761479739383
P 3.5949248526169995 4.267864491412649 7.99304948047557 -0.9856879327072315 1.1929211614997197 2.430422166492343
P 7.043126572937725 9.038738760526126 4.290956527729289 -0.7833660251734315 1.9279687020734217 1.3494350095604695
P 8.734785184688002 3.5800055805755258 5.407767170773337 1.1279095325150252 0.021849491774923662 -0.08983485867596142
Ni 7.107594847041301 7.112312037829367 3.6863218115448437 -0.3722312030648493 -1.4259734082378408 1.5081142407036543
Ni 7.9478005215455685 7.735748921531425 6.0627888840892945 0.20611968401333533 0.336508295741943 -0.48971801913012436
Ni 8.364291470557035 3.459245496401023 12.693012347832594 0.4400875005871904 -1.314787080469297 -0.33394619144172166
Ni 8.424218292352885 0.13707416478625195 10.486656424499524 0.6545285599820276 0.1741107352069066 1.2404932548517282
Ni 2.8121301648216126 4.7256909808787615 4.519414702292203 1.7840414324284306 0.6484031638105802 -1.0787731799996905
Ni 4.255553548395165 6.753185828558271 12.05671325724841 1.3068161464486783 -0.464080263957362 1.341511640948335
Ni 3.797329334999862 2.8104375257741294 3.609306734884381 -0.15643697207622737 -0.7229556424061744 0.3465068017155516
Ni 9.026566558414174 5.659482020860788 7.133179594960655 2.032505642846248 0.7067587209313376 0.4714819557380719
Ni 1.9533794559446518 4.606679032113953 6.504013636799524 -0.3760030114024557 -0.9840113163357569 1.748758955077053
Ni 1.0644387260240658 4.076790516314848 8.808557423916513 -0.6411953332082312 0.5654912575066972 -0.4198850574973866
Ni 6.328555413088963 0.791914589985649 9.618392714199965 -0.41363470571230054 0.33832323746349474 -0.6757715285212039
Ni 0.9073821710838158 6.107245169979026 4.846221680089453 -2.534590411071841 -1.4890088873327711 2.1990591345311867
Ni 6.26038738150455 8.637740545965661 11.527318659072995 0.36726280331598044 -0.6247405300863176 -0.46833852501308376
Ni 5.933412064741923 8.964308889405396 1.7136481203376295 0.10850518139195506 0.6669966105420512 0.3638892588580572
Ni 6.975495006188034 1.3952617905667637 12.105136608096968 1.2091481648815434 0.570655832426772 0.637977854712198
Ni 7.319738940992466 5.60738943553061 13.50755927926789 -0.5197410478547758 -1.3312359700539396 -0.1524471341905439
Ni 3.85428710141734 1.0604522373384644 1.6590249008905593 0.16581995595302412 1.451886785669493 0.05651156193348333
Ni 3.536440936238676 7.549355139646882 0.815594887741743 0.714877236273414 0.43303110796104133 -0.07948693978273408
Ni 2.933010491114243 7.69211953143866 10.409371265542962 -0.655467269746213 -0.2885615926593353 -0.4335301590846469
Ni 7.967187250745152 7.592892035802626 9.197500903665041 0.1556926377110351 -1.6272740735959783 0.3779699053208394
Ni 2.2716603426273143 2.2550576809320604 5.195716495698562 -0.8474728829556696 0.07237244022513986 0.5603343958961059
Ni 4.144533075788964 8.90465954942061 3.6404290948131774 0.9656194440921305 -1.6767973771370863 -0.8926006285322434
Ni 7.257416526227775 2.1090097543760393 1.052201778156199 0.03761163970518684 -0.22476223881518712 -0.5468672146476066
Ni 5.138759654220455 7.766456908622367 5.794693357755439 0.3723849550338942 0.13838834210463263 -0.9777997882084064
Ni 7.87425859222024 7.057148653790096 1.6258713741047837 0.8215001130409916 2.352158557593749 -1.5280431184170973
P 0.8201936862904228 7.78769351656237 6.696949514849555 0.5711479415718421 -0.00833911599331467 -0.13427766237036876
Ni 0.5762104043985491 5.125764256069017 0.10642352393626198 -0.22186897642779208 -0.09983207909798936 0.7887098059838482
P 0.23150677472712283 1.8303902678879447 11.439528038749595 0.07031427214453051 0.7513025689799836 1.1588851549609334
Ni 5.509105378052189 4.789604291360212 9.922781936481455 0.026589063342438077 2.0743295208605694 0.5084112246642535
P 4.936623404254952 0.9828128266031104 7.487386051721611 -0.07968517183646921 -0.28216391666310764 0.7120009431668834
P 6.421410076464257 6.15551775571024 11.364435911039797 0.017730841620859784 1.044015207693215 0.3102218512415883
P 2.4321373233585972 8.919467828737659 2.342949119646812 -1.881627652915037 -0.9553633135817611 0.665830101037776
Ni 4.428082489120273 6.32885139368743 8.162700009880586 0.3370055470933357 -0.7994667873900361 -0.2144194621282823
