# total energy = -340857.89650008566 ev
CRYSTAL
PRIMVEC
9.39191831005448 0.00000000000000 0.00000000000000

0.00000000000000 9.39191831005448 0.00000000000000

0.00000000000000 0.00000000000000 13.74602179641777

PRIMCOORD
 96 1
Ni 5.492703613597663 3.3127455131618917 6.0349845095386865 1.619146045172205 -2.400158739622112 1.5277081036751818
Ni 4.5171181253258705 0.6802913750356924 9.557292829519902 -0.37849132504194816 -0.07802706740775595 1.461750051616818
Ni 3.4047299586216644 3.4175781025249696 12.055137302080226 2.6631820788010265 -1.0095228303433001 0.8279363555846385
Ni 1.3575923633617266 2.66278721587803 7.646705270096619 0.796313586473035 -0.18427327756220524 1.1269060309511754
Ni 3.6811998504941728 3.1744589116763184 9.438567714965473 -1.3310482795231657 -1.1337587922069507 0.36051674284139845
Ni 2.1287721470198266 8.318525135044021 13.535871799059045 0.4826235741771882 0.20609602986425152 -0.4803550898579856
Ni 7.815794545236921 6.517258562623719 10.701332699271278 3.334918260910592 3.696123030957951 1.7436422026757779
Ni 6.480827312476847 8.538117571157454 12.279348683494568 0.10098290487298092 -0.24285997685716235 -0.9182597238612444
Ni 1.765173431323517 1.0642545866571018 4.614278456827392 -0.6581509872259633 0.2857215521073789 0.40813845848441965
Ni 0.1577119056048753 4.320958524767077 0.9353401802015787 -0.7513761025303963 -0.5802902701927426 -1.0863394223827225
Ni 6.449176548621483 2.2338113585801804 9.806659524260716 -0.619928453409655 1.1392797220251798 0.01989391071044961
Ni 7.486119437566004 3.516108714871149 2.5171298371005606 0.9229465878139523 -0.2595474648151724 -0.6390659455700541
Ni 1.258084991537518 7.322803374455938 11.229867583942656 -0.7118045108853612 -0.11211141068597466 0.03837140068934682
Ni 0.4708234265887533 0.12044477475084428 12.20846036437661 0.15208795107891226 -0.02984099462083248 2.19759386283957
Ni 7.53906167965879 6.603805087527927 8.369237735789843 1.0038049540229164 1.62639861296956 -0.11240014557098707
Ni 8.840509156869963 3.865628945398559 10.823190957689848 -1.5451288702547905 -0.6590925252036262 -0.3305320235538501
Ni 2.176426739245974 3.3502850096396033 0.7638803849434447 1.0484660443757168 -1.4260191738741117 0.6537937386985321
Ni 6.670731895609031 4.906328601566268 10.511211162831955 -1.8696848787308638 -3.052627845971949 0.20445412338545435
Ni 9.314059057270944 8.148493850522504 7.578016538187838 -1.6715453847095276 0.1734633314308948 -2.5130119135701174
Ni 6.050189085682736 2.0928762362022595 3.640702839020005 -0.7604940056712644 -1.600266948879515 0.18517676321308107
Ni 2.3776673674741304 5.020853650365173 4.61129558365218 0.7290913229902669 0.7299490430048718 0.5305594786265186
Ni 7.486767479912004 9.122914740955109 0.6005305109283692 -0.2906842954292929 2.311407086708 -2.168119250419221
Ni 4.70630892268565 7.5367230920623545 1.9857914648888797 1.556534540988571 0.24290034317679457 1.6245929272193893
Ni 8.514581424504176 1.288477238373114 3.9830467049593192 -0.009914173789918409 0.388740256463466 0.2366175954918764
P 7.19940296309225 8.027075133869047 6.778699507219861 -0.26438113875838987 -0.4093797870906885 -1.3419926943498113
P 7.602475910386214 2.0199761682362842 6.52358683701118 -1.078124747782414 0.08385447272281042 -0.2396954630862517
P 3.5264773924071493 4.9234594601040085 1.1442032891255844 1.4488107178473308 -0.6792391753548302 -0.8833333442977046
P 3.043779763817703 8.961768210916432 2.459162918846761 -0.746944549121604 0.16957582345103053 -0.8611226125286202
P 9.04530932204209 5.30154051344571 12.368257275790356 0.5867324262736605 0.24965900205686684 0.7064298768370092
P 0.9051808529338206 6.270551659076922 3.5150502457060155 -1.5951334843076916 -0.3989220820924742 -1.1470125718930633
P 3.3100969922695436 6.980383433980354 11.68802225226301 0.7905404314346837 0.32431998120586725 -0.24934712724340283
P 1.4734510645248633 8.526706390717019 6.067411045825639 0.14732883912737205 1.6855792370947744 0.22483063015927732
Ni 0.7834212096548603 9.126511845571311 2.967628213820058 -0.17039060604284204 -0.3432242743095379 -1.2029114399432121
Ni 4.688379751112981 5.421728888833572 5.83914517338567 0.4599857821730143 1.5626761351099345 -0.6350992476128223
Ni 1.7299631305241816 4.389885811394531 11.17995517461537 -1.4357258596389144 1.248470873740566 -1.7030449979797058
Ni 7.347795268408199 3.172993772459275 13.039476057982046 1.8854457411095464 1.4054773451670182 0.857775036212626
Ni 3.7517425470275967 3.8211394295579484 2.9788177449943256 0.21202653641607355 0.024633739388280156 0.5499183427691046
Ni 0.06104934576042653 1.0030004970830113 6.390524959541257 0.3976830674790506 -0.8298184030986999 -0.318125165249065
Ni 8.557267692077657 1.8453804115385937 8.615593381601272 0.014398949034149395 0.09703266197598129 -0.19696758520042207
Ni 2.287035358214705 5.493210777172794 13.109828098578893 -0.2100115628685738 0.6941860264726496 0.6061699661729819
Ni 1.9666958170934121 5.532149669441144 9.353741789449487 1.0830831202289541 -0.8540991300229355 -1.0884646962558415
Ni 4.732437238722926 -0.0019309783527189464 3.656469051863922 0.3891156375250137 0.2821937414597785 0.7653783303467593
Ni 0.18686535844862473 5.095726021123322 7.731380924923678 0.11706901180156612 -0.1282006029383534 0.9108994268414311
Ni 2.209542642318382 0.7634802892341751 10.741099958712342 -0.10590322499273376 0.817153920257154 -0.06959564881095111
Ni 0.5574479044128421 3.8421679340897463 3.4235842341230422 1.6206264863724735 0.07666001185690023 -1.651625248746833
Ni 3.61453601611869 0.27068165277338 7.534978073687183 -0.6516604944056131 0.6869769103187201 -0.6277397219239575
Ni 5.889502759628902 7.2972855330924284 4.597755255388002 1.4416867052080395 0.6369679253904449 0.11124906268567937
Ni 4.455807684243433 5.206982682438053 10.673758027853074 -1.8512670383453085 1.111663245859492 0.08569666813787177
Ni 7.640128109880621 5.12610887604086 6.399377781502701 -3.402759131813965 0.07511400752601902 1.1154893044738015
Ni 6.182962631268281 9.417839751811531 8.020885859868844 1.1282622878687536 0.94742708945382 0.44783294886056424
Ni 5.748962097809416 7.686270603299435 9.445344923036105 -0.964070611547772 -1.0508959939734481 0.9134394196544655
Ni 0.604693009011662 6.6745825820128 1.1771877053451802 -2.077826478270235 -0.7423975531808699 -0.3096464383540925
Ni 5.4250348439899785 0.7252298245594744 6.03596032982491 1.0757181952234507 0.6429179723262928 -1.3014183724718749
Ni 8.128930485207748 7.64031594824178 2.0477584010435703 -0.5362354459653733 0.09191179580964816 2.7397006799840558
Ni 2.5589313859929805 6.719072097853411 6.660771766508552 -2.0820155766509174 -0.15012131427084469 1.0006098441243865
Ni 5.267870487207882 3.0666021246985737 1.3441309272092359 0.5216200100450435 1.6776957205816398 -1.1752458557071437
P 4.502504300827667 6.473858509277833 7.820083834213996 -0.507294594561307 0.14318422083137922 0.3030795837698522
P 0.6426025470608584 7.105014186609636 9.128994129514032 -0.4213801539856743 -0.16234022493453976 1.4597913852285502
P 6.992038804290296 9.099594608417165 3.6603460356382524 -0.16004114448771792 0.1019072164594632 -0.2311951389247244
P 6.6958928440863374 0.1251905109455373 10.314945433599107 0.17119047623631808 -0.07596401423114015 -0.1233620438991295
P 7.299802567131965 4.60449113901918 8.591689071760122 1.2953256293105755 -2.568001896652752 -1.4545761595761981
P 0.9643903219466904 2.0150735870100234 2.1808061906364062 1.2360881838054971 0.3885764771920921 1.6200533874778227
P 0.21736561234188725 8.934240499088519 0.8333308014067268 0.6529483599791013 0.0922817775545572 -0.9882479801249239
P 3.1838508297342902 1.6179926834370453 13.133320103217297 -0.1892321642293773 -0.8929443850249073 0.6072179478215219
Ni 1.40725682605228 0.12357979699859517 8.553503411320023 0.9925854311580131 1.0656764947167323 -0.39849579318833306
Ni 8.050620672440383 1.3540140425816392 11.637931396492625 -0.6482920921540125 0.381184298493079 -0.30584403388886683
Ni 2.9576840509802778 4.540466433617987 7.143215813310435 -0.8559251274880807 -1.4669601350628478 0.6791409592140691
Ni 8.337994581178195 3.7174714380340586 4.800701455935485 -1.4298755715057243 -1.6784683370816063 1.7393155502759656
Ni 8.448227523424608 7.9861357630543495 4.902491063847781 0.3522514175088127 1.7729751473119402 0.6334455140594832
Ni 3.8133817052420635 1.981863764757036 4.916979036644008 -0.28162501344050206 0.686942714646675 -0.05277009261318009
Ni 4.6224015267557315 6.7490417083763985 13.569632926902036 -3.573035580876446 0.25211543401715936 -1.3345737761779208
Ni 4.197821087109013 9.275984221463927 12.198150855924373 -1.9560333215201213 -0.904140767961359 -3.7547356983948372
Ni 3.5942025135231823 1.553639260903824 1.7666385705405603 -1.1439732708461074 -0.3111739307422125 0.42655681309060733
Ni 8.790459625539032 1.8388718123244194 0.8429509430735069 -0.41999278671984447 -0.4497157677055738 -0.9460363797538804
Ni 5.877866173155075 5.02119175941526 13.039654504425148 0.6239648282625576 -0.508994093750917 -0.07577658081068239
Ni 9.078631847311772 9.255744638048998 10.105236112858078 -0.6636721741545086 -1.131208257870955 -0.7130011022966236
Ni 2.3610906321018104 7.737259326436162 4.248455734934954 0.164488124515478 -0.47751787751950664 -0.7170994407357133
Ni 4.07175337101686 8.028615408430555 5.830058492664583 1.5085832099202727 0.991517652015131 0.29741570061585554
Ni 4.706158651996722 9.279891259376043 0.46288631663796154 1.2546512915196653 0.3176302278905175 2.9832126886029204
Ni 2.973809974285815 7.608571265205837 9.084704661528056 0.8278206559423807 0.7700184002219319 0.5797631940446789
Ni 7.779795323320716 6.037932632617084 3.7946852139640597 1.1188931879490278 -1.5449836029261779 0.13061306903458797
Ni 1.0840903175955376 2.756002002603397 12.543986636997642 -1.1019848422294634 -1.8282168413940643 0.29160655013324616
Ni 7.680006193954768 5.479000805151082 1.3705034331160197 0.5788748779024546 1.146254096460484 -2.8782054930618948
Ni 5.745411952783503 1.6308314354222921 12.794177942143948 -1.222015764872831 -1.1074183545402088 0.4063818808046291
Ni 0.041839116564651564 5.928300773126383 5.54887010115975 2.778752651680195 0.24498936449533937 -0.9295815766319668
Ni 5.902040970236294 5.5159580027092 2.5522650025554325 -2.0049642428928696 -1.1187821162924603 0.25236560235475247
Ni 5.1909976379033855 4.2867907268721765 8.18299318312485 0.6653120237507768 1.2500176494023956 0.29042949910600946
Ni 2.639044447027478 6.7736485336882835 1.5060137836236562 1.4715328420351947 0.7070199450125243 1.5160741189806795
P 0.8501686321010581 2.629117189640202 9.846990298785258 1.7720580348143096 -1.311244100313045 0.16344605640420884
P 1.3323281037857833 3.4284257678819263 5.69180100612499 -0.4337168211741562 0.14908747368969164 -1.1195441912694655
P 6.426429323085077 7.351514467959156 0.4538785280285611 1.4239196110326058 -1.2888168816577803 0.9179722745278126
P 5.630548794934511 3.3754365661988515 11.602645960348827 -0.6798050751606293 0.181661550970971 -0.3453207518272504
P 6.603927182462681 1.466886113802341 1.36137261038006 -0.2614606226774852 1.2209536421569038 0.3637259938073155
P 3.9142696890207938 2.533188138596081 7.235644496494349 -0.8989432829208196 -1.3885905967140084 0.8648756518131492
P 4.224832243443738 6.227330052174137 3.6903673017105585 -1.4633773028075958 -0.41943408600289706 1.3914465781055647
P 6.115171766725841 4.135054898727589 4.337956018068394 1.4678690200303621 1.733391471482047 -2.4821630465100606
