# total energy = -340872.4940936279 ev
CRYSTAL
PRIMVEC
9.23018533959194 0.00000000000000 0.00000000000000
0.00000000000000 9.23018533959194 0.00000000000000
0.00000000000000 0.00000000000000 13.50930924592315
PRIMCOORD
 96 1
Ni 1.1416908250315791 0.3255467823907866 9.504514506902364 -0.5774294037051797 0.41273327694395373 0.2903420815985258
Ni 3.1388167446316935 5.446575313540269 9.312817407681981 0.7929292433818343 -1.964305588831243 0.4195834670965677
Ni 4.093947068450264 0.5902361853709395 7.885681262439015 0.04540362494577987 0.5670544882287589 0.2739487278421669
Ni 0.4854089732060799 0.18101315996874712 0.48856661952831276 -0.09487910596808823 -1.1382633649455236 -0.5713826832904676
Ni 0.47623047714402683 5.546445916307177 11.239393330499416 -0.10264486595643613 0.8210753667987472 -0.5275392037429559
Ni 6.832755281463703 0.6099509377230503 8.1007898031435 -0.10926468526579892 0.1780643205380159 0.6085685483121455
Ni 3.165861186970607 -0.004119431609507513 10.844124498929295 -0.06331547222919418 0.33960261839655065 -1.0172029725963772
Ni 3.9620661837613924 5.934482897852542 12.850419684406365 0.11895980106637578 0.22766141473985307 0.3554521838342975
Ni 2.070552042059519 1.9245951250952746 6.7559241437214235 0.5255257728573531 0.08189040701790413 0.44773601827138376
Ni 4.277360076544649 0.16771800135271614 1.4290957135393996 -0.171866162147104 -0.9361098646687877 0.4370821381019634
Ni 7.146443122039802 8.420947080455212 3.857961695089754 0.7473551542964614 -1.264108323167507 1.0735800658345251
Ni 3.1478438656581296 4.097343776566551 1.012196866209207 -0.6986342920519903 -0.6578799929527638 0.3310889244985846
Ni 1.4313340334258111 8.788742266079334 5.7332833230731435 0.6260638768834313 0.1285631284840947 0.37444980798272287
Ni 7.5414396631495135 7.230317814030827 1.8834811116105574 0.5980370526532024 -0.8043696240082922 -0.3442789408262974
Ni 3.9734470019879726 7.51545669209694 8.737861793741782 0.27176791814076423 -0.20903351522602065 0.8290771540573011
Ni 3.6350130351625136 6.3734335804018105 2.1716216458707365 -0.1722546558347743 -0.2494923945720155 -0.6375631357722826
Ni 6.701760494544297 6.491053829113338 5.8198375377982945 -0.14186858734374921 -0.25407487173637533 -0.29565218095752954
Ni 3.6829546165646687 1.1152186541687794 4.717653751025766 -1.0143647318166338 0.6362773270813235 0.6500697528797256
Ni 4.051728201809244 2.310869141286805 2.613267542468799 0.714373300053802 0.5485451165706617 -0.6508819643683759
Ni 6.544958110089192 5.594572101411305 13.00243990996188 0.12688908321578146 -0.24920160280447404 1.2159780433191831
Ni 5.3368099523476555 4.678956199999863 1.3757747802617768 0.3361416564311437 0.24631116863055644 0.36341900408985794
Ni 8.6830843372556 4.03858441822883 13.083170800908324 0.22868188558456748 2.244334718539535 -0.10485472912356135
Ni 9.091049288428852 7.004953614663282 5.78552340167572 -0.12625042119051805 -0.055566938632026885 -2.0957776634320164
Ni 7.718908432040396 2.626929139433245 9.506055024795321 -1.0334595436645555 -0.8248734003885988 0.8131144600804576
P 4.294149783239011 7.202064217443997 11.000913961125264 -0.42042113250651464 0.49383846905640116 -0.6720310876421652
P 2.5208835428353695 4.8424596988365565 11.552040006196393 -0.12179341386042894 -1.4169156689109468 -0.3826372288895217
P 1.018292480448326 3.3368503659222686 1.7511710233146007 0.8106346310813974 1.124969990270727 -1.5224296288850618
P 5.628733016461243 4.469144862523468 8.213133155034154 0.3902803472570762 0.08815669964259011 1.034622453624405
P 4.574082836909511 2.121991863614046 0.07441375226495535 -0.3633799233218064 0.025435923574601355 0.5764426143118782
P 1.2701103903084738 1.0022688791171472 11.787506643154362 -1.3789114217530316 -0.04979404070399167 -1.6930711745964455
P 4.446447837365998 4.196909783225205 3.4501961159146313 -0.041274690379070854 0.9886153907666716 -0.15997043915078257
P 7.201418104487094 0.10186709180373688 11.341970223537237 -0.029633249485400578 -0.3372737131530578 1.0537524895856367
Ni 6.555258996659235 3.2091507550830656 13.473698086393291 -1.066935306824498 -0.34154920059996013 -0.11265545611490277
Ni 1.481472398881435 5.644045893539829 13.521872268459932 -0.3946478801971526 -1.0590067960060408 -0.3797735341884814
Ni 5.653682206782772 0.7983131710673069 3.423097215483636 -0.17760126485866834 -0.2076448624086101 0.11775575345594558
Ni 9.024315050165937 2.7810732305799526 6.157678003721914 1.353840851937649 0.1482716626566156 -0.20994445707606427
Ni 1.146628974059333 6.415837050744803 2.2010447069095602 -1.1645061006921362 0.3287219669283048 1.120913046592534
Ni 8.664383982245825 2.165484495798674 1.0517269799310036 -0.8145236817231586 0.40535523931232775 1.3341575145761086
Ni 0.5230505910567018 7.335514233599631 8.00225296212334 -0.43511370152168294 0.20064580538295768 -0.10308555303828051
Ni 2.7811655324309386 0.7667856278260011 13.128197489856339 0.1535197984294324 -0.5903371129057833 1.921035208178382
Ni 2.7001429676353816 2.115392281268543 9.183601277431077 0.04988042977021087 0.7160638003823474 -0.5077694773151965
Ni 0.3810838831105845 3.307009177498478 10.914535119916986 0.8999390711751857 -1.1477926445921973 -1.1292261944439197
Ni 8.171501328165405 8.391678163507533 9.56634659385941 0.05280583094712196 0.2964893321468442 0.6583602750232919
Ni 4.890068993575162 4.398293961706574 11.302603484091684 -0.2658926903069098 0.3243469777890608 -0.37931047850913385
Ni -0.043173267780216094 7.720616016283638 11.792599859291771 -1.2762763259886085 1.2274490200732602 -0.08287616796994114
Ni 6.396656726109902 1.0517888221711642 5.933139905920694 -1.8745784593777393 -0.5489410664574998 -0.6063170332738074
Ni 8.548628230924217 5.18265663101585 7.181548285025326 -1.3649536740213588 0.1487444885279761 1.3229819575752635
Ni 8.541281003585727 0.6981315110625754 5.1552466733470315 0.47263123885116676 -0.9458484321127903 -1.0494559190928119
Ni 8.471953083310105 1.8150605185301265 12.35789700754479 -1.0076158431285742 -1.7399989494962356 -1.8280823726987292
Ni 5.591581521439357 2.144716579326812 11.511687482982309 1.2416301966696486 -1.063691860186536 -1.5394986685522067
Ni 1.2596895113321485 4.771765711166339 5.919036183090025 -0.8741663330864559 -0.381506200608872 0.3639414522522313
Ni 2.1263669713507847 7.573376103590689 12.42578132687099 1.1259081858142803 0.8909823762025301 0.7980452244521611
Ni 3.288853403409522 3.8702627627706647 5.371233927672903 0.8268012135389308 -0.16416467973778825 -0.33661988161914286
Ni 5.211057910564258 8.02957800208925 6.916050317830536 -0.15663186169585283 0.8444340961293457 -2.4877330843986702
Ni 9.217539745020138 2.4235973918960703 3.472149188153154 -0.4875312958914508 0.229186850245444 0.30179531774078994
Ni 6.84051786713163 5.838848950045892 10.768053928439139 -0.14519173817971123 0.6699556931703753 -0.8193900086765242
P 7.203070307619745 2.4733757801328484 4.6203999057343115 -0.00957530239326093 0.8254794094037139 -0.6463367681998546
P 5.495061475863242 2.0189183866179214 9.06802920679293 -1.0316682560920878 0.14168218236455601 0.29850790523876974
P 1.82621981231434 6.305213282338021 4.414990443531441 -1.1769456120070698 -0.3440714528011817 -0.22193531088935325
P 5.038268845518368 7.146018533525266 0.7596525407817989 1.81339186056609 0.9261504394632307 -0.08250901443850951
P 8.59428072642192 6.359957510157847 13.585231028032286 0.5716325945177445 -0.10125132804301917 -0.24915378028567411
P 2.342104087660485 8.501803501918992 7.8050703638988566 -0.49903106900093414 0.9153723750111203 0.05739422164875277
P 2.1433689723024156 8.268455192441154 1.4058458002945227 0.3977365464248053 0.44627486034482494 -0.4552927475727191
P 8.417559602524022 6.169991070643453 3.6814620956342243 -0.9604985779257973 1.7376163081966718 -0.6593758607719999
Ni 2.425295745954214 6.6675257380135715 6.4772140895764885 0.418540370544034 0.7782441305658339 1.3875053340696297
Ni 5.823619144633194 4.2168377528530945 5.244367802548104 -0.492008614936514 -0.6704940821723485 0.057379566360733436
Ni 0.5744904126112288 9.118915217241542 3.094644770823808 -1.3303525390077218 -0.5642026206022606 0.17998313482728356
Ni 1.794541817055927 4.176732598599655 3.522444466755454 0.49987439083783597 0.56794434703288 -0.05435723459464187
Ni 2.6199788100539956 8.153723991665492 3.6181577941539507 0.9234628653287387 0.27423849116844384 -0.2570257268345832
Ni 3.9543589792040574 6.286245251960386 4.613252973412462 0.9032560513635606 -0.4995373192133913 0.025636212510865525
Ni 6.574310098702756 2.7473553644147475 2.3389750549120576 -0.11602514391808405 -0.2252152671922057 1.1870806435585426
Ni 9.093532208220378 0.6966611425763676 7.382418342196703 0.558284969566245 -0.830528541791847 1.3111937066910837
Ni 8.144456885826493 4.575864262633542 4.974019373083996 -0.12805507849942463 -0.5308461566290018 -0.9053314458353505
Ni 1.5788877724121142 2.813323497314479 13.113378427680528 -0.6773468434281238 1.0374334407106391 0.4037367298722982
Ni 6.010041193069723 5.778797365794366 3.4407804040955443 0.9802022270023119 0.7551728505686672 -0.47013444057124193
Ni 5.548928836098702 9.028865531419548 9.886760470316862 -0.19389126026794348 0.02131238832453104 1.3381501806752696
Ni 8.089352680787819 4.5987366613078855 2.1302288807960412 0.8667083341465137 0.27177306034708676 -0.4461316498987414
Ni 6.409523604137358 7.091560441443495 8.566158198463489 0.6861546715277408 -1.357880055004029 -0.0675433942676127
Ni 4.6917492365465305 2.611117832359334 6.717989929003175 -0.3077942156367022 -0.006178103786253876 1.2355675354153366
Ni 6.597542474595946 0.8219969030118182 0.6054687598391677 -0.895424985354916 0.6820565901989672 -0.7701294718784994
Ni 2.0503194763233763 1.3612492379721017 2.085269572199245 0.00783800798718005 0.4792909102595294 -0.03521614288981677
Ni 3.2580615059205744 2.495482073444008 11.375067821263816 -0.4557624881202861 0.8469766600455414 0.7126797144014629
Ni 4.809203341926282 9.275136100035434 12.53967811891374 2.263806968331534 -1.4396185098251013 -0.47338122964331375
Ni 7.036502387330315 3.233684587075158 7.21256632204919 -0.2485562559109913 -0.4411593934951305 0.16760815820169844
Ni 7.041348234507082 7.934700929460688 13.208294267086504 -0.40446152385346473 0.36012182139582494 -1.1059685094675598
Ni 0.8786591632951359 4.890068993575162 8.820538407707009 0.6845940119088403 -0.7208491375861328 0.09392008448892858
Ni 1.9328469105734278 7.333640506024614 9.958927595528817 -0.9795463385858678 -0.25584481915260454 0.7304781760354645
Ni 4.566292560686288 5.625207085753575 6.874616939941407 -0.32897316370716245 0.12380967295950936 0.6086580227021583
P 7.495805628022009 8.36868577242691 6.653685998476722 0.40380049323069817 -0.23700968872397243 -0.5728965488318327
P 2.905486895524052 3.8513778040589184 7.650956732362975 -0.17275679228217344 0.560250577933048 -0.17507052801701461
P 7.934304031501449 0.3625792080249007 2.0949021933681493 0.0604800596629281 -0.983831596224783 1.251352566163735
P 1.4668702460554415 1.4832076736799726 4.737539261802201 -0.052546920858780474 0.017237189813892898 -0.7460806584594118
P 8.345721071901579 6.178833587967917 9.28874416192631 0.8411734231002028 -0.1026798329594296 0.04180048097555382
P 0.2442334667646239 2.6841562870445976 8.330785709393526 0.84042780318343 0.43626144197288086 -0.13536755300043782
P 4.482990140171376 8.37423311367117 4.799343658203952 1.8331181353504236 0.2545646668886003 -0.1220708358915317
P 7.161294489863457 3.785289678752905 11.319436572656011 0.5645497195290341 -0.13009756285075016 0.722393085034485
