# total energy = -340860.321127451 ev
CRYSTAL
PRIMVEC
9.35378447264361 0.00000000000000 0.00000000000000

0.00000000000000 9.35378447264361 0.00000000000000

0.00000000000000 0.00000000000000 13.69020907073708

PRIMCOORD
 96 1
Ni 8.171447422880304 0.16475007697897132 5.262748764331142 -1.027803888040675 2.4692684499355795 -0.21226410634817633
Ni 5.864448723839839 3.822227602357327 13.054846909571037 0.33192761834979606 -0.10368513429549239 -0.9259565782848699
Ni 8.322894547557622 2.6001930738789873 2.8257820359377073 -1.7013953781914248 -0.7018034338085913 1.1195958704430071
Ni 8.756330213254461 0.39755641915016204 8.980982861485733 0.07484635568692917 0.29636386231257345 -0.7540899019171335
Ni 0.5785717919787651 6.103830776507488 3.3627397760989863 0.21657481790838828 0.5422348580819178 -0.08014874173644905
Ni 3.286704732736811 3.399689095591318 7.2715955827533945 1.3212099532765051 -0.6120914738637394 0.641044923673296
Ni 1.2679522565396668 4.989196401543135 11.563312077745751 0.30942532348222196 -0.08586841782904565 1.5666029809681663
Ni 3.2924292488446807 2.276421177542711 4.440802724464403 -0.8448043349845709 -0.975731592825468 1.0843339619169197
Ni 7.706274366408953 7.1863910244556894 2.8862935385603063 -0.13973482883019805 0.829814546443958 -1.1389583341300191
Ni 4.828367431022365 1.620992144545101 8.455497538001419 -0.5683469817879373 -1.0342910384269155 0.3695477426954152
Ni 8.8617193031031 6.183132161413566 10.491984789591571 0.8212489162621339 -0.5596422549250878 -1.515391748201674
Ni 8.41238220377329 7.3125081007341315 5.202033349206661 -0.19077919700152304 -2.8390977284271552 0.6008439259743781
Ni 7.520227592903188 2.15460684212966 10.181641186269115 -2.135967348277025 -1.4555084415824804 0.47351209879422324
Ni 1.6005728330034676 6.230948707726359 0.3229150896769945 -1.016287145650327 1.6437443033368593 -0.30690538527384564
Ni 6.611544844839283 5.704302579586837 0.7784182037426023 -0.17936221341383302 0.5863465036891514 0.5983913506688275
Ni 0.43892166030021457 1.6231622225467768 1.2626683036812751 -0.07573544316010182 -1.905631214918486 1.4077000638499497
Ni 1.6017888249871655 8.150204978303552 1.8768321810228752 -0.07410253554236916 0.138664992804787 0.438615029806722
Ni 3.051391576322305 2.183294899160438 2.1633956580364484 0.031324778255210566 0.40936024670666277 0.6336620009456635
Ni 5.98056660449849 4.093272215523569 10.38034082405448 1.0272883818568375 0.3630001713848845 -0.5464936333582716
Ni 2.668700191483624 7.813992548595598 7.439095672372421 -0.39388040590350876 1.3988711527044102 -1.1254705840562294
Ni 3.974684935759562 5.252477373582691 14.025619143701 0.14115587754744077 -1.6124778891234102 -1.3274461639942041
Ni 6.636650402410399 0.46668836955872955 12.295970632384908 0.07943603194014061 1.1556802748703903 -1.1707070872965255
Ni 5.179480439422862 2.3075786336788444 6.007496150045151 0.11993347783355474 0.31059491831029085 -0.029740464487226198
Ni 4.52571638006447 8.358345390774659 10.117159937508966 0.08804408532412578 1.9158158687609717 0.42553814201810586
P 6.819975224629578 6.590573660012741 6.506614090430653 -1.1823133040768865 -0.11426830912797739 0.615373744159437
P 6.597673182440639 9.341615216361687 10.036784738143439 -1.0608860153066244 0.5993156622553099 -0.6193250154977011
P 3.376800384944329 6.011602461436254 8.14727630837974 0.9670286657348314 -0.544610557402946 -1.0615835555942814
P 7.45751046789785 3.6779735379528065 1.0765214446814673 -0.5589899660530695 0.39509190971310665 -0.6926749891447619
P 6.806150331153383 3.1978718414354415 4.56653348944341 0.024275327607596903 0.40779881575681376 -0.9658876101518526
P 2.5171969440993673 6.83618533315072 11.818100748846852 -0.32624368059114134 -0.5900149536796742 -0.05372397188601716
P 3.644019300254168 0.29012165663356254 6.7216323406372425 1.0262193171623744 1.0021599622203259 0.006811623605194721
P 0.9968702282354648 2.9415407312719424 3.428397730947974 1.5894266637309014 0.3980468785763725 0.27479256389970097
Ni 0.5035572465044472 8.670350226222535 6.920866079516985 -5.2525012488743155 -5.732033071500058 3.178707288802242
Ni 6.9149161372029075 5.355743154352105 8.405624094479277 -1.1266005838956146 0.28500858520075434 1.6581568792177637
Ni 2.361175818806448 7.434462742914532 9.74636095427085 -1.5243733828749941 -0.23529476291539478 0.5227206993083902
Ni 1.1003324384791686 2.602017061854534 13.161958966522732 1.6243674414721445 1.0325131205908862 -2.4255920920935514
Ni 8.686925132338786 5.191443929785551 13.014405822328595 -0.030289909232792993 0.869541946940567 1.2594474273567278
Ni 7.976514554109055 0.32889683485833876 2.4432917574655613 0.21807094283794057 -0.6551366258796717 1.019309991637051
Ni 5.595003607821384 1.7928398731950714 3.501613543664868 0.19664414042273232 -1.7054091273365082 -0.11703610168110165
Ni 7.203798417391548 8.087356900315356 8.188141122059577 0.763722282800575 0.25477061225181924 -0.8792571173458018
Ni 1.7014066298054862 4.995173469832235 7.723016705267574 -1.7010392804035865 -0.0724652570492623 -2.2835880076132025
Ni 6.168746040867971 5.75798394877485 4.6048802643385445 0.560522343537196 -0.03303610451936246 -0.10580886550671453
Ni 1.5682929227285358 0.9908838061618755 7.885615411813848 2.7512953268001907 1.9741382586509488 2.4897827678388476
Ni 8.364097968235997 8.400493543686522 10.818783570588806 0.9691912206037889 1.5159219096735312 -0.4044275852917358
Ni 7.884155286054962 4.884518199315734 3.140657547845561 -1.1033562686556933 -0.3042581774589857 0.2624618102484899
Ni 9.233812850114631 3.433970715747106 7.584841665403093 -0.08973895652804545 -0.11780409019537776 0.3533212535342238
Ni 4.552599156688681 7.270425424313697 1.024500372240426 0.15185758023566104 3.4035386902924674 0.19020275567276276
Ni 1.7102459561485202 0.7798025638471198 3.3075543183649834 -2.472433735037439 0.2533539344099508 0.1082457570829813
Ni 0.10410855675196153 8.593424702576915 13.189818278247698 1.2235453141434798 -0.6009184879660554 -0.18856007786301718
Ni 8.978080382158492 3.44299711777994 5.161495917983972 0.08034928778302936 -0.10183702534316011 -0.5526804788952739
Ni 4.563131518024402 0.49936113878224075 0.35364975475418114 0.8309771992934915 -2.5246433271614586 0.4820296493469311
Ni 6.481040843635039 6.9898305971831824 10.143075532816914 -0.3115760512766376 -0.2644744698031445 0.3062739223374338
Ni 5.218785041849772 8.083839877347122 12.569624016045404 -1.1398163112549402 -1.0486133685868586 -0.8930480004823071
Ni 1.985696201809544 4.172713907196996 5.376966891359877 1.2548040150474453 -0.8800744710407747 -0.822598488311493
Ni 5.39194230032834 7.885315155331719 4.397596658526721 -0.43295654596936406 1.7205819784222045 -0.7155290109247999
Ni 3.9589051013249605 5.697577208538539 6.027498282798531 0.24675725502903953 -0.14868046805926005 1.023509117320063
P 2.380566214054183 1.056126452979508 0.27229708490945065 -0.29992895395601243 -1.7266017022537232 0.48545975807440267
P 8.581189952464017 1.1031105124726934 13.039240120149499 -0.20671335173327623 1.5286324152616642 0.07454579372737484
P 4.833240752741647 1.9367197862199925 11.9154511963048 1.2728076507137176 -0.23519063323736267 1.0626338512356668
P 5.878077187841745 8.97291709312002 2.1849570666643086 -0.752525385643491 0.7385882067371086 1.638504909314791
P 8.35752225773954 4.157224040081584 10.076541128361214 -0.17387753615017795 0.08123760392525363 -0.6937232279036182
P 0.6023500475307514 5.635533556016481 5.5403045468808605 -1.0937352006261616 0.3739366157917302 0.49432697865704545
P 5.6897013219979735 3.5317458250209 7.996711245579828 -0.2162626859846082 -0.1942959519055299 0.37431379662549086
P 2.8711067340623697 1.9672786001487674 9.543801009626469 -0.7761142287070246 0.8982010054381564 0.09950683454808669
Ni 6.146119236186702 0.19949938635925873 6.514841679268042 -1.2584734934792325 -1.0918271849701713 -0.16601767378612697
Ni 2.7712924997697597 8.343379335590685 13.297396153666993 -0.37192292779581104 0.2806945312064327 -0.2492607381771836
Ni 5.298095780540339 3.4587769522145417 1.9138909397937394 0.19063855765860072 1.6183346050145033 -0.4881655870413399
Ni 6.986856093715368 8.365276545081736 0.5752287494020452 0.8641953379166729 -0.36411860126004386 -1.152082787327119
Ni 2.8278361270117074 1.0515243910104364 11.551893913018828 1.0505512090395197 -0.12418402557979258 0.3220532966588776
Ni 7.016189561875954 4.193133218738629 6.419639796107443 -0.03106458261528844 -0.1970452325158929 -0.11496096431962782
Ni 5.041007013833153 7.3470048579331895 7.990153307273901 0.21531574869030662 7.147666788374786e-05 -1.4495545379918906
Ni 4.70325120968435 4.040245611249854 4.129582671535235 0.15050132331808272 0.24940497706453177 0.4846478036960686
Ni 0.1257812754152525 4.212224292882684 1.5402858212086283 2.407970779467363 0.4127800710214891 -0.5337093371094098
Ni 3.9416660765099216 3.7694535502648416 11.294381419874245 -1.0173423263877188 -0.18030503694307656 0.8037749278470866
Ni 7.517851731642732 6.994086569126124 12.187626682015882 -1.0975489179452969 -0.4708018989519117 3.1901890641895965
Ni 0.34333253046172973 2.3611571112374676 9.69895223296182 2.672981067169319 2.878781420170023 -1.330499348998231
Ni 7.341785446187779 1.8161962730665595 7.762403620997994 -1.3353237669700682 0.9419197864823454 -0.4114058163817818
Ni 3.9121735940130047 2.549851005753898 0.2151884890843075 -0.1239582827222317 3.7208812117392367 -2.584422246992304
Ni 2.5024740873121334 4.724605899674982 9.74210311157101 -0.5314606502845491 -1.889589845184907 -0.044150212154653
Ni 0.5596191538451613 0.8269765051654517 11.134151091560833 -0.34244085917629413 -1.0015416119100364 2.007122941107085
Ni 8.964938314950066 5.804378719845167 7.512912933432021 -0.5034076008020749 1.5432478511819938 -0.7816531562473829
Ni 6.55220443603483 1.7079168638105144 0.7805611557692573 0.8823185298799449 -0.21592921390458944 0.26112123706019547
Ni 3.4879981749612483 6.254005786494167 3.86475926043328 0.9506108864984402 2.6311754439874426 0.3651928081608291
Ni 1.5880574693558702 0.34385073012247475 5.725970621357884 4.7301060512261435 4.030890946970019 -5.350095954001354
Ni 8.6402216863803 3.253667165918191 12.057460352431725 -1.1810838025451593 -1.4704534929280868 -0.9093577933859243
Ni 1.9219595142947987 7.388451477008304 5.049907139775371 -0.27296322400044604 0.15332465169949078 0.4568932592906195
Ni 2.653013894893922 4.587993877198778 2.9127974869126736 -2.0082652822416445 -2.7484758550735244 -2.031384384757611
Ni 4.351389898524654 6.02535252463653 9.90915141339917 1.6373854509983674 -0.9324010483586329 2.8109305219643206
P 9.669287640830287 8.572874438052422 4.087718873671866 0.5050361375444334 0.33743286443874143 -2.6125213192213654
P 5.543239764453818 6.004774198758566 12.129607027581413 0.16968612377664968 -1.4731364390768888 -0.07897863268774785
P 3.2559588431182367 8.828588198439581 3.5551012895139387 1.4637786520110725 -1.8671060622600941 0.5097273723725158
P 4.790260113010174 5.716556037268716 2.3080734488783645 1.1558227139855255 -2.1393702033109867 1.3836921309711265
P -0.08593883038016925 7.699034537213705 8.724428195872925 1.42404019577087 -1.463459578108757 1.8988419599107944
P -0.18015950154776955 1.4131136380397153 6.7503681019689195 -0.5271761639765824 1.0721983549956502 -0.4806890761586367
P 2.073490823032526 4.265596987182529 0.3447935915990651 0.4315666076003729 -1.3458956289486432 0.24161222049299036
P 8.754842961520554 6.988352699233765 0.6511515473503404 -0.433878286452685 -0.9721459323567386 1.3019001972042998
