# total energy = -340874.6648142915 ev
CRYSTAL
PRIMVEC
9.15045415944431 0.00000000000000 0.00000000000000

0.00000000000000 9.15045415944431 0.00000000000000

0.00000000000000 0.00000000000000 13.39261460443074

PRIMCOORD
 96 1
Ni 0.8292928325407102 2.2638406127451685 0.5769736395829262 0.15411475170095396 0.028788899207234292 0.307639949447025
Ni 8.075687397738033 5.8182521027709 6.23797153072146 0.7958680142951842 -0.6882550057001953 0.19034185235378834
Ni 7.462835743189534 1.4150994053395478 0.8578147975609067 -0.6660329610772013 0.04710569523855113 -0.11812624942148688
Ni 1.289765637331324 6.736124989909464 1.8842340298568598 1.2427218870719308 -0.7888347615974866 0.9241640051608213
Ni 1.698068043865233 5.9083657734538955 12.956055485586386 3.128035730589303 -0.49526774530376 0.20393681742940362
Ni 2.24217233774747 5.484260532916174 8.831116850798624 -0.11629125309527713 -1.0788027476860453 -0.7190069421710714
Ni 0.5762379430838489 3.5975009777639753 7.583835856198218 -0.6395629398111309 -0.011444494391515774 0.05176941926280761
Ni 9.09012502560747 1.0955106500314349 2.594818938108026 0.588924805939289 0.25078205991771646 -0.9174004611847427
Ni 4.569507950580911 0.13046625763922418 9.519764460705414 1.4002952867454466 0.5336625430318744 0.34570024665385624
Ni 1.491761908688668 6.94388604726704 6.881017853275618 -1.5261528433729201 -0.013248123259157828 -0.3244621632106864
Ni 6.172841344508994 7.408079426641296 8.401026298320028 -1.819026433144048 -0.39685080138574236 0.611543057559437
Ni 4.905430266223014 3.869251159724129 11.264863092833178 -0.04757723555833096 0.6647957462359907 0.5197042810795695
Ni 8.350484680869737 7.080566378196355 8.438713358035196 1.28185022053196 -1.6209023657416797 1.1041301707072404
Ni 3.6165979751964903 2.336321358630628 3.7653871018624847 -1.4538274543356318 -0.6921188595309758 0.8424129519342589
Ni 0.13796139448492292 4.148605368932208 12.560772344959034 -0.26228466124067734 -0.23540146369658813 0.7314168857996499
Ni 4.52035171186147 6.88947744796961 12.33828088680277 -1.4823710703012793 -2.070991971846904 -0.7455664378271547
Ni 6.946622033003659 5.033838586764696 8.780412355267693 1.445624092589233 -0.3023252221023309 0.8041107139199506
Ni 5.45732159643255 8.770078747600927 13.257268299234713 1.0593137857234982 0.6326227610478717 0.8127874157583421
Ni 0.7461810892345048 8.713144623008157 0.8823041575171315 -0.7230386890382838 0.45976338174956305 -1.1576975624107353
Ni 5.951656571179448 2.8102050687576554 9.433650453452104 -0.4021896971001525 -0.9198088135159191 -0.04404968202104672
Ni 3.0602961261740798 3.470456074863619 6.997774900779053 0.4619868717634431 -2.2360084580620265 0.5843891228524645
Ni 6.972801481807888 2.9789211390311183 12.39400715147168 0.7245481837042748 1.1098722153973402 1.288110342509059
Ni 5.064913528442138 8.685967774721348 6.890232360422021 -0.9114714972948174 0.5044681808561055 -1.3940665322269152
Ni 7.955898804834793 3.6504455044264255 10.35075012723032 0.7589189478746606 -0.8706398079904359 0.30184982512780917
P 0.22656615530849242 5.003111362338061 9.270220600436312 0.1406938503093577 -0.21116315997451376 -0.9772649987508588
P 7.063958304243306 8.629994447795283 10.122352051037309 -1.0909113580241212 -0.6954301832923959 1.1354433789982252
P 3.54857350039375 1.1405217331030895 11.38112418573151 1.3469001589537577 -0.11929533002892358 -1.0582082113641453
P 2.211765379209737 0.9886516485858602 2.1214037312241922 -2.415958939879162 0.41051904290145425 0.6054557137147767
P 3.820964214131708 4.337040667508053 5.035475602979682 0.8432285058570187 -0.031204964847894645 0.16273617482137778
P 3.5606337987243943 4.654881686108159 12.873088319452886 1.1894895101103513 2.1699308497066627 0.826577270453583
P 6.693602830317275 5.515994307279358 2.55780169162336 -0.5017919195755229 0.00881297030593966 -0.1565066489718982
P 6.033644638738307 5.628819404712475 7.0748491745567605 -1.2934888332121528 1.4348421714823805 -2.4377564953702278
Ni 6.162592836064137 6.4648323306477415 10.653610022592996 0.3153704853220633 0.10601095421519162 0.1492715646760397
Ni 9.002802243384904 0.552487939808289 4.750600924892333 -0.8363700881742886 -0.721639237587596 -0.721495770031196
Ni 8.684979525692736 5.886972012075255 10.987889831747731 0.22315092846400922 1.8498889270508592 0.5387772385506205
Ni 2.3348023832718368 4.527470765049059 11.057263998510845 -0.12418016892505064 0.7421787523018444 -1.230619704491758
Ni 1.537806993058777 4.696214286684428 5.739056753763265 -1.0450158810435872 0.437969168692607 -1.739639766384604
Ni 6.968610573890258 2.572778239633805 4.0018869899993135 -0.08139932631409852 -1.4931964430515574 -1.382005230187007
Ni 6.704135002835159 0.7553489290656678 8.436543785399236 -2.1454614038103887 -1.0268384388036123 -1.1993355496664957
Ni 2.6091970464289225 4.45664625133192 3.268989614791058 -2.8268572204969056 -0.23325819210134022 -0.18622834440604702
Ni 3.3190984157686327 7.547184627872296 8.315086149692121 0.10390599205704686 0.9644323657625649 -0.33470749508777836
Ni 2.745493058291556 0.5579910228250187 0.09307018236025733 1.0798571570924886 -0.714963368229317 -0.8326265619714563
Ni 1.0662841000556544 2.710465120499669 9.825933160223144 -0.052661592059773825 0.5558748174628556 0.23756607544807473
Ni 5.25549918370061 4.076344233941995 0.8369343766499068 1.4781770868245898 1.6480110490330133 -2.3258901108155237
Ni 4.841459442528374 4.256635628485767 3.001338836208847 2.0471596453139966 -0.11996741639528372 1.7167142679366822
Ni 2.7993434798969 2.831635431952169 12.542237185400191 -1.5653338844477558 -2.200794629165055 -1.1349803233188778
Ni 4.876542283044073 7.512916177759805 2.7228118280395313 0.8464616680823357 -0.17020805771839073 -0.9263540708336047
Ni 4.4297347662102 -0.023434312613642476 4.403826170843442 0.8298538843223257 -0.5891842302482628 -0.03928259964970655
Ni 3.301099472812352 2.791483239937853 1.4586162192781265 -1.4324867838763264 1.997186912940296 0.17837311002768635
Ni 1.0147578937583404 7.501020587600595 9.786826865097442 0.9004666615438814 -0.31559699951057263 0.2813159668405155
Ni 4.983547691753146 6.544221669279511 5.0623147995150495 -0.7311134956266183 0.31936083742837906 0.5036438851825972
Ni 7.818083817613369 8.402129843068645 6.727204212335454 0.05178047500640114 0.41689537874144333 -1.5293520670365082
Ni 2.8493049585655794 6.746007480195576 3.7864807283509534 -0.13898406670710256 -0.577539961141115 -0.0829306753569604
Ni 2.6909746535465024 0.7975956599934014 6.054546105693435 0.6306800354992042 0.14327369522139194 1.144772626818951
Ni 2.9782257045295033 8.157400951677833 10.955466113155316 0.5279269260996778 -0.4314992446975472 0.14603557423724525
Ni 8.792067288487527 5.494280280011817 3.407750758952839 0.07829523346747806 0.01337385020374471 -0.09588774973826067
P 6.551029607032166 0.2732792228183108 5.201516995558118 -0.6358096434162857 -1.0231771879019411 -0.8691082018372581
P 9.033355609186136 2.0911806968112283 11.908953482185156 -1.2380311664644807 0.8430253887072772 0.17949848188138118
P 1.0509479392042427 7.6416173128284814 11.910600563899507 -1.2193765274777708 0.5705936117302689 1.1352376907453223
P 0.06596196247821287 7.1412338880083235 4.945222845396365 0.3320759710022023 0.5158895353191696 0.718336398466608
P 1.0597872777379322 4.642135103729868 1.4321256550389638 -0.9573008969241062 -1.0228375451743352 0.12006280432256743
P 7.620827481411772 8.422453001332954 0.8954112677817865 -0.3622105856040536 -1.457021535792897 0.8358700086094185
P 3.1453404453584577 7.740405613873731 5.671129273772592 0.8405504448042234 0.29146899611411736 0.7609346927531089
P 7.0474966375537536 5.219016323727711 12.249608412619832 -0.3191150399661601 -0.3783681692005226 1.0622780105581446
Ni 5.944171499833115 1.2275150989827843 11.416494350501825 -1.136252762273398 -1.0658862967346934 -2.292824438609806
Ni 3.606925945351656 5.7005589638264755 6.761047166338404 0.39248815354167244 0.5641486274358736 0.08414886403477767
Ni 5.72311483285913 3.51994172992593 7.160923834858006 0.3046723821782688 -0.8603530813524473 -0.5291086051126049
Ni 4.94313013657374 1.9591853983138474 13.293268015238068 -0.12226006908420232 -0.2547698409208709 0.10243712082100424
Ni 8.621338118340967 0.9194742165830734 9.645534705367941 1.9071185980972896 -0.7819143803285694 1.3395334341760414
Ni 1.2866910847978668 0.6752156585262491 11.398306908193792 0.5845493025794126 -0.6483792525511801 -0.20859617057828592
Ni 7.811385685308337 0.16411796715423063 12.299308188305009 1.3080093954258312 -0.6404376291066003 -1.408540300363058
Ni 0.30439991676559625 1.1713313116154418 6.749971456854784 2.5022857854018645 0.8338498928555961 2.98374336429541
Ni 7.401664958409291 1.8306306705086686 6.330032418008978 -0.4961000113970681 1.7922751331921327 -0.5876762782441686
Ni 2.4014542899792835 0.5944079995293429 8.769925935019652 -0.8305833062891824 0.7403314146804605 -0.22286605023373873
Ni 0.3204479829357666 3.282798564875107 3.2603653119256317 1.3337224839212192 -0.6702220594578844 1.0607857422833344
Ni 4.553357399326292 4.631529727580235 8.80684893182844 -0.5151822248394998 0.5639956467977771 0.7848775767219515
Ni 6.147284126574631 6.478375002521302 0.5770688043041999 0.978502727812702 -0.14229076248283237 0.6433715149239436
Ni 4.318675706393028 0.8766976743705563 2.0543199230894262 1.7760931241156315 -2.9618810170046794 0.41303023935908223
Ni 3.382007786802913 2.6306091087154995 9.52935413646453 1.0718792810933346 -0.15069852693055338 0.496675424284564
Ni 2.0702536085849887 8.91050161420341 3.977285079459275 -1.2067449547566895 0.5048438190279693 -0.9760318976747061
Ni 6.7927388486133315 0.07143942422383036 3.020717667623596 -0.5250524327653603 0.620826282633576 -0.2960931251496901
Ni 7.9551576180633345 3.5729228584042545 1.5466728679089754 -0.5134174196295932 1.394140065777328 0.07838342230591017
Ni 5.05367677096867 1.9534114618596468 5.510042852018167 0.21272150560056913 0.4629770035908542 1.1375614537824925
Ni 8.892520972155065 7.973376171914863 3.063680879097073 0.21382553729802528 0.20514806412868541 -1.2705396806151474
Ni 3.600465724849809 5.76689060464502 1.66444744589372 -0.12105113637776573 0.26667302011636007 -2.1210212684901535
Ni 8.839649649124365 6.53001101426624 0.07583347221956294 -2.7970833316685826 0.9343864542197778 -0.013671583949821615
Ni 6.388599898635147 4.662760226975143 4.848059664975942 0.24325849784716166 -0.008423448177004848 0.7370763980782725
Ni 6.99955740921214 7.035143524696114 4.1339783682633655 0.0667214125869496 0.3854330464671039 0.2631161560030372
P 8.453033818496092 3.555390588600374 5.206365821116091 0.1362430136268557 1.6651371671903388 0.8447850517108613
P 0.7380582312465584 8.674172839555792 8.077648340023508 -0.9861278484581275 0.4663325503266485 -1.3347509251857337
P 1.6124563965348002 2.398681702426791 5.0722521925249735 -0.1868559506877169 0.07039423345284651 -0.07723388208249925
P 3.739817988337962 7.779908123656275 0.795778379835233 0.014097615743646687 0.18528912042122925 0.3916772276046029
P 4.0483712961599165 6.3895423953939146 9.893405862651578 0.06183091726386771 0.5285614743598833 1.544637789550985
P 4.395246705202462 1.4921279268474128 7.671972113778594 -0.48687000815836795 0.6430742953984989 0.5645885431867697
P 5.847991078168923 2.382604354803921 2.0177986312098595 0.6351648107434351 -0.11004450085461692 0.3647564919543589
P 7.921602903360396 2.455103401597318 8.351044688652618 0.3958557844623247 1.7501681767197537 0.12141726146793282
