# total energy = -340867.3469350613 ev
CRYSTAL
PRIMVEC
9.23983027423173 0.00000000000000 0.00000000000000
0.00000000000000 9.23983027423173 0.00000000000000
0.00000000000000 0.00000000000000 13.52342558269332
PRIMCOORD
 96 1
Ni 8.162660222030084 2.1066166550277896 5.216958859614842 -0.08092675755305416 0.13920132492423123 -0.8725174846291232
Ni 1.338953064772743 2.6378976638633365 10.021331571861321 0.4642106188876392 0.18159701628162275 -0.21441869079733394
Ni 5.6080411496663345 4.18204888241649 13.22035212484049 -0.19520766508652188 -1.0161696462358565 0.21804934557138575
Ni 5.668839233774543 7.925991205867825 7.395650811768176 0.8852105067157594 0.42870625533344237 0.7922422446171389
Ni 6.711008945727276 1.5028214571221479 10.69959887890127 0.6113486821604439 -3.589515837919657 0.42172031093391243
Ni 5.192701532835317 1.1593030420803563 12.5073837107068 0.10865533381657415 0.29525803084290436 0.8489312126687508
Ni 2.115468412562085 2.2877635302468526 2.11234534988297 -0.5936206687530616 0.3360526962617632 -0.7799369448872244
Ni 6.188561214765201 3.113471735147456 9.38821931604277 0.2813373069967542 1.9055486825070087 -2.578721339952785
Ni 2.445080882834446 4.325395611421771 3.3098310671561477 0.29002377902715853 -0.6725504504807449 -0.4407133070966474
Ni 3.689224047753947 1.9054747867980633 4.206163915807678 -0.5304985434815961 0.6898758291330699 -0.9917593357122919
Ni 7.02025682977251 5.537836918199135 11.127980516358233 -0.8059775919253603 0.4936260959352789 -0.7300824832589426
Ni 1.79231458374742 4.850079381343448 0.5853589642854122 -0.042597265845236314 -1.43747215290606 0.9446114743818959
Ni -0.042989234972925894 5.873824871455487 11.49626444885219 0.3603066837131214 0.7780487267255762 0.22967021763976572
Ni 2.0433607760301 5.39458258749797 10.965645935857152 -0.25485340177361265 0.7517003186390344 -1.549070114290726
Ni 8.068109037428366 1.4854043767963159 12.936482359003707 0.2456912756583704 -0.20885919443168546 0.022495095778722548
Ni 3.8820593084436608 5.494381995773465 1.681908774142469 0.5549245377344443 1.1709631691713898 -0.2020239166774069
Ni 2.0247609974115854 8.023637733657422 5.410073163182987 1.0532141005836637 -0.4379699400235554 0.7238642702633727
Ni 7.507214372123698 3.74496794462702 7.277780143173709 0.8751937459097057 -0.19676755337447402 -0.04769293520058883
Ni 0.48224338087519963 2.485616018850055 7.071480601608237 0.42030826107773417 -0.16291383804982268 -0.6581247619737182
Ni 4.73390699357863 6.2229611033875205 10.74130562541307 -0.2864538022877131 -0.3241037514300031 1.2152601913165522
Ni 9.073707500612057 0.8835439993788595 1.691766749208586 -0.8444963168258489 0.3876143703891389 1.6264688040858635
Ni 4.128023593999971 4.295430841397011 5.337060947253708 -0.657928329692196 0.7391088551272691 -1.625068324193911
Ni 9.174745046162705 9.027850222279376 5.859605696435104 0.05118500751424734 0.28007900910962086 -0.2169370863438135
Ni 3.181476886976699 9.155637076871553 7.730612219865802 1.7729460938462176 -0.20279216230199912 -1.2874619102917828
P 4.8512990389577775 9.361611376406538 3.5410005362574326 0.8530115533857114 -0.8504540770711805 0.6477768430804908
P 7.869840756456641 8.197531342003392 2.4546237796835277 -0.007622292431948163 -0.11052015493945481 0.06548188375289367
P 7.651836197725778 7.530406346456769 6.506864132613786 -0.5999944334898893 0.21996944541223407 -0.3053958906078547
P 3.5664913803969043 3.4052655795452123 0.7830275802634248 0.4539303200075537 0.7648736227961989 -0.03546965366151956
P 9.271153436677151 3.722903229604163 1.4235437121907752 -0.0017565776797905232 -0.2994407014656843 -1.349154502205573
P 0.34635319501206474 1.2992402736637638 11.345208005351484 0.3358701479373119 -0.2668645673018759 -0.5822144837986489
P 8.436343998821139 4.093411189278185 9.403040928005987 -0.7510061207854872 -0.19581367410163694 0.6861742119117666
P 5.7271425636716256 5.820880643197123 3.310994361804966 -0.3700815037116981 -1.4534191631536195 -1.714044691524319
Ni 5.126913940304854 4.318678254712551 7.41501564834477 1.9458661511791329 1.4028280804696291 1.4979175026763107
Ni 6.384214623730448 1.13146343305026 6.493530133346832 0.3584968841978923 1.80772952007399 0.0799296837471075
Ni 2.0383250684557876 1.2032938746698978 5.714756571004899 -0.03210433673371245 0.3067945707275942 0.04542573643296693
Ni 2.7508915499665716 -0.1349560390085239 2.9315949133258785 -1.789494999343834 1.8211342235156702 2.3398707413653312
Ni 6.3890562948661165 7.574600455315365 10.086731091514496 1.801901086317671 3.108748857335233 -0.17034998261289372
Ni 6.297868408534215 9.10912377057965 0.9481830809891629 0.27149152455092596 -0.9435830331173815 -1.1674335587515765
Ni 1.1156910425376898 6.0244248673338605 4.181294912254905 -1.3076306719301738 -0.8243643219626642 1.3457120521829273
Ni 1.5173464705291546 8.716116823853428 12.06212459902004 0.9844430045565369 -1.9386302955523258 -0.4878771092666437
Ni 1.6693878799517345 3.8880929177024237 5.572557428936736 1.2064402790320772 0.009064938415745679 -0.4819820839384474
Ni 8.586463523518109 1.8975747317961607 8.833055193559366 -1.2101367540470578 0.048308200187084545 1.6311217294768425
Ni 5.482564252677052 7.066455981830419 4.934536051220513 -0.1258858387622477 2.685160125734014 1.284547307748149
Ni 8.056901123139117 8.987435204059118 8.124752893783526 -0.40810169170921323 -0.7085970596916571 0.30687710313907146
Ni 3.101256679343345 3.801617344880429 11.915017259037246 5.664065959431465 -1.3171501813848348 0.6386309149151647
Ni 1.214686585567378 1.1856642782445994 13.452008533004463 -0.37374583993716276 2.9257251359094125 -0.4401718327708806
Ni 3.6610795243202685 4.834168393374704 9.218757130362192 -0.5701392978016697 -1.3774518064883696 -0.15703115401680054
Ni 7.037008642308709 9.000130731044631 4.877913446475298 -0.3622270406642858 -1.2062428183092901 -0.19772477508142075
Ni 4.33701007824913 8.045397534276697 12.676548373848126 0.3461594456784619 0.12781056658878634 -0.4955562230784563
Ni 6.555622717695703 6.538538271264689 1.2513483846744526 -0.7137654912664739 0.6431334307712084 1.4605912554220266
Ni 8.342522760821936 6.342395151287628 9.037367247603305 -1.13092235119942 -0.7632772248433565 1.0964677690659763
Ni 6.378319611927859 5.165924504302552 5.541954186630536 1.1338845191515377 -2.2202288266302665 0.32625859298947685
Ni 8.520334057262419 8.222746839196601 0.18209672978537356 0.38938637468789716 -0.9339550231093141 0.13909205303987657
Ni 3.471339606818434 6.333136841215223 4.155532417101332 0.4379241743872845 0.16025094650567887 0.2728675789628462
Ni 4.365524194899272 0.08790312662058429 5.651399053872682 -0.027133108771366175 -0.9716656502862104 -0.2597752645552623
Ni 8.991528448931447 8.442534685196899 10.470552722828568 -1.5442572662831147 0.5874906445959236 0.24384856602267682
P 1.0622478634371002 1.296699320300579 3.72416169450622 -0.8087083605929621 -0.4483129738207763 0.7642910108198515
P 2.2356786062167653 6.833187223259623 2.49785787016236 -0.18559122504268039 0.001441617542533001 -0.6495835572719264
P 1.213300611005641 0.20423074353631795 7.551074923104436 -2.4122822623585227 0.8004306939652022 0.780793379350249
P 0.9077320274302986 6.570545043810409 13.417374876672731 -1.594956335299879 1.088727977219557 -1.208219739530003
P 2.820753907708542 7.368432119341739 10.760481969449266 0.48286320099182006 1.1746614439585834 1.326324134574619
P 6.57984031320446 2.0938194899077485 0.8266460476873795 -0.8065694598730884 0.897754147708725 1.1325267195720623
P 5.90064809914031 5.967923304367037 8.828876942247248 -0.6838419642341643 -1.0773284771333638 -0.509791907061864
P 7.061189278495818 8.880696683144523 12.269128215662874 -1.3009663725361207 0.13588151652237887 -1.7127365142358568
Ni 4.42416015869117 9.17886601052627 10.287107901786143 0.6701606100923297 -0.44180139795450357 0.11474987675008623
Ni 7.789842304753166 6.683123137545122 4.509453957203524 2.1128618726078123 -0.16337792217043476 -1.6130396751641511
Ni 1.2016029857045782 4.408628003769301 8.574987654146925 -0.21717748448939372 1.1748918148018346 -0.3671545598728903
Ni 1.5726653352032953 8.48377204832379 1.009508759413873 -0.1877149562539025 -2.3635860827044004 0.6495555322474684
Ni 7.135348157379174 3.8881021575328356 2.188266264425815 -0.06884874334259757 0.20332643753891433 -0.6458873393672618
Ni 0.638101764240804 8.150888678085728 3.4958732045272667 -1.8207213043479678 1.3260418274475096 -0.8870030798398078
Ni 1.1773946300262337 3.433788936025765 12.18624324093882 -5.540005861024046 -0.8513182248436888 1.322075129490278
Ni 4.833346048468074 3.7002841247566107 2.7013309476049283 0.30862519617842976 -1.0145915031154593 1.1944525105425816
Ni 3.7412073336495064 7.224577199663821 8.85605867535204 0.6445691347764706 -0.1398484715899269 -1.2465183779998856
Ni 4.174915733338748 2.364712837914506 6.749136181937627 0.411464180423543 -2.658794234145976 -1.7510688341571519
Ni 3.660044663314171 5.72764151451385 12.728180546188044 -0.15964853703498955 1.4888093697274554 1.5570749868730733
Ni 1.3055972769869324 7.1839589051745065 9.275663397901045 -0.09693804537964595 -0.3882527753040862 -1.1750342539169698
Ni 2.074868597733594 0.30756715889336744 9.73953060405369 -1.5287445153594963 -0.4960151649927457 -0.08852591005655078
Ni 9.252119386029293 6.216179067865419 6.997913071871223 -1.4313382720941803 -0.728569646158842 -1.8035381077004617
Ni 2.15270492912076 6.117100366362027 7.052358772571469 2.1995959808712633 -0.7560593669386786 -0.026848230541095697
Ni 8.007708266027855 5.2119942987347 13.554529995319212 0.25625439588619736 -1.3207864925858415 -1.7187348979111368
Ni 2.969034706153608 1.5669089208568798 11.611227342816132 0.20777624578015183 -0.7893502677813244 -0.21125751946053292
Ni 8.919679527650986 5.925512482777877 1.9290760856183669 1.2125952428898794 1.1557892896444288 1.400380390260085
Ni -0.13502164180444612 3.76967525114759 3.522108778997912 1.2072267794891145 -0.5174517375999668 0.4972544367164855
Ni 4.232110283586441 7.933373830366678 1.9276697834297243 1.8957980308781477 -1.619527853991656 -1.5199559705335886
Ni 7.463057222586749 3.4602702899853592 11.68935195691214 0.8597172475406613 -0.30379666444153486 0.043510778798441195
Ni 4.388984124314278 1.230403537097479 1.6929568393655974 0.4686946228009219 1.3326750164933114 -0.7660905259224354
Ni 3.875646866138023 1.818611141098782 8.933750865384784 0.3063932215241175 1.4817750885884933 1.619709888095475
Ni 6.816962081056885 0.8752734271774526 2.9611161714908825 0.11790744854246145 2.11740269790096 -0.45789161864814687
P 3.164900631218321 0.3529809253662925 0.0997809286146728 1.1036668579175768 0.5331627205773204 -0.4653323911969083
P 4.915746856078561 3.0335564419176846 11.00478216154845 -0.5103053563631728 -1.0253914219444404 1.1694673013521537
P 5.79615485701573 0.7849309853282107 8.415911961832007 -0.3529980658668502 -0.17023788251506164 2.396946660442717
P 5.571793294961698 2.7540146126456864 4.757067552488301 1.4697821778926752 -0.009209691523726074 0.8989749074897034
P 3.92247432666392 7.130580404886798 6.468660205811018 -1.0226645099315808 0.8154148260788602 -0.8627714609859528
P 5.849339320864795 6.356254896905001 12.756133805132205 -0.3039856405238893 -0.5671239080141135 -0.1836245882346128
P 8.888929372041243 4.34571399849684 5.575978938138145 -1.9820708832344638 0.8382094553758725 0.8460852585795235
P 2.993141423697425 3.932434863847605 7.308681832002203 -1.4587344047189459 0.7187066373218333 1.0432405343107194
