# total energy = -381168.7138035533 ev
CRYSTAL
PRIMVEC
9.24569636676235 0.00000000000000 0.00000000000000

0.00000000000000 9.24569636676235 0.00000000000000

0.00000000000000 0.00000000000000 13.53201120206568

PRIMCOORD
 96 1
Ni 5.94801533562199 2.9907423781880897 8.722964085782255 -0.5097445987636963 0.17419558161122903 -0.006068317681266968
Ni 5.697429227693588 5.01800923207987 3.5354682957981423 -0.27874460656891353 -0.3129999282073577 1.6252400738850847
Ni 3.6502009154017254 7.833462453340144 12.543754570661697 1.6245744152766277 -0.41478013217065346 0.5369759236758236
Ni 3.9448797491800534 4.5985319890915815 8.064023307563712 0.4740648859738997 -0.1647218377928389 0.1605399385010074
Ni 3.325168460536103 6.37945650967545 4.413830713288693 0.21779069259336037 -1.2112317868834495 1.1443041718229647
Ni 2.7756597442088844 8.797631404862024 1.2198309467414556 -0.1848062672475398 -0.8909445809860591 -0.39987313315183387
Ni 1.1458653760139637 6.089030696213953 11.048589560596056 -1.6209087934995827 1.6507783273655052 -0.4948975064485348
Ni 0.5886143135708443 7.894992562489076 1.4082489924734003 -1.1205592627975411 0.6983309018789586 -0.916927378203066
Ni 8.504302442749474 6.436937003827051 2.804536827590531 -1.0869703710985021 0.6141303586706391 1.505562163705762
Ni 4.814224839029289 7.400162894322157 8.393906979299423 -1.7484442520501111 -0.5543804923055161 -0.046316366568036366
Ni 8.704943299044137 0.09574195931929962 7.184915686948083 -0.5135107506743478 0.2324858327116899 0.4043275693787618
Ni 0.8782718096664093 3.973883498601571 9.364179014975955 0.746868701578346 -0.24271419530791746 -0.7589608568561896
Ni 5.940794446779718 4.005152443626618 6.292439713993091 -1.5849786552618768 -1.0148478421006393 0.00880191456234613
Ni 4.948481595596028 3.971035824128563 1.7783634626974287 1.1825400753757118 -0.9053934094215376 -2.425367120566939
Ni 7.151499891232669 5.745044563849411 5.349705060298405 2.534583726203622 0.11177922415753652 -0.8857103291703132
Ni 7.027422646337301 2.96576975237122 12.862149540124163 1.260661759379803 -2.554517231902756 0.33738709880247053
Ni 3.4192988949831777 4.358171621316255 5.835611706926688 -0.20457625078561542 0.24309266169325874 -0.9674989205030305
Ni 1.1248221711419923 1.474679320683029 8.176718175693752 -0.6340597506047144 -0.34005050456724667 -0.31529078112406345
Ni 8.254354287868596 0.178765538752007 9.539175083329763 1.8167628339208515 2.0016454629322817 -0.8300857978274737
Ni 5.905577589417091 4.793348056691454 12.451087729945394 -1.1606954686967945 2.194722454829046 0.07935709907308913
Ni 0.5723973621888416 2.7945671932260994 1.975619469561675 0.7798641826677601 1.4614248070669154 -0.9485745727947017
Ni 6.798379010883282 8.023221125041525 10.114839874605492 -2.531798450149001 -0.19090158151200026 0.7057400498588362
Ni 5.667149572177021 0.7107296217026653 13.505542755375787 0.5316853647008456 0.44472062848382765 -1.8882898954265608
Ni 9.085856742594379 3.9463498148982623 4.0912687084853685 1.3922261365840667 1.1449636597838346 -0.04325829646800292
P 2.9615722062324354 2.6157739173850696 9.134892217708169 -1.1887078947493206 1.3228824558829217 -0.08290650698724432
Ni 6.385114875836103 7.142013806786868 12.487340105298207 0.014361925148626878 1.0774310641494993 1.270775193664721
P 6.402321116726585 4.702786461031981 9.886027381559995 1.0401824642106858 1.2967171103414636 0.8429014615349031
Ni 8.411845479340109 1.4100888860452467 3.478782006962227 -1.0596883954540977 0.36973569033650516 0.019741701403301486
P 2.8756057216544075 1.1504512413990682 6.018890070062707 -0.5311806571502852 0.13567068606315347 -0.349838694302262
P 9.412303789000163 7.905726815940905 10.630585157034877 -0.3022905122096536 1.4819036437465576 2.6090811831915643
P 6.555540796488585 1.760325109136262 1.9127635275574522 -0.39735808003946405 0.3921603378886085 0.138613056520929
Ni 3.03428036225756 3.0226215391716384 2.5080227230885273 -0.7152600735341295 0.6124750824554033 -1.5171205579673226
Ni 7.163870632936842 8.629637102347209 1.049254321238616 1.2914206378292146 -1.1840403140703222 0.694482731777462
Ni 4.9268189290692135 8.913535454192004 6.1960782930189495 -0.7766904129254688 0.5725324806241947 -1.0317214779275263
Ni 2.4858256553132074 3.7921963198058286 0.12976334814504362 0.39984767923053716 0.7900642631292135 1.4727852263850572
Ni 2.4720865505505754 3.0593824278232025 11.591899962096312 1.4697472108896816 -0.7049967439349084 -2.8914788131320335
Ni 1.18294986403746 5.674416689500997 7.317502670755648 1.3496836352361659 0.37320462272171206 1.424865776995959
Ni 3.1836630780380704 9.314391864749647 8.312876771997821 -0.5623393421412767 -0.24963046281177656 -1.3624440202256276
Ni 6.730996375950538 5.483298900437498 7.801691467003785 -0.4555485723372671 -0.09938187893444819 0.8693984793841671
Ni 3.1011452381952123 5.607145002924343 11.63601395304782 2.2075437749634306 -1.2945062187330738 1.3074558369152063
Ni 0.8330594299895958 5.194731471940529 2.088016626269537 1.6129789971295445 -0.747630519445035 -0.9796175581434354
Ni 0.5144804711699472 4.1273250750757535 11.647867860326537 -0.6392929739791958 -1.1901721379996728 1.9791585946836752
Ni 4.2770221445318555 1.2016723991278564 9.986489268861343 0.3520709260668904 0.03766768975410287 2.194788275069975
Ni 7.737473633928542 0.3780102948991883 12.118024463238033 1.0268474376646768 -1.121640668787178 0.6935481357783345
Ni 4.7743019222291245 2.833463837732419 12.422304952666424 -0.7397683430881389 -0.5587333699575732 0.07528498588624453
Ni 5.119767366008216 6.434200277710135 10.609678788468752 -0.7131533116037718 -0.45289287988197485 -0.4759168515809739
Ni 8.73685944281305 4.253020316830785 6.354943394966725 -0.6313901741923512 1.2448412474077788 1.075183148655587
Ni 6.613511312546257 1.4967210607598216 6.422847487173099 0.38882638841936906 1.169500211472618 -0.41929704620440045
Ni 5.148539973021211 6.462196246230491 5.881553572044802 -0.19283042310359694 0.39041018796672117 0.5240126786469362
Ni 4.338644710644197 1.2876758664912475 1.637738270491053 0.6994652725937179 1.0274490758044177 0.01730172450324117
Ni 5.729705953619797 1.093294346619399 4.025948788406287 1.5107732755930563 -1.994821755142229 -0.8536471300871815
Ni 7.780623298751692 4.143024267462663 2.1902777260788313 -1.025288063597357 -0.7158105467209608 -1.2311262118145314
Ni 2.7199451780584005 8.391051908269342 5.1996890143185395 -0.48364404502190256 -0.13042255029033667 2.2748056334348825
Ni 3.3007413308033495 5.695728019566855 2.2607798589570085 -0.052678818450954436 0.36676349508205863 -0.9372578622303019
Ni 1.6464643586976289 2.4381640906756794 4.130917028104207 0.10440118652591053 -0.4128556614544309 3.245802539788842
Ni 1.5708253169324276 3.326703246128699 7.015969077710149 0.7986512334672762 -0.23361994631613314 -0.716380817402134
P 5.414372234215817 8.907978790691102 11.539936374951345 -0.4433373749830558 0.693097164283845 -0.09686348338796866
Ni 1.5814578677245046 0.9246343539680354 10.246127838077156 0.5015898308670458 -0.08399485495541663 1.4911560155827608
P 2.1972304897272155 1.606569178986488 0.7952260405624838 0.3405744953915167 0.14015803241054572 0.6824054888979537
Ni 1.476999990464604 8.82503564881656 12.51244217086385 -1.4802236849409731 -0.592563945353773 -0.029024412256808078
P 8.165207283749288 8.515767106212234 3.041319110881915 0.47363679729754565 0.14936103906605247 0.18179370567346112
P 8.65166959672766 4.094077551033745 0.0022559499071885033 0.7067713193368279 0.3315404102137064 0.9618468644235758
P 8.471221341241602 6.647443018117493 7.064251028572153 0.059395311239181584 0.6806779646838859 0.013639959380937799
Ni 5.63624120930927 0.572411230733353 8.217381672770825 0.8968771444204102 -0.6325021763096075 2.21060210217378
Ni 1.5721751885982043 7.571152802451435 3.342690904241446 0.028169263345364386 -0.125332537361939 0.26816760238401555
Ni 4.98770183947428 7.820019210860423 1.333448535366322 -1.1895206204586029 -0.009611812058151188 -0.27393587232636046
Ni 0.4471986143273184 0.22440322046050362 5.137914818786207 1.8165787429345037 0.3794529176242691 -0.5736493678374572
Ni 8.751643311262207 7.370854036921387 13.035386152464289 -0.16924723646701817 -0.6230651992664237 -1.4040496115815562
Ni 6.518206674663884 6.154212855417556 1.5337583957319791 -0.033573979300703466 -1.1598248931663833 -1.5652091859444333
Ni 6.996088981437867 3.146985400653575 4.459528492023406 -0.8484391035236807 0.01573746533991483 -0.22756217015782743
Ni 8.768646146833188 2.2433757601648296 10.611397563418532 0.9314301998049315 0.5647196694479951 0.06492035482246884
Ni 6.639732107369152 1.6450405214611248 10.629367498826777 -2.2837520439948924 0.2527656660066485 -0.5009825363003502
Ni 8.036516436379792 5.535490856282085 11.355306291010283 -1.8737593059105533 -0.07206339362515331 0.4345076925065678
Ni 2.6619931533934107 8.016397801141913 10.437808690047817 0.30680279825771034 1.2215689071433995 0.5706807721274365
Ni 6.67751926831456 7.9522788970175196 7.353227116847392 2.532394431861787 -0.4754486536953037 -0.3389942953885904
Ni 1.276433099740669 0.7177905599982384 2.6999476614425895 -1.0178961420086596 -1.577971113595792 -0.889470310433378
Ni 3.3418939252168576 0.99309873537267 12.510980426272345 0.22785270481505274 -0.3218329531179554 -0.0709364791095617
Ni 7.480138167671257 8.938887153558852 5.190378598103217 -1.0891234128857632 -1.2435487538486003 -1.051735202045292
Ni 6.28152609403225 7.189453474712213 3.611395803289181 1.046458527027385 1.5226561430735712 0.606269982085956
Ni 3.373153624545564 0.6109861250070082 3.5701775644316522 0.16249371979326854 0.7053587552600176 1.0677639733733806
Ni 4.314328529267534 2.243505199913603 7.289396678448835 -1.577411127327264 0.14253630283473517 -1.1748506771512541
Ni 0.7646782598520296 1.998281595862944 12.783771923102776 -0.7967771563730148 -0.21154908255902274 -0.1995219761911596
Ni 8.320581210758725 6.569483306570717 9.336870926263366 0.8106472294868878 -1.0143382494540725 -1.4427989644356118
Ni 2.070398027322249 6.31113081371593 0.146915963996749 -1.436116924429746 0.7424284064188053 0.2159153299475185
Ni 0.8837914903819484 8.135667283939995 8.713289389131099 1.2907539507794932 -0.1543492363092632 -1.7013465272313602
Ni 4.480621623655618 2.798681528097816 4.266738156491832 -0.6947673528974164 1.6109879348414449 1.1297018485287575
Ni 8.084815954064844 2.753072508047976 8.223701106219856 1.5022377273182193 -0.780543725233288 -0.30933456354062855
Ni 0.46603117320417187 6.466782111615594 5.2871052240828265 -0.3143407585059683 0.2959938805676644 -1.35526267198584
P 2.229350038815629 4.591079957840787 3.843902876592516 -0.9604016473366169 -0.5368941625952947 0.3886600380448339
Ni 4.391308197002172 4.07881290637486 10.40066318042847 -0.3966068036957363 -0.7607781125705866 -0.1647532052514066
P 4.1278335883745045 5.7829704102399315 0.2599427526254294 1.7004566684272393 -0.36804210468416615 -0.769672586846739
Ni 8.45124139144884 1.3203039288784126 0.9227103245594865 -0.7840836200657464 -0.3767969680586607 -0.3947759211345846
P 4.391206494342422 7.988540518066673 3.474113854879688 -1.0927473827915954 0.7560735080060657 -0.3445895300881807
P 8.611820645498224 2.266767371907399 5.83543603869621 0.4600575159512141 -1.8472900559754315 -0.15980048923182155
P 3.248087090141716 6.534312677689794 6.838374968684539 -0.8446901780042099 -0.07377369144804069 0.93927360710875
Ni 2.699669365982727 6.1606386143745056 9.311431392781278 0.35011971587779056 -0.9080375319126038 -1.6505343296754993
