# total energy = -381168.1517335077 ev
CRYSTAL
PRIMVEC
9.28092866185582 0.00000000000000 0.00000000000000
0.00000000000000 9.28092866185582 0.00000000000000
0.00000000000000 0.00000000000000 13.58357722726793
PRIMCOORD
 96 1
Ni 3.68681169521956 8.520486278427096 0.6316442113873051 0.5173218968903219 0.06708882322869736 1.177259800813379
Ni 1.116133733955281 4.68666467687172 12.835216820362042 -0.9192218306641976 2.1160718949046786 -0.41855631138363397
Ni 8.487390487644678 2.5483016428188465 4.871124985609448 -0.6604834920138819 -1.0307861105974505 0.17838545132286052
Ni 4.3394187396523645 0.7913133041020393 2.5005327041881364 0.7551589666115962 -0.671384969417734 -0.14386504894848773
Ni 5.399180114322055 5.050959679617519 10.966999338686723 0.2413219429460812 0.7503602596713723 -0.23986104212983853
Ni 4.000386424093818 0.5025260788794043 4.853248989359863 1.1398574489055209 0.6536703257467904 -0.05216665470122628
Ni 2.3721403402834844 1.2860396907286267 1.3195438423619787 -1.6951224006985193 0.8088777962912909 0.2287777877324834
Ni 0.6416388432138859 4.327288566193974 4.715620245481386 0.21408496160699902 0.8437316707456823 -1.8194434660768084
Ni 7.416863235995848 7.496651377711064 13.746987294560833 -0.22901021545826364 -1.529275705272618 -0.16032653693862067
Ni 2.3466177871001825 2.690661804011087 12.316487168536192 -0.9760090148565707 -1.4218838115494996 3.434041229756699
Ni 4.679174967628475 2.020485962059741 11.896184546992112 0.743105634991488 -0.8723048543976848 -2.3827641982947476
Ni 7.758345716659992 4.720270918717805 12.675012218076882 0.2374940845595587 0.06450666432381794 0.05614826505679362
Ni 2.589147008840559 8.556561247235638 9.448844556009348 -1.1488185147535506 0.1757852946958521 -1.7346716237460513
Ni 8.80620894108205 4.5974656737281885 8.370254033740283 2.8212938674765153 -0.25210592093546264 1.232111458545936
Ni 9.475549499474669 0.155808226487733 9.145102042714141 -0.37922151833975337 0.23503122484136296 0.16379238400003407
Ni 0.37437037864972467 0.7515324605712811 6.732401260911755 -0.19221078724172705 2.752489861328924 -0.18932575238444813
Ni 4.169141545741807 4.240474761657027 1.6850425815251877 4.306607565345886 -1.0703145077093763 0.11906187386187883
Ni 6.636364997793627 9.73290964484665 6.184398632723923 0.36290015547191046 -2.1020303292099474 -0.07121107292718704
Ni 0.36736049340632554 4.105520781352159 10.658951402692702 0.19286359033437753 -0.05040776302859061 -0.2698524462856063
Ni 3.568739723729392 8.412938879776878 11.325090040776871 1.2099624332527226 0.627886531914467 1.8948762903948266
Ni 5.987052682953577 6.777732099643827 7.786608928008758 -1.0992036799399003 -1.93285611207271 -2.173879807052082
Ni 8.090111065257622 8.328742297057275 10.96144377492835 -0.35120163608805965 0.6231083937995333 -0.9145349667114894
Ni 7.087798637571434 8.49036038474237 8.753854295713932 1.1069766390171 2.8084404085526145 -2.800406482504545
Ni 5.074988003323544 1.6908645079295095 7.643193525253993 0.9628074285646321 0.5036454278444938 -0.7521962844388465
P 8.35950857480369 9.565017649542678 4.659017719170724 0.5573310902934079 -0.616135562026126 0.7059691351505067
Ni 7.273036688111621 7.029468002387053 4.915950941834913 -1.3420723985478111 -0.8597146764375 0.6105961202651355
P 4.299399376260948 4.6690123509973045 9.0149175315296 -0.011938660419114924 0.8314628806806584 -1.2928792246526122
Ni 8.124858861300632 5.513855266006736 3.280039739234002 1.415210513294382 1.4217336591248806 0.018802220308167618
P 6.97141579505558 2.0266113748237333 12.12563786866705 -0.594995180503085 0.7216253536305249 0.921920203431967
P 7.801780461713755 5.744718360710237 7.0120189288452615 -0.5790512555793189 2.012167188399212 -2.0842501224083914
P 3.1374085749315967 0.591485634069434 12.759488156742236 -1.4648258623286645 1.5863205140017518 -0.6105346708995808
Ni 5.106951520837468 2.844298293246132 9.820871500230425 1.082189147659775 -0.3971117683566128 -1.5298444332918943
Ni 9.303759514229974 2.6888334611103195 13.27427898254227 -0.45620394653307883 -0.4448124168666855 0.37134880045989593
Ni 8.962119257782515 1.1475775194771083 1.7020090467886035 0.9281258180220467 -0.1879962349397472 -0.11673528261123121
Ni 0.9769012456440486 6.9979406885093525 2.246479353615867 0.040331866849827314 -1.1768566518376893 -0.31968479642670106
Ni 4.3303698344328305 2.0585099258386452 0.3983179582784057 0.2374097523758686 0.10823007335369747 2.6652034801064293
Ni 4.478660508892027 0.609543536516252 9.58040171650873 0.049035051050780064 -0.05958891530722641 0.33932468214481565
Ni 0.7413160145552161 6.138953638572157 6.467100353174815 -1.1009227195135363 0.9918318408214403 0.6538487603061836
Ni 8.227682267379832 0.32225146886373696 13.065689187978627 0.2914607685840013 0.5662733870883602 0.27952236527520247
Ni 2.9470381709694586 2.522018053504261 8.455382421674289 -0.01581614109665018 2.598816310930447 2.396175586604647
Ni 0.9593324481255068 9.068181707883886 11.463615322341717 1.348202165594633 -0.735767449458862 1.0412523002360972
Ni 3.1654091360057857 6.209173143075742 10.619979856121065 -0.3151362578240702 -0.2523470904119912 -0.38568861412133576
Ni 7.484168528972321 2.233204841682021 7.501489525701775 0.7371226779351756 -0.1511171025252107 0.2663395480363413
Ni 1.4000651774231874 9.288817219457204 3.1365157496166027 -0.7370851398290209 0.9737521005015939 0.016699057922235756
Ni 7.220803622905941 3.5631804475996476 10.19414858551106 1.705932861050462 -0.6331758053378643 1.5071513625697528
Ni 7.053060122456853 1.1624734096077263 3.236681097793366 -0.2589154876581283 0.1346694984921487 -0.3146901714255871
Ni 4.7467958121715785 8.519474657228194 7.402750656224747 -0.8165389123809743 3.1149974093481063 1.8539080755125816
Ni 2.191384978175128 7.1895732987380105 12.72126465300208 -0.10413790556219484 -1.489558589188654 -0.0011883638811463406
Ni 5.38786666256553 7.710437564102828 9.906054645642168 -1.1778606676221715 -1.0176030362482733 0.8269377391167951
Ni 6.550367914958547 4.955588859067845 1.3914469072828186 -0.9791871554742361 0.8642467599798987 0.3752116258494118
Ni 0.8379304795145502 6.64983162494598 9.404141108039163 -0.9014128275072346 1.304678017059753 0.40663179203190614
Ni 6.621413422092428 4.345748332841824 8.15094755111818 -2.7954969610180695 -0.08414963536572603 -0.46509739236796677
Ni 6.224236089918105 9.320001138982985 1.067325331340378 -0.8850127888826564 -2.847872132185676 0.737361276308543
Ni 2.7413078304551877 4.874427139944946 3.321076292381379 -1.3253198616798207 0.6921785091243176 0.6928675647715422
Ni 8.524959685930497 8.171996696798082 6.509372197896263 -0.8908072840772465 -1.3986518376047523 1.4896712035071185
Ni 5.015088891234443 6.054710651210401 3.4337653253819775 0.1334165999216541 0.21931664231958362 -0.3563932075913282
P 3.268807959647663 4.86534111101169 12.58963974172516 0.8891383810152558 1.0264836265673547 0.39886397516102917
Ni 1.746726416151434 1.7845090757911506 4.926070866195302 -0.3336204326711867 1.5536546483376146 -1.358213784194364
P -0.10691258314558547 2.51115008631239 8.928444337066045 0.3396707526303247 -0.5177929229894696 0.36858255056866845
Ni 6.90709896103366 0.8627699563653823 10.228541850088035 -2.217322708727065 1.4849923099742102 -1.481198904370049
P 6.1168279051943415 3.0260931193386806 2.8911150086198942 -1.256012947753882 1.0864162983672452 -0.3829550172402566
P 6.742538819036161 6.738872852306197 11.455940922622707 0.07530246938774128 -0.4312246508799219 1.0519200643625886
P 1.3336415726475914 8.32026880940042 7.641604630306729 -0.04748107630009887 -1.1773024811258566 0.2348844148508535
Ni 2.0812760432781503 4.94206654634491 8.74403414534184 0.4506735036331529 -1.7926803390503512 -0.3652123485448549
Ni 5.789953605879477 8.553507821782073 3.63261478555803 -0.09800042520588928 -1.3731963736461252 -0.44589999350390946
Ni 4.9376395434836615 6.906829814109181 12.95021587644894 0.26874738614688554 -1.3104038637999367 -0.479366243582155
Ni 2.4809592261286517 4.772318365354879 6.285419682501958 1.2728878691323497 -0.7217333399632989 -0.4137743166139584
Ni 0.647021781703455 3.2606685854142974 6.717839484204627 0.2819194047524693 -0.9231463625295844 1.4768228867895405
Ni 9.105945805666742 6.677804343234879 12.014782747124277 0.8274031087889879 -1.0321295119992224 0.41896897344102035
Ni 1.6770452054968057 1.8823114995895618 10.378083593699634 0.5194895939656021 -0.7879060791356302 -2.026133420771317
Ni 8.198716489748891 3.4260268872568007 2.112830271848298 1.8598766343911903 0.0037766934336128503 0.5970867729247911
Ni 4.915931451885209 4.413953875876035 6.543073105212338 0.2146657738111335 0.6929344134537356 0.41794567438282854
Ni 5.921046719957344 2.3696530514641663 5.39917268957931 -1.1543864957596313 1.0870991833668828 -0.9387185059362285
Ni 6.789305417396401 2.0399016643359107 0.8874080370692771 0.3227071281927926 2.73117567323218 -1.5389762203898332
Ni 2.040607014896613 8.813475908042967 5.589043779591899 0.2885294538698192 -2.632149377864938 -0.31695068532498966
Ni 2.9304902755782485 1.1981585794221967 6.909259561172231 -0.17964914852663255 -1.742184644293645 -1.263389185613295
Ni 3.23111810929225 7.975222452219043 3.1081940684187255 0.6296395100498318 -1.0955226315438875 0.7944564786596383
Ni 2.2250654674486556 3.829812240473491 0.9796623218520601 -1.6796065644511073 -1.3082551928880501 0.671387026300263
Ni 0.24342668751958554 7.637322409928991 4.4859627433809806 1.0865181140524318 -1.0165442559664557 -0.16872067453958683
Ni 3.222291946355042 6.187372242192988 1.3011870940197052 -0.278035753427347 0.9618049554420468 -0.8948089490374719
Ni 3.0276987199571215 6.850476016680451 7.746537591418132 0.2765727957285753 0.07149800803998654 -0.6718156291972494
Ni 8.229092968501234 8.244276567413191 2.704598974234856 -0.8006757200964726 0.4741736436376221 -0.843236733387135
Ni 3.799946212784813 2.7668489454953495 3.47056327851524 -0.03296025697610453 -0.13452705937701348 1.2777138297660835
Ni 4.780494863301966 7.456075158613829 5.571385885160427 -0.8604045034156731 -1.642845445671674 -1.8933225727544616
Ni 1.1906410273936605 8.656665341284763 0.581549472091964 -0.9660377625764717 0.2992044170851621 -0.2214835680639153
Ni 3.182773753098861 3.711517526700996 10.653531340489414 -0.27627197665870484 1.5057704230618263 -0.9113802231325917
Ni 7.5555481495296934 6.448778872360577 9.271864675586434 1.47998482945729 -1.8057549128461223 2.505457755371943
Ni 5.926299725448888 9.0320324916479 12.012283393097999 -0.3383839154981011 -0.27221271898766664 0.8949722140882136
P 2.5665108243990784 6.429075461303068 4.848046100881842 0.07471240121222618 1.1316036935371607 0.11690368986829544
Ni 6.581783857695084 4.427995920591067 4.441028200292882 -0.36742246882229623 0.12064233097512127 0.7200631513497276
P 1.3709880286510843 2.828065949421552 2.8205214827005682 -0.2770602768879551 -0.22288944727250645 0.2642988634572287
Ni 8.799006940620142 1.644979597770149 11.037512120528705 0.9099198365369812 0.9801991416785184 0.3307122578854563
P 8.537591029524124 5.821861437822819 1.1819067456479135 0.9278766781257182 0.19861411966490958 -0.7766346199868689
P 3.605984089520152 2.969451613128612 5.729783490680211 0.18903033263121638 -1.4749876333530145 -0.3060309530886923
P 5.37513322875917 7.22966690955687 1.5797291023481417 -0.0676261837894061 0.1677724516937046 0.2926450187000896
Ni 5.476768675999292 3.97147633203346 13.10442963943235 -0.8885920215934825 -0.04961277793112101 -0.19661405851574523
