# total energy = -381167.7344148267 ev
CRYSTAL
PRIMVEC
9.21290565700037 0.00000000000000 0.00000000000000

0.00000000000000 9.21290565700037 0.00000000000000

0.00000000000000 0.00000000000000 13.48401868379374

PRIMCOORD
 96 1
Ni 2.0086990808802794 8.625877938663537 12.846979898359344 0.3601495893099669 -1.0111711645800003 -1.0575728917729916
Ni 3.945251895851704 8.125773769038924 10.98107533080146 -2.2576525186943632 -0.2285602724050386 0.9965714123889546
Ni 2.3886945966096387 3.382905334134098 2.092800934743408 0.9423571311300803 -1.2812113013963806 -2.0410237076195883
Ni 0.949528144029638 5.124448570444723 1.7956672157463722 -0.4646896154065868 1.0622312164806094 -0.4603408515195878
Ni 9.15995009225009 6.99707303154799 11.993185823150888 -2.1805006548027093 1.1080300199822788 2.5501550982793177
Ni 1.6449090665854333 1.0303621801788256 0.9213992998114137 1.094894511041585 1.1994245098358762 1.197974150542595
Ni 0.3157612933861447 2.2564893973002196 10.6850066237236 -0.17255984578001896 -0.07396369597165972 -3.7817726479079714
Ni 4.898649460348935 1.7110024533342676 11.103496424071396 1.010030366107338 -1.4211811290555203 1.1765586609812961
Ni 2.917957613329327 5.057783983531625 9.839625774160398 0.9061426288827361 -1.0735186164689705 -0.7316719392332495
Ni 7.631657988233203 4.907880792035907 5.513211087404943 -1.3973940539382514 0.27142673275126156 -1.0385472426001081
Ni 8.066820384343385 3.9488633549547907 8.97064790877899 -0.2836731542187825 -0.7199410239495665 1.78972639862835
Ni 4.89595929183337 3.2694668240925036 8.001524835243345 -0.7898431482573429 -0.7338105828428072 -0.4155123823509876
Ni 2.202990052882812 1.1430636577504025 5.113531276982586 1.6836401110905328 -0.640707080717903 -1.043635712866609
Ni 7.428089620014323 1.5325024020018634 2.475410151869568 -1.0592621065499563 -2.049496006756658 0.4760796024110833
Ni 2.389744867879414 1.617823123312284 11.634699678768404 2.17013628084925 0.8431984239500315 -1.4870805599618067
Ni 5.357931244040445 6.6795133789350025 6.263232833416085 -1.3008558151001854 0.6096982910412144 -1.3392837800590807
Ni 7.749067260707018 5.562181367294092 1.9759214043574187 -1.2609862325987573 -0.17894029538506603 -0.1018874189651213
Ni 4.382413492536809 4.13109463316666 3.393226552586108 -0.07189267237524394 0.147826604699397 1.9142048155201095
Ni 5.067715496065113 9.284950799165086 5.693479095374801 1.8621698013007413 -1.36333182214722 -0.18443268595820494
Ni 6.8156432761472665 3.579444255170185 3.114996795154438 -0.9007656808415392 2.245134845843327 1.6489613287614246
Ni 8.524582038565484 0.9916311238793972 0.6215837039141011 0.1995713413718563 0.758211637394991 -2.8279023739319684
Ni 9.004878460558373 3.939263507032811 3.8118112458644173 1.0024741510266346 1.2203067526015243 0.22042633044399454
Ni 1.8011691631350544 5.447121385818459 7.486381518068021 0.7342031902955355 0.2694495544202327 0.5801172349499881
Ni 0.8385126282332266 3.0360210021202825 13.222603890250909 3.3500126933498695 -0.5426367215060267 -0.0688770254773717
P 7.553246946329199 4.738556794955222 11.304880412307263 0.4363540016866872 -0.9267824166202748 -0.678842968357676
Ni 5.154326024198064 2.1587220401523757 2.2047183940250035 -1.8569252650723505 0.35378713742704876 0.408992836064915
P 5.752897731817039 5.872739211441911 3.8228814735640833 0.35016342463153244 0.4140239707309193 0.2781144291840823
Ni 1.4947110621017077 8.070238372423093 4.248491007572249 1.098372956508489 1.2518071372026505 -1.8261229349795132
P 1.486133846731877 1.852420558518908 7.071787855614857 -1.0467362061688037 -0.07522276518974141 -0.21998795735499532
P 1.8425627492324217 5.554746552252788 3.738659851924577 -1.439628022906798 -0.15179381687726115 0.697003955537419
P 0.3290711785040763 7.493077458058131 8.007080217486102 0.14977678644723236 0.5488024839971064 0.3054216016394676
Ni 9.077678842784369 6.573150380605577 3.6579446622611793 -0.17684870296335994 -0.7293841716403374 -0.47449991662878926
Ni 3.7114467705503493 1.998666226382164 13.391707698881175 0.870065937764837 1.8154217465119251 0.5882532337935611
Ni 3.034620640427249 3.236189808071206 6.519213423159098 -0.718124282455802 1.3639581428773089 -0.17248348401612876
Ni 5.827586759747454 3.5902417808559437 12.29710208345326 -0.4819815697178152 0.03186753813255802 1.6760761827003456
Ni 2.8383028291321675 8.010723000469167 6.257974106742509 1.122336923523254 -0.29828396215342173 0.9103993472765611
Ni 0.4253313042507339 1.4040560682895344 3.0746258416092203 2.086931783005612 -1.001141034037508 1.8749057608101711
Ni 0.7909463951994613 9.010516758954008 6.24160369429283 -2.0140332950736735 0.20902451636495614 1.9781432660452836
Ni 8.470087700313552 5.668572004341143 7.574445842748082 1.372333768535514 1.0611552098076111 -0.035393549007945495
Ni 1.2422129507795296 4.2415665875164335 11.21150300480896 0.24824618086974024 0.9595452128735925 0.4216017830781772
Ni 7.213548680898055 7.718590968071788 2.5815151888344867 0.41875968564369165 0.16019643911865958 1.5899190299862878
Ni 4.936468438966717 4.609465557831627 1.2582203747377259 1.070198550956802 -1.4229955565564396 -2.070564140280866
Ni 3.1830681927946824 5.621226881048382 5.351510769936004 0.6054094338578735 0.12772443463288327 0.10274411053846176
Ni 4.435442978754581 2.0133792370648917 4.76661377850762 -1.6664980520936075 -0.5936204116427454 -1.7463295196999538
Ni 0.6276863327658475 6.666513968745066 5.8615298688635304 -0.2787687749386296 -0.8453095567557636 0.479905918135709
Ni 8.107587492841237 2.642851030989357 12.260748878160227 -3.06019948767162 0.25579236864811433 0.4936057842203048
Ni 6.929284470118115 6.728222012297294 10.889963376857876 0.006614162882407963 1.0060490128620867 -1.2137087876690322
Ni 6.176424227806817 1.3125811258544664 0.3565846006098359 0.09188017124076435 0.13921777998446347 -1.4042342167885364
Ni 3.4772270644846093 6.544645649827644 13.235117780301222 -0.4968104072005315 0.3179246192024847 1.8149026407836615
Ni 4.07208597103587 7.968002755925767 4.180221532455687 -0.4653961545553082 -1.205072709260589 -1.0918392691550294
Ni 6.972317953461272 7.937240863208404 7.77315900957072 0.11762899807009419 -0.5479555626157789 0.12789695565500556
Ni 9.087555077882605 3.0175030613110883 1.762077882215905 -0.6706336930740063 1.7601489420815495 -1.2150789285436814
Ni 7.446211405870883 7.394950797581154 5.3117054888115245 0.008437846354708048 0.2531400186269318 -0.21424925509900522
Ni 2.042593361595217 1.4347534706657703 9.08558627989707 1.7946577744916963 -0.7071461861777435 0.5727127149558008
Ni 2.225893336888611 3.300680149197752 4.291383533455514 -0.8209211006090701 1.2191479564067325 0.5302198358989126
Ni 7.683554287028323 0.5025133445109843 6.196540607785361 0.33386340191992825 -0.7827816134248713 -0.10610479948057855
P 3.7221705929891065 2.8839527777438865 9.950086673023119 -1.5212610624982577 1.03712722232413 -0.7783500600160789
Ni 7.706770809833879 9.105649225021539 12.040662690997662 0.3764714663984419 1.562966926877476 -1.7773218543164102
P 3.110617900991946 0.3812880864236531 2.7118114740465598 0.15994575656043422 0.24893703628917777 1.015199054792471
Ni 0.44704243823627937 4.0662542016168555 6.186845866932867 0.9691277143557051 1.1401502975555913 1.0529863008435736
P 8.297594463611793 9.113756582191733 4.067670225249876 0.010791177078233028 -0.14510354934127914 0.06512707151663621
P 0.22220607680445195 6.899618913199904 0.7104523152770691 -0.17752361754319748 -0.7841057315529335 -0.5496262654499825
P 4.289805362679089 8.72983636855953 8.62033361190783 -1.283964952882118 0.5789782362495384 -0.8373882450261578
Ni 7.090270787381725 2.8870759528355867 7.111093797240899 0.8137166124408309 0.1103581754402938 -0.6913459859206932
Ni 2.2337887972236756 7.898565084344227 1.5824575415290738 0.7536530714900311 -1.1940005106068274 0.5587295133028313
Ni 7.2821203393273235 1.3552553058684895 10.005048105602926 -0.4629029558198092 2.405566540901244 0.2286428048165159
Ni 2.393660352876383 7.158685826411115 8.981286972483694 0.2527924054795259 1.8669793068742428 0.09250237820579553
Ni 5.088748560178242 6.835745836766998 9.156404044778718 -0.42818972070834 -1.7391116617952758 -0.626003198848825
Ni 8.59366040681789 4.806022904679464 13.434100885266004 -0.04442609152385897 0.35820043600339596 -1.450852687978024
Ni 5.759982456435083 3.860216774623416 9.929779585892957 0.9729820551047887 0.9606186484434295 1.2832327027017836
Ni 6.991517649305232 8.072338914962643 0.29005360083192844 0.03373081659354191 -1.2525501860162622 1.7660012870972681
Ni 5.448153231276484 9.077070790996604 2.53941865801884 -0.3714583294545667 0.8028742704096882 0.8041338538484022
Ni 4.11632634504868 9.087398458482726 0.6761968886518229 -1.0096855811734096 -0.34905836449281175 0.37032113052633
Ni 8.846269073010571 1.3188551147554919 8.258813657620639 0.12799182936165698 0.044737709227006824 -0.559182798790166
Ni 3.766853186483927 1.1324135385586473 7.098944738263246 -1.4173782103696622 -0.6801452321088675 1.3191782675584571
Ni 6.459859277057987 5.847615617120184 12.929974360936269 -0.43091149051487726 0.21774672672930245 1.8189390156365643
Ni 3.191018930564998 5.770208781956579 2.1657358253951813 -0.10838125421958107 0.5913786667964203 -0.16009308077157589
Ni 6.334987550825244 5.273283064858916 7.686012290315831 -0.9799554010988284 -1.5286784380082512 1.1518020228619066
Ni 5.083128687594358 6.937299698229557 1.5285353247319933 0.9846363515142654 0.3707903568532646 0.6926338514941813
Ni 1.1532347058366466 8.863616974773612 10.448159396902248 1.6513701953132336 -0.7388784842840178 0.199522747522108
Ni 4.5770821936802255 5.7472317947037785 11.561939833328262 0.22149153848371533 -1.0681882053949925 -1.833042802027798
Ni 5.2744807426226945 3.7461333611705556 5.710535869312186 1.203758875545172 2.069275760486746 0.22554719661032768
Ni 8.320875476758475 8.585064765636309 9.834488657844375 -0.8312134836740136 -1.699652170248073 -1.4530733497784265
Ni 0.1792813057506229 6.123357889965544 10.030734608473628 -0.13482916399846456 -0.7917714756283074 -2.712989232131141
Ni 0.13158056429107937 8.658768012638076 1.838519204843787 -1.2150496179676429 -1.6573624083409262 2.0222040038099234
Ni 6.669729272895518 1.7725170258631175 4.655425060080754 0.3012049924549587 0.4036518834679758 0.3185954200172642
Ni 5.785815444509203 8.87713230769256 10.103508273272585 2.471910772654433 0.3282511979394734 -0.10922971826280542
Ni 1.9948705091615728 6.6793475466292485 11.461214212103883 1.8912291805605426 -0.9421018205861647 -1.0243712082100422
P 5.340795239112534 8.612371818650464 12.595233560156583 0.8544354303164317 0.09855244105461737 -2.0802353448220434
Ni 5.997463531180652 0.9350454559937907 7.709865424917365 0.1674549204532858 0.03132015026952025 1.6070438625920322
P 3.2594800341237646 4.171557715770629 13.117415537420575 0.06179363626802906 0.49321934741516354 -0.010081038385085865
Ni 0.06465340956053743 2.2146812304384675 5.261018844557822 -1.1760727224838134 -2.9141394879543427 0.2574694992402211
P 7.019976315553789 3.5445549806207235 1.0186461277773073 -0.79752329051042 -0.46708562644258916 -1.6161797634550295
P 3.980693944753679 5.216660545349809 7.39575508426406 0.46762838631993653 0.3591412026501105 0.43034713337097497
P 0.5826711533689308 0.8625030351323016 12.124102136928363 -2.4868056874883946 -1.3220422193698136 2.8126256502785556
Ni 1.1573897263863708 3.4860806670306963 8.669482622170959 -0.03481659345855294 0.8154397657795246 -0.17603057793743876
