# total energy = -381164.78380801016 ev
CRYSTAL
PRIMVEC
9.20321267238932 0.00000000000000 0.00000000000000

0.00000000000000 9.20321267238932 0.00000000000000

0.00000000000000 0.00000000000000 13.46983202102954

PRIMCOORD
 96 1
Ni 4.313177526720034 7.835191695649743 4.430119985813564 1.227824401134808 0.5233251656616085 0.39958054161207957
Ni 4.490735103690567 2.794178115712762 12.313783160569118 -0.12225569820882815 -0.09843699852267564 -1.9456380943287264
Ni 1.002671585330718 4.659503612812301 10.326875865001618 0.9557183829283348 0.709290743324572 -1.530627848425138
Ni 7.988719685025289 3.3375081665918014 4.610131139211834 0.3561427821434189 2.4774738685645072 -2.0212935761805126
Ni 8.666701936632876 4.703531780967954 11.869871732039213 0.972166758292345 -0.024720128454499363 0.25345112210944737
Ni 1.2928856853767845 8.678702925611757 13.047108009665667 1.7578483189728307 -1.637984775145263 -0.6375004008551473
Ni 5.846175023798534 0.9039459648758384 12.476902737915362 0.5078774636479705 -0.13815668570980078 1.4663937210364164
Ni 2.3368981008402776 0.044090750000022064 3.993104524340313 0.024029787255694098 0.07042097292572388 0.7647977752529409
Ni 4.107320071597614 1.5430105921774442 0.822034613488764 0.6564190921365212 -0.5209409817001479 1.13338161137319
Ni 6.141137981446674 5.848641484723641 13.476836367554963 -1.056968168309457 1.1028307351695266 0.4333838633147698
Ni 7.854573660979133 7.413537316005213 1.3610722861011235 -1.5365195313192248 0.6022480054107563 -0.5812963428597537
Ni 2.333235222302245 2.271858998759173 13.296043861423328 -0.7362040227756482 0.13518654733788332 -2.364351500115515
Ni 4.217979497580804 4.047646442349858 2.7164201740850196 1.1924647906885915 1.2180917472280763 0.21379699805293503
Ni 1.0189888809285386 0.8244789867040947 6.961330111811533 1.8342460783072798 0.019385089394831134 0.6816930362119615
Ni 0.05137325197777473 4.4776481356476445 2.4893861272138196 0.9276463072824669 -0.9295229554798895 2.1482790757648424
Ni 2.351604834266853 3.324421198548879 1.8172018994227177 -0.6010120761211263 -0.2625548841829285 1.4210062940405528
Ni 3.4237514700589062 9.083414191214782 6.409983142604652 -0.6530555749809269 -3.520453435904357 -1.0393283437405068
Ni 0.25885507409005193 2.8328408110350654 8.08134633661797 3.409612921511006 1.795727096296475 0.002371585555970109
Ni 4.763656367623658 3.4083636989142043 8.129218686596078 1.6249829635689563 0.4506225957905594 0.5389631293091814
Ni 7.858678293712709 6.451921261222649 7.077116647426728 4.117634825425482 -2.011935017783748 -0.9343841402269327
Ni 4.139724582483077 1.8429248781006133 9.807937087965167 1.089239112528021 -0.49164994604551454 0.5957320586691095
Ni 8.918943582287172 0.7823522022317516 8.923009561528637 -1.485037561389849 -1.3192787976920632 0.7634705718010851
Ni 3.021230569008776 7.026836737082919 0.23819754352103428 1.1532621523472009 -0.905628408250479 -0.1926429896831392
Ni 6.589905024842573 2.176044354388665 10.598225220255577 0.5126350329376139 -0.7500378433349469 0.5105087306232304
P 1.2942569640254453 7.805474522787158 8.238889687566743 0.06532350379815847 -0.01039188475728533 -0.3105769205881619
Ni 4.219001054157993 4.390208414567614 0.3883139020572621 0.9084440233224031 0.798159124322206 1.7371092866532665
P 1.5666812544885522 3.920448843671078 4.046094780738019 1.025268266103015 -1.5270758694078217 -1.9365374175790389
Ni 3.508641901302165 1.764835620826215 7.219156266754469 1.4105002523029062 -0.05224481623732938 0.44316305418872065
P 8.937515664924737 2.8888791713820083 10.38490303954974 -3.554093492556305 -0.41907927376663956 -0.9310851577606868
P 0.7534633184858075 7.164387949719708 1.1849678963696755 0.1136335037574559 0.5360480125449156 -0.7898202654392075
P 1.348887232874099 6.580618983523791 11.602926113922063 -0.22478229341984513 -0.24540639742809994 0.056495878204199476
Ni 5.497713792427817 6.050219446076752 2.258391938043837 0.16003883049487275 1.0464469570631592 -0.03629240667313104
Ni 4.7494097948174385 6.675651354839694 9.424733729757577 -0.638295643062933 0.21942025777698337 -0.8988262977269811
Ni 6.486902671582106 8.746705462087954 3.2288798895868625 -0.5066453910130823 -1.8460780379452013 -0.1123806051869613
Ni 1.0669836336316603 1.378770063560012 1.3803879883011836 1.2144500367104312 -0.8022641476295151 1.0432737015415001
Ni 5.6701359768751765 0.4354711624313359 5.778598596056787 -0.07259252665574595 0.4289170857926678 -1.070540507677253
Ni 8.30085583702511 5.221783078037597 0.6339862946953578 -0.5639241701298934 0.7506471947841717 -0.3543828620295187
Ni 8.47394985597819 1.9186673162111965 6.1685092554666845 -1.1639728538964857 -0.8756709426564403 1.2874498261069247
Ni 6.58052695139972 7.235850894060981 5.16104647775682 -2.0908172341029476 -1.3599099409498645 1.031228340341192
Ni 6.807183666562228 6.105392704457427 10.341935081463388 0.6834660689519843 -0.06869550559418491 -1.7479709119581186
Ni 0.848261007885329 6.966012706284275 3.3548230904145537 0.7217621363187053 -0.5549764740183023 0.8216533507894044
Ni 1.1292433655658152 5.499278338537026 7.361208770579579 -0.6941803700456948 0.19599365132292698 0.985665049889096
Ni 6.222163063478942 3.675956302863575 1.5512262998932786 0.7340671789383034 0.6624722403091365 -0.10362522759183444
Ni 7.829218810797523 0.9625639856604967 4.101617761190163 1.5529607075943834 -0.35983000118701897 1.7493441381565615
Ni 3.307054736736647 7.512352207620442 11.45372087341414 0.07154891588258001 0.20207122497557456 -0.652176000589451
Ni 7.819214918910985 6.871891452996676 12.108947262023884 1.2914100963062534 1.381973605618123 1.5950352681669304
Ni 3.101639035809768 0.7849668348766139 11.60471797937773 -0.03846627439599827 -0.5781601112236172 0.0686530823920237
Ni 2.3930192900988847 8.485904828895038 1.871256047174686 -1.6045977150443849 1.1279920649265025 -0.5962894738344762
Ni 0.8620989580606718 8.295830883050824 5.723721681115623 -0.49149285164235995 -1.4623491186533977 -0.23328056069884343
Ni 7.70668724080915 8.886069707568945 6.743617078466262 1.3079340621032054 0.7935429657064333 -0.31667377751451914
Ni 8.223180724309033 2.190889136001347 2.2758495116588997 1.8735050238079023 1.1121823515877556 0.5824160582864937
Ni 3.4371513473236703 5.183635762610092 7.093132077657595 -0.14741599952453968 0.2670162623883917 0.3600660284572251
Ni 1.6040647032862665 5.293733792636447 0.923297559604286 0.1543975730486954 -0.16549214029996012 -0.36697355421033573
Ni 6.284266340802177 7.553389331743781 7.818402275255437 -2.9314489257670675 1.0745899951562783 1.9109755099495347
Ni 3.607015038721852 8.868243085136358 9.130578814158781 -0.007472654227961324 -1.6770616865420667 0.05772923639066831
Ni 4.5552772323016875 8.441784628615313 2.085425843743216 1.271462706650049 0.1708778300919057 -1.735143164065831
P 8.158923895282534 4.032497954727742 6.683501695022966 -0.7553543704518539 1.6062725316436466 0.636740125650355
Ni 3.1986869106428295 6.5528344852667 2.935803590482182 -0.04941763120117941 -1.6209812986087309 -0.9083100688477003
P 6.05147108296412 8.033281639500556 0.21270924675952033 -0.3580806225960801 0.9334719128253086 -0.09911756952946801
Ni 8.128028711231837 4.662568282543871 8.938458994196466 -0.21576492041258327 0.5363305767823409 -0.14390232994432636
P 4.375989451398616 0.7821469705950729 3.741097560602398 1.1133884560807148 -1.6301382825176507 -0.5103840321199081
P 7.561396126537975 2.325670181703593 0.17602892338970985 -0.8594195137945844 -0.19633123716800382 -0.9699718075235553
P 5.921816226572639 4.083695425348541 10.00129566031748 -0.6748317903157539 0.4766462735478308 -0.5407233065333978
Ni -0.0530445553509074 6.603737453090472 9.85862378029737 -0.7839645779893789 1.3753175337541863 -0.7468915843964814
Ni 7.9450596453659195 9.21637300086042 11.361640892638441 -0.954919284065807 -1.0377617705843352 -0.16165014084605064
Ni 1.9612505800189324 1.1982490521943878 9.146042971966462 0.3410298377613804 1.4472487726768495 -0.43020752246931715
Ni 8.584977410457665 0.3369296062245987 0.2261192475579323 -3.4016746405005356 -0.32576185585871636 1.6496930647211265
Ni 0.5527587419901322 5.330951583610833 5.046997508644089 -1.8105682750743655 0.2713138613224811 1.0621178308311967
Ni 5.672142277179928 8.075183865590164 11.41861890097215 -0.13705959599088008 -0.7235315695143023 -0.6043421689356236
Ni 0.33166905001269 1.3023005716692666 11.983557174261861 1.0980813934099993 1.68675371701885 -0.002317078168950848
Ni 7.867605409747612 6.17110364104425 3.3726165812824758 -0.22489439351767718 0.15873065320641053 0.24218146273289906
Ni 5.924264281072932 5.210619581387762 7.148843723964085 -0.18533102940275825 0.20931325124996855 0.22348362921307963
Ni 4.936244209894347 5.53251113853913 11.394683186143716 -1.7213270841183452 -1.3056887177124548 1.419766765206497
Ni 2.6459051606216795 4.420394951262962 12.41698890482378 -1.746063924743393 1.38463829693448 -1.9881888232067437
Ni 3.3206202718247395 3.9396559479647335 10.044359331812867 0.777574615302635 1.6405167975384973 -0.4095569360985011
Ni 1.1704093346628552 8.603448257758751 10.352589640467109 0.6077591650369727 -0.4033166116157441 0.8489062729680863
Ni 0.2643687186431564 3.264453066504097 0.4354122618719304 0.062505317623073 0.24022716722000564 -1.4244939954788371
Ni 5.858139199927788 3.2037486774667445 5.85405573458275 0.3608540715761592 -0.05822057420479006 1.6618726375064539
Ni 6.6982912573612055 3.9312350086122203 12.391073579006576 -1.4508475457717014 -1.2373251415363917 -0.027213070079682166
Ni 5.5789689547702634 0.6456329599965659 8.208003706728455 0.6469474052006601 0.51470271409992 0.3220687232778453
Ni 4.359285620879697 4.82477490121933 4.957383068472256 0.541121570413081 0.8085147565249171 -0.6311945132417776
Ni 1.6260971937889077 2.672079096707524 10.890884613838212 3.9487963943611084 -1.3920872970133573 1.018678271590323
Ni 6.3201128531279025 1.3042240430623544 1.6420804127763498 -1.6609794362682235 -1.974010731934149 -0.8662419360330565
Ni 6.0248093766206985 2.2158114351998233 3.8920946665659875 -1.5726188481449432 0.4752527356344138 -1.8274419109012527
Ni 3.429006504343371 2.549418681745452 4.159591557106323 -1.1599472776768605 0.0697357739332412 1.3840739397905775
Ni 2.4661572190982537 6.188240022546305 9.517769924302375 0.05485705704919584 1.656979828190527 -0.7697954855778484
Ni 7.342120387725975 2.546436840925546 8.440708773084921 -2.898504609630563 -0.6860153177363991 -0.990815483741784
Ni 0.7806081934806027 1.745223575186646 4.389615727688596 0.6356252953196214 0.20376352507633297 -1.2379085248436874
P 6.40886863358215 4.706688482823597 3.6889420355700184 -1.502117142579955 -1.6021957904711117 0.5590115633196244
Ni 2.4092537567850414 6.71523437140271 5.139683981117417 1.1418145726318916 -0.8666312010516752 1.348278270248207
P 4.6011460429387645 6.960803688061846 6.4599160918407135 -0.4629487214560801 0.04366530209843448 -0.10723582776122821
Ni 9.331781284445682 8.890036292116413 2.519909501483268 -1.4517129790957901 1.568271369809525 1.0003432207265612
P 8.29619901154711 8.10863754269004 4.582786554507804 1.4632646884891316 0.3099120333106534 -0.6657529679429374
P 7.173020562957585 8.802532148549533 9.510132178325707 -1.4055385374222569 -0.5904402141425509 -1.2845223680474847
P 2.4842783443278695 3.3241082893270373 7.997092767673285 -0.6147199126255221 1.9877543067724865 2.305555255912913
Ni 1.8893090686324894 3.0161872086096753 5.998385113157381 -0.6936856897974635 0.7881379926407781 0.04797781343085931
