# total energy = -340897.69043655833 ev
CRYSTAL
PRIMVEC
9.00003771914298 0.00000000000000 0.00000000000000
0.00000000000000 9.00003771914298 0.00000000000000
0.00000000000000 0.00000000000000 13.17246493972525
PRIMCOORD
 96 1
Ni 6.214273867744229 2.2896545309925247 11.381588677381668 0.938555497995803 -0.5160355739787307 0.27794087972069553
Ni 4.720393649268471 0.4467501596571555 6.055724707762193 -0.5718411109841248 -0.6939649116007791 -0.25619963138886204
Ni 2.7305933664592676 1.4783911540004602 4.781815304944309 -0.34307309344365433 -0.008153996565702086 0.07696623024340939
Ni 3.286984682512368 4.17573838206824 4.870123672539673 0.1749805394063696 -0.20638810718337358 -0.4448350425745049
Ni 5.085777170226135 4.446378508643882 2.6290135436197 -0.06863148512546889 0.6990292134975639 0.6399709738828269
Ni 7.115735620199067 6.193447781052864 2.585240961410485 0.17786531715333237 -0.5531214230874345 -0.2968318030879275
Ni 4.968443681809831 4.717594637617211 11.321812228554224 0.8833886230156722 -0.40406068887062024 -0.002150470684099522
Ni 5.525546000822577 7.771406349515973 12.343244480402275 -0.25697199077851224 0.6176239736461944 -0.025195525429021128
Ni 1.8343876358833213 6.3642594920794044 0.5338327221499424 0.41861981763171774 0.346325538942681 -0.3443874413797037
Ni 2.7952136354497608 1.5687425301001199 0.4227164596136719 -0.3706792851966971 -0.05728289288186908 0.08603579664484538
Ni 0.5669213598858125 0.2100023741629059 4.608110081873138 -0.16646530284650687 -0.54426294425554 0.33297225756422655
Ni 8.548388583808206 2.18993411589299 1.2555691264740363 0.6029568585523228 1.3141229645227368 0.35253501018750255
Ni 6.736231040460612 0.735711662497971 4.68365459633726 0.05375739622711387 -0.4535881061767866 0.10089240204170366
Ni 0.7225959079018923 7.374846698783509 2.608451158026026 -0.5856245379214623 -0.4385988318568059 0.29618362798096737
Ni 7.448953007260907 3.8100938600241245 3.8337801586215035 0.5753637794254026 -0.23402900882909375 -0.5153215786308415
Ni 7.571542517556102 3.9809235711255933 12.558469576305455 0.7877813806323078 -0.382731845485857 0.28657850079103553
Ni 8.0855526571919 8.792415599603224 6.948659824723773 -0.7479295387426925 -0.023758535872178438 -0.18234546441187308
Ni 6.859684554352337 0.7943289065000713 0.4405554338707827 -1.3960120859890603 -0.7028318750731056 -1.5404085819609856
Ni 2.004209342788838 6.441119812020743 9.097443969324516 -0.15299683604642683 0.1512330592777847 0.44946688491956144
Ni 0.14217989184277277 4.734946709847527 1.3791702409801694 -0.7806280574169782 -0.1094649742020631 0.7909705769935668
Ni 6.480341975288231 1.8172695646270653 6.968023405327261 -0.6513059392796718 0.35604610866455455 0.6601443635069082
Ni 3.472403454342748 4.459149561805095 0.5614133369579319 -0.6200832338199643 -1.0963662104911052 -0.07693434856420943
Ni 5.990460936093034 5.647280507558705 4.771501262010728 -0.13415810607336895 -0.21615187143835676 0.16182394741975356
Ni 5.459341725238445 2.8527238748438064 9.177651403198663 -0.2245814902629487 0.3266794825769793 -0.42288270667312977
P 0.2447812189344883 5.54657908837561 12.509283471561732 -0.30529458914330004 -0.5062237300946314 -1.2352515468368146
P 3.824826921352458 6.24493699538359 12.53020135863523 0.7121032730727026 0.8120369107455628 0.543411137778206
P 2.1906361188151706 8.384740902602896 1.3354507589919915 1.5510753176462126 0.0928348218445498 0.6859818933953025
P 6.490827018933624 7.790486428939349 5.799954443084335 -0.8675922794133638 -0.43472752182685775 -0.16997383022039758
P 4.703410578574173 1.0661804381183484 12.650861260898173 0.2978882693768999 0.07420897921324639 -0.6707496498265803
P 3.9878085997854433 6.120241476321851 8.125619023973497 -0.42786550459970185 0.648719152389102 0.07736732233656998
P 4.568581017328132 1.0157982283956772 3.754376428092879 0.9821344110280182 -0.5224769587287003 -0.05508485678928578
P -0.015741965528032174 5.419759560472402 3.5890880400579075 1.6346330850642108 0.21601303186764734 -0.07501553427494177
Ni 1.4336969679549465 1.0465333563347488 2.4573756291539772 -0.4396139033848816 0.5261546646906035 0.3352235154922485
Ni 2.009123363244104 6.336053374667677 4.734842309412946 -1.2418700805945966 0.6585939883006529 0.2169049475542974
Ni 5.979651891098942 5.588429262582545 8.962505507625163 -0.14979221306620008 -0.017587374064460034 1.24040480890298
Ni 8.664867068665444 2.4511962034312926 10.180168276308926 -0.2576157950100983 0.14451708071018984 0.3575188365553391
Ni 2.2951985540702604 5.179404559962638 6.880334240309411 0.44585628475016764 -0.40250722834057123 0.867666327184409
Ni 0.5143881412092796 9.038287623078332 9.206222022127678 -0.0034514488837101846 -0.2076957702512036 0.2546739387729549
Ni 1.405994852641195 1.0232772595281425 11.362423097602385 -0.4776510606632613 1.235792249831633 0.07266194644110066
Ni 3.999139646952439 6.884938659475919 1.6832698068351923 0.28120360963236735 0.2372912245201333 -0.004592761577004993
Ni 5.638694471818186 7.857680708644505 7.958987830348918 0.027576624066687993 0.25223344765226235 -0.10551884507012149
Ni 5.209563685504023 2.8675019363594596 4.735856613635123 0.161372975925264 -0.2588283272609607 0.3777400486982204
Ni 0.7913606941444913 7.197806961831979 6.8504064157308475 0.46006008705437546 0.8161054243879815 -0.16034967686707224
Ni 4.939724562262664 4.627711263465672 6.917071493233128 0.26566566189776825 -0.47474545698069204 -0.5039123083526353
Ni 8.081079638572362 7.183865903800465 9.000442465542813 0.18552077681606113 -0.24867169844293302 -0.02570846050969766
Ni 4.767967847302419 0.5131272359605932 10.47282069451367 -1.1399492372883788 -0.8781890810926036 0.15991567465344717
Ni 8.366353826064236 7.057622378294943 4.7833831114705125 -0.7238496149753534 0.8135610606995731 0.15457960715251443
Ni 7.159709803247472 5.961696816358548 6.922498515823834 0.674401901867187 0.19028683074613678 -0.24679350758361368
Ni 2.3653358460260976 5.136222380211053 2.681781663274039 -0.7146314388111951 -0.32604467720645786 -0.5411588514089196
Ni 2.477971314886267 5.155689461245376 11.40155886051022 -1.605345906064319 -0.6435098402740207 -0.7504150241687076
Ni 1.0418623368910072 3.1879392702226217 3.67899031428812 -0.8331978610938942 0.48529854990619004 0.9315541269773052
Ni 3.6471571817784585 2.645345011601615 2.55026861583343 -0.4090645698431149 -0.22667642511876449 0.3268797715132435
Ni 1.314635472345583 3.1951573002686353 8.164715186716492 -1.2905423489893193 1.0213743303652474 -0.2225220366307587
Ni 3.652917205755327 2.6323309574288776 6.935237168850177 0.08614018343319359 -0.45054109182034663 0.6262543956276827
Ni 4.0644619188651125 7.0087701749411275 5.975082572078541 0.9133517450366658 -0.6069618659466579 -0.061062671639275486
Ni 1.034626306770066 7.2149880333504814 11.356113171336474 -0.7100263359390159 0.11508360594042115 -0.42610121361042747
P 0.22016521646709317 5.525573000934968 8.020937788223884 -0.03577664337897709 -0.8350608824445618 -0.42121251805955845
P 8.481815306688057 1.6347488048600467 8.088564969731053 -0.3970788582361484 0.32959588489282593 -0.27224125823275697
P 1.8472576894566366 3.1936362939372436 10.363014837432136 -0.5577198410913943 0.5698837301474379 0.6595152145633416
P 3.9861165927422384 5.98797692575301 3.861178972672723 0.6327256051743232 0.9428088739555183 -0.4040290643017364
P 6.948415923708503 4.153535289644905 10.351924091265428 -0.10231216520736572 -0.5090478298069878 -0.30855011996612025
P 6.382196566744872 7.743713234239685 10.21710353005685 -0.9437578681323487 -0.16761432884928554 -0.020798424802589987
P 2.399778989400278 8.377063870646225 5.719589508554571 -0.6202231018319383 0.6098397017150852 0.41637267346875395
P 6.926680833233289 4.036912804188247 1.5809987811184005 0.3247730095828858 0.011173500118316242 -0.2673600188810557
Ni 5.391562443098138 2.9914324522367695 0.4149449272636314 -0.6699268968149689 -0.18320909796374898 -0.22035691065863985
Ni 1.3399795778438042 0.9141428052414131 7.137460810633072 0.6835540006801002 0.3806947604511701 -1.4670305832894668
Ni 6.830155431433423 0.6706557916942275 9.327461526803294 0.7047224072275992 0.5065659439253986 -0.7810301779514033
Ni 2.730368365522671 1.6071456899583976 9.24191977072432 0.9239032953002669 -1.1058535811562504 -0.3751085246126443
Ni 6.216460876847946 2.019914408163268 2.50461232578303 0.8535445430710461 0.43041218228095557 0.6428768346757122
Ni 4.238639643903136 6.890194681354813 10.373276680148427 -0.44959569718794185 0.6518510131498644 -0.5907178932839697
Ni 8.059668549445847 7.1660278295471 0.3026982600219005 -0.09884786080784912 -0.5589652834627212 0.12064567340923095
Ni 7.616875706261549 3.7679376845434183 8.118913996062924 0.7171372359521843 0.05849028292640895 0.06574310783408031
Ni 2.814437715472559 8.439623131057495 12.385725557235425 1.8459248001967887 -0.8079953936863374 -0.015849822548063025
Ni 0.1611069706292639 4.936835550236766 10.107442573578485 0.2882566598244068 -0.48776423783786316 0.6184284718253608
Ni 8.458352209019782 2.154194967124014 5.735910176491529 1.3036511184571355 1.1348481686163876 -0.19106330390084514
Ni 3.6414331579514454 2.7334643784102384 11.543583951708614 -0.0354295444522035 -0.20790582937948066 -0.12832658699325641
Ni 1.24124016682783 3.291349700682338 12.652691868518321 -0.8741316231937784 0.26730859681783 -0.588770796859928
Ni 3.13960906904171 8.356021783055729 7.957380423657874 0.21289916882901397 0.00020080315689642835 0.057590396819958874
Ni 5.387944428037668 7.81559653346351 3.7634520658714323 0.04345987095584773 0.44598869656297385 -0.37630151647948096
Ni 2.947386268888654 8.365840823928796 3.4759890692683486 0.24934018526486737 -0.24722313892186454 0.23907042790774313
Ni 3.496847556094584 4.223492580851465 9.277103617181776 -0.056986958908005085 0.4086233685406382 -0.6317717259014861
Ni 7.300452389107267 6.084574327852587 11.330796065950645 -0.15462023058246274 0.3065706276422462 0.008881875870662123
Ni 0.46234182455954126 8.982892392488292 0.2972442373188031 -0.23170653134350416 0.5413455134984289 -0.24209713054920887
Ni 4.67713046917971 0.40350227963208374 1.6156552253804741 -0.6062769240644914 -1.1096135624193146 -0.1269713585169426
Ni 5.644850497443463 5.53937005836706 0.45396548969192957 1.283563603678641 0.7706925434708211 -0.3296305947855033
Ni 8.104488736015854 8.671455096088986 11.277856045580746 -0.24356805866778053 -0.0895047290300523 0.3299794934844898
Ni 0.1382207753624221 4.837187135436943 5.780947263964416 -0.33028674031226346 -1.1415250664159309 -0.13706653796941556
Ni 7.645198824160307 8.78995858937559 2.443795472624763 0.9163789618987638 -0.26083918704340237 0.9282068077716272
P 8.293669523506127 1.6521818774275376 3.4394624172212858 0.5220560691411977 0.055226010352840374 0.3122378532303526
P 1.758859321486634 3.1907472819113454 1.6327534965543098 0.44544156581025224 -0.2974308701245071 -0.8492358883933632
P 4.683403495292018 1.0622564217841068 8.223793232636742 0.47682393677627555 -0.15478658095699793 -0.3463335093624809
P 8.33777870711649 1.5893886160422077 12.259546831999645 0.4400664175412679 0.7241517195968044 -0.23646024397840565
P 6.2101698506607095 7.746323245104204 1.2359067446267482 -0.7313844898998179 -0.7603322832824196 1.1156497413110655
P 1.775338390082956 3.05394671246072 5.9606591120389645 -1.3082341098421275 0.3236944318067264 0.058479484293131545
P 6.793030276895013 3.7868377632175183 5.923920959111501 0.37243586287648767 0.8704994257578298 1.0295406682261237
P 2.430415116927247 8.538605543084994 10.090068001254508 0.5832892049200664 -0.7207807462420425 0.3455794048052758
