# total energy = -340876.1912159167 ev
CRYSTAL
PRIMVEC
9.23292978722322 0.00000000000000 0.00000000000000
0.00000000000000 9.23292978722322 0.00000000000000
0.00000000000000 0.00000000000000 13.51332602244542
PRIMCOORD
 96 1
Ni 1.4781551517999085 6.0861719912965695 7.987781625435669 -0.8665512397433592 -1.0747496606625941 0.8953267692141548
Ni 2.772168748860802 3.7386441562723487 12.531258438060254 1.4648019510692645 -0.2062400116412835 1.2767005580102206
Ni 8.263075281015084 0.9714704225095118 1.4167644773306354 -0.790883159486083 1.01478536429382 -1.495048665768948
Ni 1.0524155193003735 0.09668816563289416 10.236574354259123 -0.6779862767843355 -2.6688014818703327 -1.5040377566414356
Ni 4.991645078536275 4.4553872746455445 3.1873339066991564 -1.2114277049443394 -0.33242281281865976 -0.7769747769351071
Ni 7.288391798886178 0.6986447291032688 3.6665709818615877 1.7071669905678792 0.6925148094178137 0.7236128163741988
Ni 8.843207967984425 1.3335767018571572 8.395451490748094 0.3194932492411852 0.8136340800293536 -0.2626289319539735
Ni 1.3580808979200003 1.4205509018993512 5.756217543881719 0.1309869074342389 -0.1365602877569584 -0.39007774432796694
Ni 7.0372745703567094 2.8499100189622113 13.33020694816123 0.341356882083496 -0.32163266418169123 1.7717775274594132
Ni 1.6975388001229 5.8033119496306815 12.099075143755046 0.8989556242159937 0.9489224430524239 -0.8622523552576893
Ni 2.6170278270657925 1.495614622317933 9.37957287386247 1.3105756134911108 -0.2308017601410477 -1.2291703736397412
Ni 0.09104776873206863 8.559618524853216 2.54826188815982 0.1413116863990147 -0.46161457602568884 0.30467315350921725
Ni 5.0659701645595945 1.6497860864691603 4.191752962995353 -1.1739978422326556 -0.5554567560888305 -0.09024829206429619
Ni 8.817429627589753 3.4099703162402863 6.817743195154665 -0.2524833588795394 -0.5766110215689425 -0.249225514063874
Ni 7.009151065757078 2.9190000337091053 8.710947169875674 -0.1624484683776299 0.5947437266139112 -1.0173019600680866
Ni 2.648493652303988 2.717759092719756 1.3663055919112514 0.4959760842246942 0.5078741212138608 0.830932462098485
Ni 7.375799946635589 2.667356528173011 11.17538605698209 0.3530394606277468 0.14000916553750725 -1.4283339380502176
Ni 3.6096047274199385 7.551179450860801 3.03936327829616 -2.3351496817405786 0.6160352890028359 -1.687227314221159
Ni 4.904818605373134 3.802849951080568 0.33180657316097123 -1.9553509507411164 0.17084209175796383 -0.053319794469063014
Ni 5.639861390888965 8.757147828006369 2.6451799537482397 -1.6680728527798951 -0.7355766736042945 0.40416944653434267
Ni 1.8980134079271638 4.245051897664522 6.5067744215770515 -0.01045179146094329 -0.9546639735218913 -0.6243975449246021
Ni 8.97171188690027 1.1410701125917906 12.582203898887517 0.05847177098364769 -0.5507817192106643 0.04458447147859418
Ni 6.622605220856175 4.90877029938779 10.252736598120467 0.9700124309535036 0.22611875284308153 -0.6404718247786454
Ni 4.271919723792207 0.7363824836502392 7.579029660734184 0.2604897741237836 -0.8105783239221654 -1.0212717433491119
P 3.949995155546857 0.49405315783840903 11.22012791218214 0.2054198297328333 -0.5060134138560382 0.10281687275792616
P 0.890843861801607 3.8775074225817545 8.601908113860992 0.15763562037001883 0.11517745120580809 -0.7311934569349342
P 7.389049201100617 7.584621123106323 3.576950624098364 -1.673567300235563 1.8683777298836663 0.35714679792790105
P 0.7028817206530951 2.5958936504313357 0.5007008673957741 -0.5320818288083159 -0.6183968472564769 0.03392339222032222
P 3.664420632478379 0.9649796727611398 2.415615153579545 0.13506724815119964 -0.040668681363955766 -0.30668324196071056
P 6.156573082095055 0.33208079118021255 0.7337400191011865 0.050244240867532826 0.26035401987686774 -1.7726691860357469
P 8.539619998601474 2.0183277179855326 4.906756597367704 0.2032742441447402 0.7083852007911671 -0.4570752933944386
P 3.650118824000103 1.9458399850204298 5.738447846917685 -0.7705267073169182 0.3002657684701409 1.2210251188247874
Ni 2.509454960325707 3.064714134034573 4.154402068212901 0.38875491175148535 -0.2591864819313278 -0.37846818511349656
Ni 1.7660009756338204 0.5048289103722992 1.0247481214398173 0.3078307253015924 0.025783536722007207 -0.09023800765165105
Ni 3.9049384574358266 1.4269862540680784 13.318964009372335 0.37671700675034475 -0.8116743851998214 0.9184921515870246
Ni 7.416692593343326 7.8050480925126235 1.2115035186450687 0.039908149048847395 -0.17242229176089013 -0.8303279957452668
Ni 6.599522896004213 0.2794106190400107 12.0358868178263 -1.2728996962068915 0.38397960185002905 1.2589365491585804
Ni 9.138052352713451 5.408327206763901 9.90709263285724 1.148045641143268 -0.07930464856859891 2.084545799271939
Ni 3.538049520378855 8.765438999093194 5.018038332065004 0.5049502626988466 2.14984256359722 0.2670232043669273
Ni 6.787616144757884 7.907081201288238 7.451396407111755 0.8997346684738634 1.3823261038615353 0.4593653749801959
Ni 1.8693082287412635 8.335221395572377 12.300275459852655 0.4438012019933518 0.08813253127287402 0.47075279088153116
Ni 3.0782865410475275 7.8231815669163245 8.265155460130742 -0.7427909319645466 1.9349150514842677 -0.04764357001989214
Ni 6.824455535221616 3.399629434706607 4.0869435121865445 0.9455440134984943 -0.3718632782024693 0.2118113350814739
Ni 0.10853770791889758 4.0568201549617395 4.367723374736774 0.30867764668292 0.09798679835913447 -0.42047024057689525
Ni 8.102136079217262 5.6021818038006215 7.847485408399454 0.5196929682256598 -0.2654306630688268 -1.6210926273756145
Ni 4.686515209853215 4.0553798178909775 5.421533066458205 1.2039221405959135 -1.4993436935998758 2.2301239742567915
Ni 6.985717889567366 5.6508485775185 5.087010165308655 1.4457994418248328 -0.03719254988989724 0.8140110037527981
Ni 4.8141881650743885 5.1462135586749564 11.541299073344321 -0.9347654348257515 0.008689043133565682 1.7130237064589722
Ni 3.561482696568567 5.805121603899075 6.951363080550699 1.1473969518156755 -0.7754984494998967 -0.4111654182362015
Ni 9.166572873300536 5.959108409451487 0.18076507225967015 -0.5484052485586878 0.4662582454452873 0.4248195186845264
Ni 3.012991260506296 5.1306837705145565 1.5538430182824872 -0.28688780450133816 -0.27906162358870007 0.1352027452877994
Ni 7.703929043801147 0.04520534828307723 10.058306789548435 -0.2726564913933046 -0.4123977479814059 -0.9965156194503547
Ni 6.538991807312427 2.087288471713255 6.156631249553682 -0.5849293116266506 -0.3998762184756275 0.6441289619152584
Ni 0.6332922043964048 3.6184775730930325 11.91937555161054 -1.8623880879591346 -0.6805643219241568 -0.47998587944402504
Ni 5.872291169218286 2.0196757257568874 2.0360253980960294 -0.09891985169636512 0.35882007186526593 -0.6246137747004663
Ni 0.6566155087198217 1.581951750194213 3.1562133930407463 0.5250112951147797 0.6730782979597569 0.7686642001868826
P 1.5304596999144553 8.600557336210656 4.138753175256265 0.6470430502382598 0.7379960816790645 0.2581305298629877
P 7.569312925264502 6.917560400744492 9.482071322307098 -0.560570680276628 1.0476762014845697 0.11488280278352474
P 0.17004379401243064 5.643923880062911 5.888742403786776 0.4366298810558932 0.47385739794878395 0.3650855931590035
P 0.646975406568648 4.941657995836866 2.145024752511966 1.1183961937079512 -0.12008671558196739 -0.9504064837971181
P 3.2544877760374673 5.0512159425142205 4.326588825264588 -1.767706185603517 2.401791390129528 -0.25646625478668733
P 4.541493579273305 7.716375033361325 6.630745895184966 0.8409875323416419 -0.2128199788516464 0.07774141784653708
P 1.442626837387768 0.41927750483397985 7.6931098964965345 1.2000456883596429 -0.3163693589002229 0.4569997029614968
P 0.16390758877378497 8.329626240028261 0.21537932660767295 -0.34757432374811753 -0.37849363903479327 0.0032655581251492143
Ni 3.869013127036233 7.414199702259315 11.376652850175274 -0.15991387488123426 0.620100460211145 -0.007207059271400491
Ni 6.627240151686449 5.442636774423858 0.1469984008802314 0.6791895530638173 1.376465017095068 -1.77806567446097
Ni 6.078111643458264 8.58190681773027 5.28977823291021 0.09725840483354217 0.024962326372292495 -0.54661396098622
Ni 0.9345479356763127 6.584482453130675 3.4203712118185803 1.2076389273258685 -1.7206933071890882 1.0385667829841339
Ni 6.781864029404775 7.092081242485208 11.538718469425872 -0.9604659249156491 -1.2804682525827689 1.0473890092614542
Ni 8.883906723163404 7.7896290995115125 11.58056949426146 1.011730122407264 -0.11551889370562686 0.31788065333842674
Ni 2.5101658959311473 3.7227265850544358 10.123399868923961 -0.577260225117167 0.8297011607945453 0.003963355523122206
Ni 4.269870013345352 8.234554760427999 0.2633804060768199 0.1664053961428489 1.2621643120672588 0.7784570179075884
Ni 2.047429913158887 1.4680266276548675 11.744851016697847 0.6178453456283811 1.3488436558333738 0.942422694260693
Ni 4.981128771333721 6.557568462353286 4.450465199694112 -0.3196416018935914 -0.2248895084216708 0.8813541090841466
Ni 5.040542675502674 2.573937743032149 11.722296815438499 0.049637974742101604 0.49469130397499966 -0.007982503984844316
Ni 8.306654710335588 3.4137188857962446 2.107781883009822 1.7119615837430453 -1.3618593513667514 -0.12266347517020809
Ni 7.86441583203187 5.840659151241156 2.6737327895901175 -0.0480541751947495 -1.9666144394700777 -1.0095277154393065
Ni 5.513093262801988 7.841518165778724 9.759324205619949 -0.16615239959177835 0.7696252785485713 -1.3605894835153922
Ni 4.167412189792461 3.136213943496012 7.796107846450961 -0.09440602298641161 0.8169924549786252 -0.16819822637721354
Ni 8.900193611578949 7.732181809419949 5.063754261373806 -0.2449687956700491 -0.31421143201695567 1.0968050978007367
Ni 5.750444192789747 5.997185012527284 7.762986556874384 -0.8148985485640741 -1.8335752774925003 0.3376665777161023
Ni 3.905483200302333 5.950771073714957 9.405518330289068 -0.3020560276013443 -1.174582511091532 0.32929326605074255
Ni 0.07425306916978078 8.046295318935393 8.004388896520158 -0.36071240379197234 -0.3171846557126667 0.15652696068687236
Ni 2.0393603323906406 7.130287106580178 5.816595365936489 -1.1804415409754703 -0.39507879708698407 -0.4231580718217035
Ni 5.2832948695057915 6.400553255780298 1.7376789630404625 -0.4924778412634486 0.10558646508326332 0.16089243674441966
Ni 1.8970531832133222 7.188971609283806 1.2165659341316009 -0.16643419249825528 0.5501227454704268 -0.825253666546153
Ni 5.323116496340397 1.4848582589369184 9.64836654676357 -0.7155902031800385 -0.38675073683726297 1.0408190693534203
Ni 8.181160726580439 0.3610435691114609 6.238495022873652 0.25589058478887544 0.24760160530720582 0.815816175282337
P 1.8404091580266064 6.9188991755859055 10.06822572618382 -0.18079148966119188 0.21143261158581653 0.7676234176271941
P 6.5494988815850395 0.7599938553878085 8.111144648960485 0.8748618164915837 -0.2009078007950927 -1.002997884740589
P 4.629843485876677 3.670117350251843 9.889011786154201 1.078226306357285 0.4592363056014995 -0.5422507989215177
P 8.003196001971808 4.725099624075756 12.23501988091017 -0.2746156720022045 -0.22973680921164305 -1.560224331135332
P 6.436081570192438 4.1753248107517145 1.7491241029950597 0.015271581447089828 -0.08605867946298082 0.4708191253430924
P 6.6214788034034 4.149657265516332 6.772392889871519 -0.5206046814066518 0.7987733608674371 0.3217797312825168
P 3.9456187467549255 6.272003172214748 13.253653956143198 -0.622931759012353 -2.2125898220277698 0.6829382214729722
P -0.006243307225958788 1.8667507071476659 10.488462532438648 0.14480530137456996 0.5484060198896362 0.22702789492091222
