# total energy = -381168.3872304837 ev
CRYSTAL
PRIMVEC
9.31441432611927 0.00000000000000 0.00000000000000
0.00000000000000 9.31441432611927 0.00000000000000
0.00000000000000 0.00000000000000 13.63258688170211
PRIMCOORD
 96 1
Ni 3.205686060725965 7.367189366990441 3.7890822875878443 0.22750920543270495 -0.8090323195912841 -0.16023423433513048
Ni 8.37922841685056 3.2143484659643837 9.259171375473336 1.3175263337773309 0.004697405475669329 1.431408463210483
Ni 0.5102268458399456 4.504134033893759 0.4861425649528711 -0.17824532620057046 -0.6196242919056749 -1.3301787324340189
Ni 5.278161856810531 6.326135916788736 12.60312153254297 -0.5101891425002826 -2.0561402515460525 -0.9882531223312464
Ni 0.18406586546073989 0.03041156247681418 0.6350250935242786 0.07812425510725256 -0.04010458133036964 0.3950412589808293
Ni 2.980454210112843 0.8548126690171257 0.34786542842927387 -1.5304141897524355 -0.1041877849635238 0.9566018139745525
Ni 7.2284791102049235 7.571622130617124 6.098265292622879 -1.2780431880810441 -1.081401104540841 0.16175632740661175
Ni 7.493502138429363 2.4251288334305574 4.809427000621188 -0.9635671895487921 -0.18079200388182412 -0.033095754112704295
Ni 4.731908719592998 4.701841790442874 0.438334471009611 -0.49559684650840446 -0.4468132493467983 1.441233162610389
Ni 4.249897097353287 4.024134325128778 2.963151754230169 0.2525923736535779 1.7036466361194467 -1.4527236797484915
Ni 1.0111262372651035 2.363672328308959 1.5014248938495687 -0.7377942500809035 -0.047007736208106145 0.6620462085153115
Ni 6.444838811797777 3.644544001815575 12.576825078275116 -0.3434510456083633 0.39871048030230044 -2.214983519070927
Ni 5.745065499161302 7.265261732018381 4.10569878770059 0.24621886602706627 -1.6461164031134616 -0.25230389587888163
Ni 6.142865502303653 1.0991753950272245 12.543493446935672 1.122774525281305 -0.9251821620126905 0.5575609469160269
Ni 5.158928040190103 8.092838122371356 10.30590848124115 1.4800408795062059 0.9953015445375956 -1.3261621550754579
Ni 8.544205321778382 0.3315586834283064 11.843528257365959 0.24193772215320916 -0.04949065053095992 1.1872063705031295
Ni 7.947589146792967 5.916655638195871 8.567249182595422 0.11287579965582495 -0.5560848765911327 -0.3163960983731003
Ni 4.943960674063795 9.124679616894786 5.663876407483154 0.3076625751548443 0.19375961978608566 -0.3509686941416471
Ni 3.793416284531324 9.160512168456288 7.708504899329763 1.1811959026429917 0.5182544360069203 0.32787530265729337
Ni 8.842415607921623 9.115495604459214 6.085804469259484 0.38255932446373475 0.8089438736425358 0.5105742937538432
Ni 7.576558770161599 3.819617731773982 7.335258623551922 -0.8972970055666483 0.1664925565400165 -2.1229976754902338
Ni 6.832458160181429 0.7313640799554237 10.030720632762211 0.11987254268863226 0.8597537572055516 0.2717224096148095
Ni 1.9490411786442166 2.9877008243875633 10.575956635945298 0.382887911447747 -0.6364053680187556 -0.22058676728125884
Ni 4.718253788324695 6.667574399395957 6.149278476504354 0.0640045278764188 0.2666542510632827 0.8380929844026663
P 1.0942201266542795 1.6934629664539242 12.721520777647953 1.0099002682873768 -1.8931852758456493 1.2807140500449878
Ni 2.6212531395597454 3.1434657736371077 13.61407359026188 -0.003089180448285003 1.2884188748884133 0.07180808308123762
P 3.3090853731471332 2.317323803076301 1.9993278382153725 -0.033060787109710804 -0.31491257184903826 -0.18322555302398122
Ni 7.27124158595716 4.776664479991495 0.6884115901527956 1.5277402424646982 1.995742981404918 0.5411159139861261
P 6.326219746516849 7.94309028471753 12.171950777521388 1.1481227742381066 3.4367182623682297 1.1033202732114353
P 6.073966780208402 6.903806573220447 8.1936070442126 -0.7941518029350259 -1.376478643941823 -0.03143713546335876
P 2.8159057682398263 9.230360960803495 4.784151406153475 0.49160675151240496 0.45766021936363116 0.3504488170824352
Ni 9.258527749449707 0.8578743169761238 9.739665679634188 0.5515975302437404 0.298336412657912 -0.6317766109974925
Ni 4.12894011409941 2.2375737883974396 7.087390883465246 -0.7211324731545065 0.6596689665323865 0.7087253577394051
Ni 2.0944950713357726 3.001905306095723 6.101427536255613 -0.2368405101359599 0.7391543636532238 0.5039627019745966
Ni 1.7708750631598364 8.184100753044502 12.904129868722363 -0.3422092027814623 -0.0010626369365594602 -1.0863689900690774
Ni 2.707821305458524 7.978960093935971 1.3421865995318452 0.7917542492371268 0.44353740680900383 0.3062952624936725
Ni 2.6581382199297865 5.771956213057339 1.606423491194862 0.5971304816785329 -1.786968890487871 -0.046609472328422955
Ni 2.5162051758190076 5.022760618490701 9.50568945693738 -0.21157942157632592 0.1699522329538428 0.6214137797059298
Ni 8.196256063620995 2.268628045456459 0.020283068437828657 0.6250382638323946 -0.8127786740075936 1.0290547297286405
Ni 1.7877714105818703 0.39524040211061295 2.646698256366533 0.5684400557223759 -0.7106755394872405 -0.5612538223865818
Ni 4.5070121878923315 1.1491751706399467 9.48868971951734 -1.019244171396122 0.5117384892652735 0.8833760246101818
Ni 0.3927040871144609 6.5229588039855395 1.5767859565409648 1.1725184294736517 1.2340009622591652 0.2086771603278664
Ni 0.6051966133785666 7.5570637011680395 10.717653093934512 0.39354127739653516 1.5449429794962295 -0.28723927430348595
Ni 7.563583791132441 7.169174234771576 1.3485576588684884 -2.654521060691919 -0.6219130879398514 -0.4817226596294736
Ni 4.137965781492988 9.153069951482635 12.377857081480025 1.0303037716443932 -3.3412362327088196 -0.22602130803326878
Ni 6.013702520108866 2.951905530483 8.893177302618756 -0.2203157730080593 -0.06287504225766591 0.2827894660622485
Ni 2.0675670997827957 4.09130988059058 3.5091366363177374 -1.1622206470920693 0.5407433611380558 -0.7002733703173102
Ni 2.5022056112240145 6.026127948698167 6.654297633345589 -0.9187497761237854 -1.1733905476659596 -1.384314337936158
Ni 6.902195179557817 5.692262084863886 10.713359148972241 0.9709405991947277 -1.4342356482466332 0.9306334149352489
Ni 4.902939993773477 4.723358087325399 7.857973304556543 -0.21003933078271567 0.5649009322208658 -1.8469750958381737
Ni 0.8937254973660956 8.320324061229314 4.3481678932967425 -0.8362739289160566 -1.2062564451560451 0.09359124039460011
Ni 6.173621698107158 8.938717336695829 7.908467675565136 -1.6134898753276923 0.9320045842511625 -0.4026095582463905
Ni 2.034072466194243 1.4390956281141636 8.448059143721897 0.06620822039595695 0.10228002641784965 -0.02356313203192071
Ni 8.202934498627387 6.508474889850333 3.9017829740639423 0.34604297470525563 -0.09709642533438118 0.41299372969419196
Ni 3.793518743087908 4.340572919929638 5.29315154363869 0.868170263404021 0.16522525979181865 0.5240165353016782
Ni 1.9428470931780353 8.449067894783534 6.854287421382244 -1.960994779290455 -0.39662171609407176 -0.9866623808053588
P 5.323504425305824 6.157284215539215 2.2608281549761884 -0.06875206986373321 -0.34631654008161644 -0.3983163301876753
Ni 2.687562454497706 2.0316134608362404 4.087690299218914 1.192743755381591 -1.3344351937175276 0.6274497014873646
P 8.38234874561924 5.075787578729752 12.296647498090561 -0.16759633112715652 -0.7550108710695062 0.8090207496270582
Ni 8.856638718458251 4.235711244473597 5.178338348014125 0.09173258991930654 0.24906816255040332 0.6506351384648924
P 2.385346970233475 8.359286255973728 9.221572810972905 -1.4982010953550005 1.6639832560915537 0.47516968900230416
P 8.729189588482678 8.28059808451764 2.6266862373829385 1.412114647977878 1.1528520613929758 0.9061192318439685
P 5.68243537784611 2.459787768798467 10.94465002604514 0.6724617474216806 0.016981622159661078 -0.1717525193873752
Ni 0.5111890248304065 4.46382124908529 7.458306692801525 0.5561550677074356 -0.7625951111746673 0.7032499364471307
Ni 9.050145674187446 4.455997141128009 2.6442448396570715 0.21045919192895368 -0.3496759434721526 0.8807717542181154
Ni 3.3288226169107986 7.232782369581428 10.873800865609109 -3.2243590252030856 -1.1491751267620207 1.5737709594715152
Ni 6.596477475541279 4.38435998124771 3.1070985746985245 0.4295927717034537 0.4517255990467511 0.36037456083657937
Ni 0.08964285403770517 6.577429498430994 6.628981986896667 -0.4740180918963643 0.5227960326310157 -2.11831852484701
Ni 1.3067378018368192 5.8179042184778975 12.322004127962117 0.911798798727249 0.0784682687102326 0.27674043165469114
Ni 0.2401330505060493 1.6604154247486451 3.889867975374711 -0.42824139988188187 0.40626412427984226 0.04369975488079571
Ni 7.249408598990651 0.3155211249987265 1.7014556653088566 0.4415584287057622 0.5614875356639426 -0.3235910734596427
Ni 4.91525364939196 9.183323168917457 3.269884729398306 -1.0595014762542723 0.27164990450566123 -1.4232830058898713
Ni 6.31962514123857 5.075601290445056 5.625990959024288 0.6214253496701556 -0.37684273369493165 -0.6166443833417444
Ni 9.204476203644822 2.9285170363392696 11.697508979730348 -1.5921769727825288 1.8298173531119648 -1.5353005713104593
Ni 7.460650199423015 7.83221149766577 10.459138978377393 2.191388505359807 0.2561412673471008 -0.11724333259590129
Ni 2.2545539655475872 0.43250178481574236 10.99828056032661 -0.7680461069869096 -0.013443784209731685 -0.48670005823940704
Ni 4.815924735991426 5.566340518822829 10.011335473856624 0.003933273616135161 -0.7168114771816493 0.7791334751493226
Ni 3.662800253715898 6.8871244573258155 8.443206333905536 1.2254620715502185 -0.18276352578589813 -0.5599770125566872
Ni 5.381672942202518 8.098929749280954 0.7046959805595994 -0.17707701692408212 -0.1828149478491239 0.4251319077186227
Ni 8.272671518003776 8.24932959593122 8.372998005168865 1.754603843893604 0.4074907975980918 -0.873069243367535
Ni 6.235674325739787 2.8176196204590402 1.109798484462081 2.188789891394695 4.709226379563657 0.6968085516971612
Ni 3.8932947483717157 1.9185737296819931 11.974305427547648 -0.4081310022852519 2.410036146636824 -0.4841014442742953
Ni 1.1878020464719063 6.559452678957716 8.606933244443038 -0.6778500083167874 1.3447250056793096 -0.10037612452691745
Ni 7.191556772177943 9.142963812037815 4.038012802338717 0.8650944526921746 0.34521456526668937 0.949542593134926
Ni 5.233173236056163 2.212061607808161 3.771823609452074 0.820647278122393 -0.9852986676886127 0.8782543871129004
Ni 5.234831201789968 1.245523471485327 1.2341319428760944 -5.30264238850508 -5.2231791028714305 0.5164988867683943
Ni 0.1039013593484271 2.0525895216931427 6.394609901594878 -0.6743592215547095 0.21842524085356577 0.38010289250344215
Ni 8.661967460949702 7.252398525960041 12.862482328354037 -0.406425589558371 0.030530307378373225 -0.2914684818934851
P 5.9106757842570925 1.7468997609193095 6.149005564167272 1.3955616287152028 -0.2327043764803992 -0.19080079426807783
Ni 7.621826823343013 1.4003569793113857 7.916688577568822 0.7442968270861117 0.10854580482190337 -1.3579026807118484
P 7.966022372563752 2.5771959602288637 2.4029344471917358 0.5362115347059733 -0.7305699644183223 0.5609311489398403
Ni 3.4432874534429794 4.505624340171337 11.90292534550023 0.44286557755295985 0.9602448100437785 -0.38830188337446675
P 3.28419725831159 6.618152117465797 13.193822123047823 -1.0788132892090068 -0.4642155039836457 0.5854160214550822
P 1.0107443462814745 5.570839380898266 4.468380654853254 -0.31670643052466746 2.2390282187249566 0.8072950251852032
P 3.6794730551962957 3.3582747947214227 9.122217817212512 0.18202870450240263 -1.541588718312016 -0.7471679779863197
Ni 0.14375960074223512 5.273532592935807 10.390621215824348 -0.37235564445785546 -1.4604313328053946 -0.6469206657277826
