# total energy = -340896.2578841389 ev
CRYSTAL
PRIMVEC
9.01255843310908 0.00000000000000 0.00000000000000
0.00000000000000 9.01255843310908 0.00000000000000
0.00000000000000 0.00000000000000 13.19079027022971
PRIMCOORD
 96 1
Ni 6.327032246100042 2.077367656418187 11.356399392964597 0.2655553615721491 -0.2747277721000365 0.05050777894156463
Ni 4.585751902208658 0.15258080994385445 6.007864209318232 -0.11001519027857828 0.4282647969206495 -0.3333836340700323
Ni 2.720395667846209 1.5623179732162948 4.9399769883661016 0.17877780166527274 -0.901489446381441 -0.8320748032330444
Ni 3.1932125027334783 4.330308961580968 4.815390085837964 0.8219081471126877 0.19332921711688641 0.07792550883288515
Ni 5.228527562003559 4.532857197394633 2.548803767369946 -0.157915870614599 0.7732003974943393 0.6085477223765391
Ni 7.394299403039358 6.162553056654487 2.471241690418251 -0.7720164044885671 -0.3130788610744092 0.11228264615651629
Ni 5.186357801597216 4.522555843228262 11.448840302456327 -0.1377368245635628 -0.4177243024006419 -0.2804546472814847
Ni 5.671395665574248 8.028359918933225 12.317981685952443 -0.34669217825348037 -0.15724404135855502 0.8685011643808785
Ni 1.9352486241789024 6.376294889908776 0.38242718367048595 -0.014718022936464976 0.24267742853271107 -0.49276169105245454
Ni 2.8406412210288163 1.553719992573497 0.39662466680109315 -0.8822995037165514 0.9132684412942401 0.7857741203942918
Ni 0.41347184207948084 0.057772301379939266 4.68577778078737 0.525295916234734 -0.8125596160182522 0.8208424248523347
Ni 8.723723856559074 2.253184644237577 1.3236428973537255 -0.038313807978534016 0.5904852084478733 0.5380617005408346
Ni 6.850256319703419 0.6281834266096236 4.7526942238446495 -0.9957538015836657 -0.15840900820093362 -0.2713737680261391
Ni 0.6919553880670372 7.259552643510565 2.297531838735429 -0.28097889521607095 0.6334223741310316 0.5229495274897445
Ni 7.811058125140252 3.8221538854983006 3.7856647406046995 -0.5902262983595319 0.09300888552856885 -0.7202385005853273
Ni 7.753918505354783 3.7197712229173963 12.561919194621437 0.14199791383276192 0.7121724357477413 -0.3413216579701864
Ni 7.840556228540543 8.681563108711057 6.8993639475089505 0.23602212799972255 0.9666388864955805 0.6682194272055589
Ni 6.643472181476636 0.9583594021305454 0.5184483189465453 0.35072366801037663 -0.7332850493566404 -0.30923146230386095
Ni 1.9077062459353071 6.364686714785166 9.326442299619195 -0.5781729667394235 0.47508612814956247 -0.3528682251572052
Ni 0.16370140566203908 4.697651826381589 1.4209650084347016 -0.1492795350958397 0.414903288012079 0.15877281929825557
Ni 6.021578619322577 1.9556891064617798 6.918213713247328 1.6484411945918964 0.3347175223901074 -0.3604771478527147
Ni 3.5824739093824065 4.504972341934658 0.7984360609186749 -0.9303598495588881 0.6493521579874107 -0.5929326415471015
Ni 6.002535083580196 5.483492837039981 4.773707003581214 -0.26850981621478276 0.5477169642424116 0.14970968065472282
Ni 5.3038094616988305 2.772452204735936 9.131047331348705 -0.17259249879016728 1.207791650853649 0.6571351443669392
P 0.28160639744744037 5.51487456513036 12.246646385548031 0.18726629875225814 -0.19741521426080194 0.8334845390963774
P 4.27393540925319 6.199026880198934 12.444019610371031 -1.2969922183797211 0.0898050338792905 1.1042443276876015
P 2.3225092428795064 8.376091456816942 1.2820048778886044 0.2581955787729682 0.19187731516170825 0.30260161569216915
P 6.244125722061157 7.629139635334306 5.990188779929705 -0.5461555332925625 -0.4301599570608333 -1.196678314549307
P 4.737766723489653 1.1854308091486683 12.69556822454615 0.0804269350985002 -0.15602739534263452 -0.8081730569147824
P 3.8619713681816132 6.131108240655828 8.282484322277854 0.16687847912452553 -0.4627741435514288 -1.368334931788766
P 4.610401249229677 1.0217897876274118 3.9214903033650894 1.240552647334754 -0.9958515035037947 -1.0224058569535552
P 0.10439336434338627 5.603044423231504 3.6767218368184578 0.8105189314391396 -0.7729808252843656 -0.08397351479917796
Ni 1.4349074361646892 0.8953003340367014 2.6521003033650845 0.5923726552785733 0.5558707036977976 -0.8215517922145336
Ni 1.680157173325918 6.457101487857753 4.841494961028597 0.4505130667958886 0.5002356308319965 0.3288289248198143
Ni 5.83664993503582 5.51199054646611 9.205548743492963 0.14418566551270007 -0.01127942956856122 -0.6793466474669719
Ni 8.555297166566827 2.2044897916033674 9.973503430898006 0.7756468021523029 1.1085632667779297 1.947474376206517
Ni 2.3069445546508773 5.1593832145281455 6.969987255805624 -0.5426493199115171 0.22794372186696224 0.433170461752383
Ni 0.4513831686768903 -0.07685639363478644 9.010892805005188 1.0147177442806783 0.7727705090457724 -0.18341118667222606
Ni 1.5266913301544713 1.230709902177406 11.414887291475605 -1.114392471865197 0.09096228741218527 0.25325314716602837
Ni 4.115846123660617 6.886567917198002 1.6584648466915888 0.1504416737247409 -1.2619941050379813 -1.0975406904151808
Ni 5.416592616587689 7.767527468426716 8.062408463032204 0.5556519028187721 0.38139795716578184 0.8738302899032756
Ni 5.243407295799427 2.912525386235268 4.790775887794416 0.2262709621502297 0.38392638001459045 0.5644736148754601
Ni 0.8733349268851012 7.518420356302053 6.9402818635638415 -0.6814076437610588 -0.6042400961401206 0.1112557475538987
Ni 4.933483440092374 4.472635282661746 6.828568499348254 0.5991076600095617 0.8129905329080837 0.4106871930482024
Ni 8.109013303390665 7.116775694513498 9.266820621270805 -0.6444251529994385 -0.34487569387003186 -0.6749112374034377
Ni 4.666594550390939 0.424869123338267 10.28087583134303 0.2473470660942385 -1.0160459761737985 1.6270311043472365
Ni 7.958503579350076 7.12812250544566 4.716445714258347 0.1853431135876163 0.5402610221849986 0.2529250744026483
Ni 7.192237845375286 5.923440871713118 7.0624020288782114 -0.34936663976184995 0.6374073269207087 -0.09896407467073924
Ni 2.181498755314293 5.355865998588557 2.7405711809143085 0.5207280943583935 -0.4297735202556921 -0.5183770776277137
Ni 2.531979123487373 5.182058811275817 11.51354145867713 -0.25797420679078154 -0.17202968430816176 -0.7869802248872512
Ni 1.2044833574493752 3.2101290747109745 3.6788722332349897 -0.5128942001362715 0.22796866156762677 0.6471173551196211
Ni 3.725458147220966 2.767116770207072 2.975235668321904 -0.667841732151166 -0.27006121986230264 -1.148491213321119
Ni 1.1850703068156367 3.2423399581673262 8.281520879792827 0.22724001093171833 0.2933600424892432 -0.2706980821153531
Ni 3.6342871071973373 2.6211313504460265 7.145820466230002 -0.8681648640873824 -0.43841165554666434 -0.08964048327696819
Ni 4.064609729578536 6.8499228550453655 6.126264891811552 -0.09302714036101398 -1.145546271760182 -0.9540505083076085
Ni 0.6226073567734611 7.513445424106219 11.377518520889407 1.2871994006590153 -1.3097258638963059 0.41525604336580746
P 0.22260388185603164 5.6890692924511095 7.983883844851315 0.32384689822419066 -0.5983946931029371 -0.20996142635692874
P 8.51238837637777 1.6917563358912016 7.927467032243573 0.06570197018349976 -1.445390636422188 -1.0286068435579445
P 1.7905249625834663 3.248333309453972 10.419035646709798 -0.6212733974733237 0.11126088976022129 0.001133599383810951
P 4.041735856547697 6.082133998713519 3.7497064353964875 -0.32815246757808 -0.19849533469885816 0.39711228257724507
P 6.939769048995104 3.955756050119719 10.26093103976807 0.3383060110723141 -0.4417692591649876 -0.10495577347779989
P 6.304176398185854 7.858157754950799 10.295359012572565 -0.1799941905708771 -0.7178782278832669 -1.5960696229687157
P 2.380919633388911 8.434204432901595 5.654772902998173 -0.11927347565205264 0.45464123003164925 0.33261153179069813
P 7.004947870807173 4.094810812528237 1.4849794077110787 0.9544611134824658 -0.771696045034671 0.3873654876031264
Ni 5.330784048767901 3.17454749444078 0.360638422662071 0.4737201010399713 -0.9939481158334946 -0.34253753265515846
Ni 1.527412334820534 1.1172688305307652 7.030453410869141 -0.8594236275596425 0.06475297600666913 -0.2415016630570551
Ni 6.791061836619672 0.9403432980373037 9.061980491874895 -0.307138070109942 -1.7151237835211106 -0.37861525221432213
Ni 2.7791755732469707 1.4682448894117635 9.371911557628607 -0.9308252192310807 0.09966727138535093 -1.207881639464294
Ni 6.213789450736568 2.205589323719113 2.600577309928244 0.5797148573052467 -0.5077350245328354 0.18669448540918818
Ni 4.101876658255652 6.805914532740563 10.340629994298808 0.34423214674876196 1.5451067587676035 0.5819391186500752
Ni 8.138493381674303 7.124165992340641 0.2758194337464546 0.27908424929651937 0.08757331633529433 -0.33681862789351025
Ni 7.858671470775368 3.812564523439667 8.133625698922549 -1.533896491874081 -0.22844662964530976 -0.4991711941232242
Ni 3.110396104277851 8.566526814240753 12.36492810227145 0.42243327784053697 -1.301728704623442 -0.4674918607420723
Ni 0.01745011543038258 4.828595286296903 10.072922764301392 0.754664543473681 -0.4944933290315806 0.6819388336741804
Ni 8.560172960621076 2.188050885217138 5.676814916895542 0.32811595791318976 0.39363820798571564 1.1210444299640756
Ni 3.6387032607769716 2.7401782333713043 11.350226691767269 0.7148003602888915 -0.34949879446434007 0.7080704977642257
Ni 1.3638704514408613 3.5087151320441916 12.793892532112954 -0.41064374140477666 -0.3506395929370026 -0.39728814603347706
Ni 2.8991237120048274 8.331641519154177 7.908973262559066 0.9068319416402769 -0.1945350644995295 0.8422239758519044
Ni 5.5776650589860965 7.688550419817873 3.5095677200618107 0.5056025515708648 0.5956860359225224 0.7460410634707281
Ni 3.0789693133958433 8.22295907830355 3.497432310276143 -0.31820898321212293 -0.20074196464118976 1.0969395664960722
Ni 3.3677677323872586 4.1732741453125115 9.087016477648088 0.2347116367184151 0.18171605835799026 0.6700539093111364
Ni 7.260201547710021 5.9991373490913755 11.283072317170188 -0.0031711986391300224 0.3210647074933632 0.45766150491521174
Ni 0.4790607352953724 0.06974818888324077 0.22253268264525794 0.5888345602183278 -0.3209176403925377 0.4871245473713352
Ni 4.393396869861454 0.19761746515362866 1.7400366108424252 1.0449554601192972 1.4212556910471976 -0.3579890913235383
Ni 6.130179947148272 5.6993706466174805 0.2777174785298647 -0.41489788869544025 0.5219640236480237 0.4673357947801822
Ni 8.014480579111519 8.951804670109684 10.98692595937576 -0.9042297281307395 1.3478278129743497 0.9991170616289439
Ni -0.024936847631611178 4.663746581959991 5.976258969781373 0.8773686420738375 0.16246055256248795 -0.6633086201675028
Ni 8.031730615747069 9.011170391801622 2.4043378649426277 -0.7580188046578946 -0.9335130504758891 -0.18499935709495235
P 8.518408765339393 1.6911254568083967 3.5712082114751764 -0.6893135288716967 -0.004495059656876129 -0.6392868033316086
P 2.0488338967587554 3.171095684602005 1.707046141090894 -0.9309144365107774 0.2961756575611673 -0.8995631758930056
P 4.5557581081004495 0.916856571040311 8.204341836569977 0.31280555280836453 -0.04348095400177028 -1.0332453707712206
P 8.41878394560618 1.626829865712255 12.38590122675138 0.051298393163660035 0.14551004075107846 -0.5371697848541845
P 6.318587478948782 7.827226654776709 1.372079990819818 0.10060238160511062 0.27885387845326814 0.19717944410091204
P 1.7595037368261184 3.1588205801622875 6.012414650016921 -0.3637043965407607 0.501757981013794 0.35421574032403513
P 6.957487738663596 3.7777039478355343 5.864123817836139 -0.8614931084941616 0.6740051806494005 1.1035760979759832
P 2.271083585072584 8.415827826475322 10.2411187328005 0.444025659299332 0.4043383680120391 -0.12713385223673587
