# total energy = -340857.1296724038 ev
CRYSTAL
PRIMVEC
9.35455509206040 0.00000000000000 0.00000000000000

0.00000000000000 9.35455509206040 0.00000000000000

0.00000000000000 0.00000000000000 13.69133695014906

PRIMCOORD
 96 1
Ni 2.857086888657732 6.625878059441411 8.95999387511208 -0.8626231083335467 -0.6050235112733645 -0.034555883597998556
Ni 6.938890823359454 3.72952074901123 7.555536538925116 0.3526473673956507 -0.21587342096598952 -0.18566141615898346
Ni 9.392253828535672 1.9738017445367155 5.000021793454672 -2.818899913323042 -0.20760732430245535 -2.717116366925637
Ni -0.1648955468579095 3.020380000248938 10.544998799536101 1.8914736924711812 -1.7564923191655686 -1.6583396846525311
Ni 3.1937479675449865 9.103085825241255 13.360088413647047 -0.12608509925724737 0.9792216082565975 -0.4263907198263882
Ni 9.034975310490132 2.7458425209307253 8.13513260406868 0.9791619586632556 0.7257429753433243 -0.7941973114609806
Ni 1.182097693591565 8.520783487344291 1.0008569328310823 0.1323429072415011 -0.49852764700195434 -0.6808450863893694
Ni 4.994509154209674 3.227125019685077 6.133157746322796 -0.4374608615976209 -1.5517173221055858 1.397797460024257
Ni 3.548641074072666 6.298767981180567 6.121342007937666 -0.34835902443294203 1.9748049457006696 0.06047620300818617
Ni 8.351999251984521 0.9267903729292897 0.6515251092342557 -1.2929735841386312 -1.2733992615511294 2.0862524975504004
Ni 0.20312200029548425 2.1094708552956103 13.080128098811565 1.0707446532682592 0.09870336481018485 -0.5723985261494916
Ni 7.669846394316446 3.3999784864576656 2.8589568641966343 -0.8178154651005529 -0.9796455831678935 0.2051020413820984
Ni 7.621408508671437 0.02608798290590947 5.35661275170977 0.9292915561953737 0.054113236904635834 -0.12774166102406384
Ni 6.076138927401974 1.263454258183036 13.078115934037088 0.2085879430481698 -1.44213099183431 1.1189677499407051
Ni 0.4953975867516004 7.14613163420911 3.770141968521636 -1.0160395484158953 1.267001585554902 -0.8625110082357146
Ni 8.167985801130339 6.826411654376144 6.15917089278893 2.127133552035479 -1.9098131142103172 -0.8942605327331695
Ni 4.6701867333304845 4.325854919366191 8.250508878726817 1.0858375430456395 0.9344939263319196 1.9927494459942323
Ni 3.8814667854214018 4.638680592184794 0.9854312716822569 -0.7185469718155174 1.2250825767236126 -0.20446775023220914
Ni 5.136848062663603 9.314732631482721 11.243612867588402 -0.012063616032753417 0.3198480614774427 -0.06096625527072726
Ni 4.427426677252152 6.7717716987847005 10.696192729726524 0.6006078987041721 0.696903939624445 -0.29003432055011985
Ni 8.53065254283975 5.16683876590383 10.556184976371618 0.3256548979672069 2.395550294315823 2.232941646211245
Ni 3.757013786073933 5.74435157165513 3.4170561620145463 0.37416184442865885 0.9632460587639475 -0.6052700800665318
Ni 6.3327717885037815 7.870539016685702 6.386201264681848 -2.723257446826368 0.5809338173140124 1.5656688991896712
Ni 1.4347922870501608 5.225678916677701 7.743203878951361 2.0403045700653766 -1.8725578294032847 -0.36293435114395556
P 3.0869657225396234 3.5845812742750844 7.2274648124131495 -2.167498071895454 -0.6332562808668126 -0.9531989589405906
P 4.421168479975884 1.0779627876432774 7.997452263990806 1.4772612598785397 -0.5448193309796424 -2.803173503726721
P 1.5624819624179407 4.782057856240615 10.067157841555948 -2.5946516380297955 -0.7739313621230929 -2.812422018908182
P 4.85201121832122 -0.06361003835409273 0.7820136674496574 2.7077639791764594 -0.5912994768190526 1.1997788078515015
P 4.664620773122146 1.7985254480263793 4.010931955322866 -0.18511788495068765 -0.06914390598551318 0.24714652004765825
P 4.330915733606043 7.802007546960842 4.101445693776427 1.947102594689395 -0.7023886168881 0.4307672516275291
P 1.2546235582894694 7.660342166464895 12.361552345904517 1.1871858016778392 0.8976371625148862 -0.20666835742795375
P 7.74906076581933 0.618629816675223 11.950168017356434 1.0635357942246457 -0.29686368476712743 -0.09988093005805379
Ni 9.225003740191312 0.42778566978048665 7.072123072548142 0.3128500328930548 -0.4226194257094141 0.21383890703446395
Ni 0.7709378743628112 0.22132596427099335 11.595590159331312 0.26641616691054765 3.0423339202451087 0.7984560867373346
Ni 6.5527067304504385 5.705277595537093 2.863967163839637 -2.169056674631826 -0.9641927389479329 1.5394014808527101
Ni 7.315411660982394 8.171446986469979 13.765133160290603 -0.3999883185734595 0.7062776675298611 -0.8784652175721258
Ni 0.3337677150344156 0.15257466250429025 3.0257167738604633 -1.6651592786775258 1.187487392078658 -1.101053588664446
Ni 2.9791918947072284 6.82283821437684 13.405255946873844 -0.7681124414484707 -1.3613024504220168 0.1613907165370769
Ni 6.869367770807561 0.8751345203739139 7.395704612673549 -0.7561724954777751 1.5369684459311854 -0.32417162855346104
Ni 3.831101861452162 8.698267458828019 8.965238038629382 0.4560969886415694 -0.20657296950067006 0.3761950728086037
Ni 6.50875903119199 6.874475357822272 9.299717635297167 0.7334807103072142 -2.0472825440451063 0.10119810620758057
Ni 1.395372192398159 8.828314482048743 9.312546471985765 0.7318074363698494 2.4696841973167594 -0.02475303857496382
Ni 2.849191644261365 8.600643323140241 11.271215352944278 0.43711941909780205 -1.3315432168817134 -2.1393504058166446
Ni 3.674029528917335 2.4546726428723 0.23546630956666634 0.2548577726489869 -0.23892490346881431 0.29415348492481597
Ni 6.267355385584596 9.013347579394873 9.150782830132481 -0.2010193866722925 1.3535356619924044 0.36044758016635986
Ni 5.072816133880273 5.77664349541847 12.64618151912652 -0.14610627957418065 0.5315753214855425 1.6402388612867622
Ni 7.3426147068409655 7.427058274573196 3.88430028012242 1.580678485224626 0.17629154490830928 1.4122439744668902
Ni 8.777313448341408 5.69880424349647 8.319376176975174 -2.3366470922217113 0.3947844057750169 -0.2636625154248104
Ni 5.328045811736281 4.281084019270207 10.93873482467401 -0.8117983123721955 -0.3810832541388404 -2.435005157877335
Ni 9.31856799902124 6.24144326831216 12.95264796547516 -1.7692341922122692 -0.12450284237179204 0.6627267795221038
Ni 1.2714898209039827 5.779711789449285 5.209293478188749 0.3120733026280303 -1.510379382588747 1.0600637765156453
Ni 2.3277781046771397 1.3090764227814728 4.2529670333908705 0.8606832109983564 1.6382958786277784 -0.3240433305057129
Ni 8.719371334844848 5.4884670749510835 2.2956536274477997 0.5681834596268796 -0.3030749557841619 0.3648577934189136
Ni 6.730686493347682 2.149049977382136 9.86641564004534 -0.047189256091292923 1.1517212902226424 0.29250283669527044
Ni 0.9357922611788438 6.778497623809567 10.281878554561212 0.8176270032388308 -0.4486464459007951 0.2567020249465773
Ni 5.886344361575095 5.59456643744349 6.282652889330305 -0.5537462011556269 -0.45520455873428706 -0.04038226047178852
P -0.2648667403881605 4.339699660724749 0.501490208404863 0.5449977655390356 -0.6385658660051841 1.0958843857586804
P 8.142354320507064 3.6793616252513734 12.143434993988919 -2.134998813716168 0.4372546591240857 1.7408206740665824
P 2.4291347077987435 6.834101098563126 2.040762584481778 0.15179973041453212 -0.39821939959849484 -1.10454129010273
P 7.557526252767659 0.9337015181426022 3.501176062144746 -0.1425350172831545 1.632034213988783 -1.9320791246973694
P 8.686808128987321 8.249800738915438 8.866961890460058 -1.7199767407380377 -0.4765670835704632 -0.6516887765403874
P 4.592861981931946 2.343138283941161 12.01735149570983 -0.11609096415901297 0.0524762155218451 -2.2048528583948284
P 4.6477732196175765 6.592856480390257 7.941769275519985 1.7620757267906169 0.8099283490429923 0.10588265616744345
P 6.688983887282513 6.710555491047942 11.588566759458335 0.2624633529103867 0.613502238168337 0.38500315801853696
Ni 2.5487981750005484 2.1834934487890343 11.406294191284442 -1.201675253543266 -0.19791606515662044 0.4691576784802694
Ni 1.547907565771567 1.9818653709225782 6.427877677993097 2.867165947418281 1.7136623684842358 3.1795431544399757
Ni 5.726390826108894 1.7226600072034715 1.8125273459084668 0.16249089157979113 0.8029791714186686 0.9649892667072995
Ni 2.628087382943208 9.113721954244417 6.16972750807483 -0.38262565892529593 -0.725296374724209 1.406954186822861
Ni 7.142820121749021 2.601202391953684 5.430545541475463 0.68042265413997 -0.616099566581868 -0.5021079081540449
Ni 3.184103421368856 4.363142175484577 5.158388796397625 -0.9069059894113219 -2.0525281087147618 -0.02036802213339073
Ni 4.7791018168694634 0.013559427431911854 5.518320266233222 0.80634088880205 1.316982545458719 -0.1058500031572951
Ni 2.889865249279614 4.834434009528835 11.450174537747092 3.472910910238703 0.49492038926667026 2.0702298968698987
Ni 0.9163946559889078 4.145022017202487 12.35678713560178 1.4525141348408468 0.9714216525962046 0.10635213960469425
Ni 5.582695507184025 3.8817100038506736 4.0939424052333875 -0.9675547134416306 0.3923457144265372 -1.3720853999701337
Ni 0.5299626673731349 2.8077603202903836 2.0286456294265482 -0.09146365252863602 -1.7890841370586608 -0.02489187814567326
Ni 0.7673578861750273 7.573419641665085 7.539080005818375 0.9155688072926427 -1.3574727922632814 -1.9838416019816416
Ni 4.429016951597391 2.08615930430539 9.766181583520375 -0.9655747068971241 0.8064133939111984 0.9376070180396046
Ni 3.317733239143855 3.221624541361542 3.0598356422098334 -0.5482831211585267 0.012055388502637304 -1.014204037869053
Ni 4.833451781256775 6.9989751299446 1.1711294778868968 -0.3846406324727956 0.6912503408830935 0.7426626339167983
Ni 6.867655887247685 6.005025600504841 0.7191594771373022 1.2075833914975846 -0.9330541085615995 -2.219056146478404
Ni 8.647425452555208 8.079211074446073 11.032246697996097 -3.857118054718506 -0.9474247754609747 0.6521394909245607
Ni 3.0870312044244272 0.6990181848270921 1.9888176761777676 2.088508126353797 0.3078209551095796 1.8680684261733633
Ni 9.116799602830206 4.114582295323605 6.281201997854149 -0.47501490859199486 0.8470633062220767 -1.452414633148505
Ni 2.4532788141814716 8.490278283580604 3.559090111976389 -0.008049352667037749 -1.7555718642338283 -0.02743649894439791
Ni 1.548440775404971 4.776117713833395 1.9442656726681273 1.6044141382786692 1.468843982349122 0.4015158109615795
Ni 6.075521526773823 3.6213446753150387 12.919556227261715 0.7571515715615929 0.27449842969804983 2.366388585150202
Ni 8.62721025926072 1.0476540295340022 9.444064966703584 0.47946265995070325 -3.273462724708272 0.9272832675160934
Ni 6.249899786006846 8.706433985318574 2.470149754073471 -0.6588438995279299 0.6868072175100753 -0.7639395410177037
P 8.752580004995442 7.495514907858282 1.6478347928934496 -1.2600508652686815 0.9816268752639804 0.16786269741466575
P 1.939489236899425 1.243996783841279 0.49073153473156755 -3.8622417490983163 2.0904171704510515 -1.8004864653583315
P 6.9432032732015445 4.510953498597126 9.491163280076602 -1.193333823557106 -1.0544171197528294 -1.1191279296676533
P 0.8405301506214969 9.233058012022202 5.046243585026814 -0.693574875251212 -1.023805308404243 1.405780992450366
P 1.4810692704966375 1.800714413889827 9.42784042656015 -0.2755680086131448 -0.8748561600646287 0.19758053619407265
P 1.212350324371008 3.6099321182492004 4.179472036797867 0.8332004321970553 0.5021873552417286 -0.5195057919155183
P 7.378339752279028 4.918063730978502 4.915162883481685 1.034955925704424 -0.2198681439476794 -0.28805482822624584
P 5.844987874043891 4.166153956884233 1.4266921778999075 0.6750418494440309 -1.1547004274556243 0.7266816851075097
