# total energy = -340873.3769771817 ev
CRYSTAL
PRIMVEC
9.21428380494181 0.00000000000000 0.00000000000000
0.00000000000000 9.21428380494181 0.00000000000000
0.00000000000000 0.00000000000000 13.48603574261033
PRIMCOORD
 96 1
Ni 5.859270959075224 7.922708470758607 9.079540615608643 0.29831712938420235 0.4522061382275954 -0.4338695447019366
Ni 1.834038700887276 0.9667073761191686 9.942391034139195 0.2212503690071867 -0.4696047933200171 1.6114494478588957
Ni 2.474846071421309 2.421670439307543 2.3880401461020626 0.9517041195626189 2.4750436618564597 -0.36893993390808716
Ni 5.470133323409206 7.877383408487317 6.485246096891613 -1.6075395712815281 2.1422660368015425 1.3061651431282406
Ni 6.989605587850131 5.4521562556126435 0.5791794758422112 0.0366364202761111 0.0862931640712901 -0.1203476825528379
Ni 2.9491697613052756 2.2931127509950713 8.364781245729839 -0.315659734427708 0.31643595047210016 -1.1182370424222678
Ni 3.7247821046038916 0.8532095133355031 5.767707699002844 0.03610651591457007 0.7071940086965434 1.801349327579259
Ni 3.2208805635528504 5.0540991931772385 1.7503656320779375 0.8693797103310898 0.8998418834756889 -0.6889566597529102
Ni 4.375246044615525 5.705502990141844 3.6278515241873297 -0.5160381450818919 0.9642261632890298 0.7413164043015491
Ni 3.3673876768103255 8.973293472788644 8.202678957051718 0.48726698648647054 0.15343932290048415 0.40817625370089056
Ni 1.1997550433209339 7.816817920723708 11.092035116155762 1.6240064585883 -0.4502405298607924 -0.45159807232995125
Ni 9.171253147079437 6.199600533173643 1.2838621048997334 0.21158404956201624 -0.5482221860136043 1.4997987788594234
Ni 7.126059917424343 0.7972152317912042 0.04891218297513566 0.033582206830819576 0.9515141150390001 -0.2553084870331603
Ni 7.4753734182791165 7.695051159610656 0.31215690121887574 0.045037499855612756 0.4520457013903312 -0.05826531139979643
Ni 6.7083764303827484 8.731713378739306 2.2212044798088235 1.2718879671129257 0.6572313036251713 0.30131143612583594
Ni 0.4543323796372104 2.4736482145204617 3.4704153488522005 -0.8607220346560919 0.4244379669753916 0.5846413480725866
Ni 4.46491024078587 8.324082675380975 11.163915744490453 -0.7831544233832577 0.4564412593548655 -2.1672039376938033
Ni 5.893861380658153 4.520159086766488 2.3794625692636107 -0.5759967850237112 -0.6689622189088543 0.7634698004701368
Ni 1.020924222308287 7.788373426470511 0.019362896088003706 1.5757424813755896 0.5074959119388357 0.7312376799093083
Ni 8.025945307043939 1.5006290539622136 2.1039564034971208 -0.2721525551736926 0.8117656593620473 -1.0969321102969043
Ni 5.730584270788816 0.7381572008658922 4.067037464027519 -0.6168572706834989 -0.4235524790466447 0.0572443263344498
Ni 5.137810961978758 1.6688634485442881 12.133656462853919 -1.3079983396822377 0.06480002719452066 -0.39608924062936945
Ni 5.787574616417588 7.498482842181616 3.995292285665463 2.1349893006344716 -0.5092231790425875 0.11066876470217715
Ni 2.032634160763903 7.549843260376406 3.5056277345951847 1.4439271645027842 0.051254170189285915 0.8462032722146265
P 1.3500768700934154 5.419804905005915 11.585300609355665 0.0006684868219343326 0.8789976930368281 -0.7729193759188108
P 6.372331498275822 4.405957252696479 5.575410202139518 0.4493257313560068 -0.5807026751398128 -0.1824295394852471
P 1.3064195931994582 4.235299501461152 1.805524178076799 -1.823097260779312 0.1308966617132778 0.3338106943051219
P 8.717836667257183 8.552329700695498 12.213749782386495 -1.8486049181321131 1.3327503498159368 -0.39903212530777726
P 4.00205833429848 8.152429781489559 4.680423125816002 -1.2074844040258752 -0.6080121615880432 0.8514794330119013
P 2.9892150389289855 7.321633092197294 9.873828469419854 -0.17932313264578148 0.679944428951971 -0.2227881458079518
P 1.2796613128913004 6.139707688131279 5.228549543646325 0.1156659608064524 -0.28330780045956366 0.2735201249451805
P 6.563297531122437 2.229819835211071 10.500564707082473 0.30760164000992185 0.6549293949648721 -0.06096111306440469
Ni 3.424433308142214 6.4361219853878655 11.981722136407221 -1.5118873345928414 -1.1848612673097207 0.16227363336266246
Ni 0.09589673776829247 3.491135508951703 11.670882877779277 -0.05705072226640497 0.7111997874218268 0.9522443083368052
Ni 4.795509531135868 5.893262452207729 6.05593141934279 -1.175080533773873 -2.568504547320783 -1.3152277675511412
Ni 6.863434399055502 4.213166791647035 12.076057053062485 0.6898886846488763 0.11031163847307456 -3.2565654347323014
Ni 1.200151257526599 8.268262543801491 8.50227126080909 -1.2517215194673796 -0.7722591166269926 0.8020623160313541
Ni 0.21111398591886635 8.223029624368728 6.251438251272003 -0.5301025935947581 -0.48443748745747534 -0.015161538231786793
Ni 2.0247098766506055 4.281260349318277 13.151177850135415 0.5417710310716218 -0.6509711816480724 1.1997505257167274
Ni 8.02726294963487 3.797178732834331 6.944890511169888 -0.33152086982968065 0.09408617775314763 0.33319182977420037
Ni 8.292984467378208 8.094195507540675 10.043820027932632 -0.24883367794209402 0.2073443004490558 -0.9994446201716916
Ni 7.150376412511543 2.528159917792866 3.979756081661474 0.5145057675977656 1.9479600575936842 0.9011210072984287
Ni 8.607182332470451 1.4346271387255283 6.209321602638211 0.35205498522729045 0.7632358300824598 -0.43503528287526366
Ni 7.18368604863895 9.06844016785133 5.83747088490819 -0.33312806641580045 -0.7778916323224216 -0.3763763355814744
Ni 4.140659592010364 3.9603176284458788 11.852000684044157 -0.19844596951816143 -0.047893481247169134 0.12241639215640852
Ni 6.287274444031811 5.677215138714143 7.977206352605233 0.5558092543322427 -0.48875205567242924 -0.36776699664590856
Ni 3.6607704746793837 2.2320036204841545 0.5217689588697567 -0.294235503115661 0.2927697172034119 -1.5268796942366156
Ni 2.544874628701612 7.688398446669027 6.417451082017198 0.4171535174988364 -0.8364814169411723 -1.4638041059323692
Ni 2.384251232581844 4.548806295264444 4.13530425023519 -0.7732924429875133 -0.6316632253480798 -0.08088870522626715
Ni 4.455318171295239 0.22063971256575804 1.435305310017085 0.590200587327919 -0.24160784961761617 -0.6305255121992108
Ni 5.869194742784551 6.5769346712243895 12.043353716812584 0.6650700829432997 -0.3620506629874216 -0.02174304810404642
Ni 4.6103853542518465 1.1454552685771413 9.731955219511887 0.8162550625919684 0.3194063459543338 1.191300338066845
Ni 0.6747389708214959 1.1727848344841647 12.598465483231617 -0.21831416919699823 0.3345473153608303 -0.6890029396098134
Ni 3.968748698171073 6.576418671328641 8.171189141985213 -0.30279496264989786 -0.03257227750906648 -0.21382939395276723
Ni 2.911713697444166 0.07793901996782115 12.684034851657835 -0.012875827521403631 0.6671915001616767 0.4412784355714981
Ni 5.169572598418916 7.171219122586285 1.5704889898480123 -0.3836286462685135 -1.8845350563698187 -0.6365771177099295
P 1.6637771638576135 0.7915512115069672 7.056568552892651 -0.03660325304533051 -1.0246727986108612 -0.06513812726022974
P 5.2846129323195195 8.6596023933083 13.031448367182188 0.7670775724260531 0.12817077814168248 1.2955850536195495
P 2.4603427886372042 2.2181453375697364 4.429919919283736 0.6780407841713548 2.274934959923895 2.6223565601442322
P 0.6487731189246678 4.028595471794174 8.430296646779103 0.027430585407126954 0.43882046094930877 -0.422137343866673
P 7.914968472322364 7.712475370376057 7.754982704645201 -0.4234282947639546 0.28186412603450167 -0.18222385123234425
P 5.063295048462205 0.8927249696376846 7.659636981051298 0.8741779030506815 0.16468815634142603 -1.0474376031112025
P 7.899387118327497 3.277898552033181 0.25824320496851005 0.6459071368616037 -1.4627491823052936 -0.9724398094480736
P 1.5647881124283647 1.2579248172828486 0.9897311071818387 -0.09564915136489334 -1.7046923037751414 -0.3414036761610314
Ni 7.1097322064374096 0.9829521585514283 8.418118127811027 0.6489929748757791 -0.8538186226680393 0.3341439092748245
Ni 6.185465821743645 2.173879917941503 6.224466199578463 -0.3637313931239542 -0.04876637077042569 -0.20019971898447458
Ni 2.6391183239467355 4.342480051235425 9.671024846107713 -1.4810718918738817 -0.10922097651205705 1.2567997053212354
Ni 7.90988218763569 4.07142346314139 9.651362485794497 -0.5288962319914826 -0.5525537235094227 -0.0606608082151665
Ni 5.995955645745752 3.0654263806744306 8.427490897345965 0.3243559766501253 -0.1408432314030284 0.7574523906314633
Ni 8.248470262085952 4.022504830167558 2.1959720849066677 1.1206862752937088 0.11608016552573558 -0.294659478026957
Ni 6.543330178013697 0.08849951069136784 11.25169654104131 2.026829932617709 -0.15562836013200293 -0.809236208071974
Ni 0.28540138519587377 5.8734517419244865 9.712697366259802 0.19594274348033353 -0.0025266230765956486 0.08035442998935194
Ni 5.704341990376407 3.3090704743067683 0.23903971599115761 -0.3568428935342371 -1.277555449811348 2.1078250815148536
Ni 3.659581832062389 3.5882817036104173 6.21849165792839 0.5104462528164112 -1.947742542266239 -0.6756031212641397
Ni 9.096184376531724 7.187215119354524 3.948468980839728 -2.1812131074887016 0.45040610890437915 -0.02854464440691213
Ni 3.391971386129253 0.5856018316875232 3.4365657556910265 -0.4406019783297638 -1.2369590164462245 -0.5597875222537004
Ni 0.30416811711860964 1.8564109820815622 8.30843682139914 0.005516301832538887 0.811107456952758 0.5659432574424511
Ni 4.786765175759683 3.375505460884529 4.297864488820791 0.20202623067025205 -0.5725756751573041 -1.309728692109783
Ni 7.266752817570783 6.472896192243877 5.732077906201334 0.900175612666024 -0.6856656477064643 0.3351031878643003
Ni 0.31110647285967125 6.018926855390463 7.170767622677505 -1.0612981631433787 -0.2510653954860902 0.2604836034761966
Ni 8.606647904006996 6.28971622925277 12.23230642863739 0.039534824869828684 -0.8393610524818125 -0.8467216066119417
Ni 8.657621322279974 1.5239872635287357 10.531798365057872 -0.769192818996843 -0.8764546149000002 -0.3957642531897829
Ni 2.4191825826673212 4.945960357882287 7.3379405317597515 -1.6954080502597382 1.1146313273488804 -0.11733794919223664
Ni 0.8636299469444892 3.1241305830998005 5.797282785884763 1.5143057142263467 0.9275917998954476 0.5324674942825087
Ni 1.2603850310715117 0.5047990122982917 4.842389964521489 0.02399327759080384 -0.2574784981012856 -0.5847845585186704
Ni 8.67916431792752 4.728060973334313 4.385860899613802 -0.11153934023258853 0.22674430224222242 1.119507167383943
Ni 0.24351693651517062 8.900933701693615 2.058279355582658 0.7597314164736271 -0.6461465065659195 0.3489606625726829
Ni 4.800310173023109 5.3443767773879465 9.99382700946158 1.334962012755275 0.4542892460088692 0.7092709458302301
P 4.743854255857792 5.223107587602938 0.12577497458896478 0.022254440522826192 0.7614383718624048 -0.3798632656888103
P 4.268996137510371 4.143239591489111 8.221357231849467 -0.46955517102900424 1.5002471792507517 0.04345472874952516
P 2.9756884702332638 7.440967282373242 1.6432873608544283 -0.2806127701259038 0.42380470426676686 -1.010578268191008
P 8.295960681062622 0.4378950186724299 4.0759384622292 0.034918409143739865 0.1932060612754608 -0.8724879169427684
P 7.345424373104892 6.11380633622142 3.015774290705926 0.14127903338886635 -0.1410319503750668 -0.6243278680289311
P 5.274928719990362 2.215740409484189 2.3421871053660137 -0.12353302225935499 0.11018154065311347 -0.05742661754858497
P 2.9339477643806626 2.22371076501675 11.367244581982195 0.07067499791805892 -0.6432491304134663 0.22398653699142715
P 7.065125858306628 6.236282597191129 9.92013946006338 -0.16993037857697185 -1.140643692252242 1.7600245006885429
