# total energy = -340853.151313932 ev
CRYSTAL
PRIMVEC
9.49802456847938 0.00000000000000 0.00000000000000
0.00000000000000 9.49802456847938 0.00000000000000
0.00000000000000 0.00000000000000 13.90131903100199
PRIMCOORD
 96 1
Ni 3.4273526205624276 1.603978877030226 7.296607476737262 2.5531041536053127 0.1540299052966315 2.3353782528116165
Ni 4.781001565494897 7.333795091820823 10.436303878961573 1.0085378407222114 0.5109162504742943 0.9284032400531493
Ni 2.3898169249878856 3.318153833594454 9.742725841188491 -0.4892871022402928 -0.8423399326044784 1.7572219982427413
Ni 9.396490557126707 4.732020253466208 2.0458573675815366 -2.758806804685887 0.5017009025236133 -0.0013516289318879948
Ni 4.8643372319171805 4.890570775415967 3.7608491542474654 0.05327197195026309 0.5415229196165577 0.2679372315407644
Ni 1.802981485063015 6.73956069085846 13.689629896554356 1.016136993225708 0.23924886246713636 -1.4425927619620769
Ni 4.076181665996558 5.072068524408834 6.177343180475408 -1.5057046028208971 0.10355555069616358 -0.4716675893863167
Ni 7.921779792702737 4.718855991594623 11.77552912398193 1.8861689924288163 -0.1509425246205594 -1.3195791025413017
Ni 1.3581510085162583 5.4924985761734115 8.159962701346258 -0.2340439212274292 0.2947852049715439 5.4182201604731
Ni 3.272867253072292 1.7295142660322007 3.8880324504894976 1.5614821148018334 -0.05244896182833548 -0.8356177833892963
Ni 7.7227676866455095 0.38384461143040843 12.247896272980416 0.4715608886051234 1.0163377963826046 -2.4279464512583413
Ni 0.9665474609221429 0.3398003725047855 9.987040674409425 -1.04104224110782 0.253970227837711 0.2757716399835186
Ni 2.266143148775832 6.810795874146257 11.011123368169455 0.8886827815350758 -0.714845354594214 -0.5015476647752007
Ni 3.3384036216970654 9.076844042677704 6.533439313509111 0.09838583356976603 -1.3876562578251972 0.007586039877374031
Ni 1.2063535819421822 9.404658858143708 13.345711180653092 -0.5374317802663197 0.9563354476870433 0.15786599121327005
Ni 2.045456550950237 2.0137331493260717 5.698957133390324 -1.5103246180914116 1.6046028572507074 -1.2736188337611034
Ni 3.2944372665718373 8.794610246491455 0.2327471892574406 -0.6705560457585354 -0.599074235668465 -0.4923667696068811
Ni 5.354311818619525 9.343263628174066 0.7392217440141254 0.7273625132246183 1.0252284140040149 4.196928418250489
Ni 7.2618000665779565 5.762688877371806 1.2998597329330759 -1.5647456160444533 0.5431488852557549 0.952917680254746
Ni 2.86916322234369 6.528334125373485 3.9843262716530536 -0.21016068685192837 -0.6317820103141313 -1.4174296324328879
Ni 7.840030296361661 0.6561311266223516 0.5374134195622409 0.9240416206503441 0.7519633424924339 1.4669902169698348
Ni 7.750995815276354 3.423515418689325 7.767181398721785 -1.4647147906720968 -0.07516260137576733 1.3723689926488236
Ni 5.406617439201644 2.3400092848330583 2.3717041923839086 -0.4612247967864379 0.640571069360671 1.111906986439182
Ni 7.403757539833879 7.418773916470945 11.366760746622784 -0.25405456002140114 0.7954905763511074 0.05063067767267409
P 3.6472793764329525 5.063757753025259 12.31822249532946 -0.9403714681586192 0.4803219226272051 -0.3332627922214519
P 6.541232442560796 4.749420634237307 9.672899214924904 -0.07187056088805688 -1.0011194367709533 0.5453831739029124
P 5.056757709014178 8.30504407483996 12.74243561022784 -0.645172058467792 -1.4280066366177857 -1.576703302626962
P 6.498833261467899 4.112435625277827 2.6058855833315437 -0.26587392125383247 0.2268808278200867 -3.5327181122043223
P 0.620047181978529 0.6989710160491888 1.5587407364326995 -0.6038037799336504 0.1716188220229883 0.4740677141873772
P 0.559238929919178 7.28939182757143 4.068401834179087 0.671590657670637 -2.264423004648978 -2.9702322171828524
P 1.3494793122040238 0.5926985704106781 7.003234397489687 -0.26574999408145844 -0.8001753834212865 1.3659319787742281
P 3.748347854481679 8.65272875743104 4.456693420651542 0.620568400986499 -0.08602731200441313 -0.6584957721598917
Ni 1.8756508700410062 4.076105681801051 1.8444413115389569 2.7101494486895 -0.3433042356178539 1.0581686163754613
Ni 7.504047179878658 2.0163071139488706 4.750817793632192 -0.6592406207457163 -0.9893669242207154 0.428507509059075
Ni 3.097505227866613 8.803785338098923 11.561546231804936 0.44747839373462284 1.7991613187890045 0.8856043997200683
Ni 8.362877545645214 9.028755544946224 8.730028429322736 -1.2649778702566536 -2.708681348784406 -0.019477649108637425
Ni 5.914524296043636 5.368178934299549 7.74030958798074 -0.5297315834085845 0.2366713315479472 -0.48864355511902297
Ni 0.5391800521077782 2.426878216346417 11.757972025807595 -2.0126487560213207 1.1539267825143933 0.15209540727808
Ni 8.41088056115675 1.3369989080920017 7.182060352208041 0.09383883762903195 -1.0769942337223968 -0.25702752660679606
Ni 3.682412568830494 5.230077658965607 9.716076284219303 0.8314528533783293 0.15380339110812222 0.5120148828551118
Ni 1.155130736146037 5.017511872034821 12.025141005432143 0.9814996056574968 -1.8810910636852765 -0.08696396488606958
Ni 5.663842937041659 4.3752079693898525 11.693622910237618 -1.6648008668968424 -0.8202639266410453 -0.5971919310440875
Ni 0.7599796764241895 2.1210513274552474 3.6175543591506205 -0.011496430675373748 -0.2169478849770909 -0.5855368633036625
Ni 9.34247529214568 3.1189802611217745 5.974605949233451 0.6200634363256224 0.45829451051352044 -0.5233007401815761
Ni 7.865798436662967 4.06700657438909 3.9928621462158196 2.238419638606681 1.4234817521642387 2.265571259320808
Ni 8.551517809015738 5.255931281486857 6.727167668571271 0.5895542119931718 1.2385883245195313 0.15046301388097957
Ni 7.62101535083722 6.55778749915688 9.158008460713377 -0.7300778552732522 0.3113135416438703 -1.0743891919993818
Ni 4.808840275123768 0.9553302940604245 12.790367390556089 0.044288023284097915 0.9735492404621685 -1.3308053102744242
Ni 4.3709148623437075 3.7871852764101854 0.8453194260029702 0.6814068724301103 3.426790461731556 -0.5081286604268281
Ni 7.367598560796993 7.4476479107635996 4.507391025696244 0.5227289268385061 0.4474089739492682 -1.6015375880618226
Ni 4.888946613237005 7.074014625406886 5.444827041714775 0.182197368869783 0.3259516032720193 -0.32082379512715065
Ni 4.765358319244896 2.271595014803458 10.845461675322687 -2.3322196525779773 -0.48559319832847336 0.14623226362908362
Ni 3.929313714105998 7.211498529152334 8.251447672736665 -0.7881948140206426 -1.0017899804754167 -1.3017878399961518
Ni 3.2565686431360445 2.8495687979273265 12.896962769025507 1.0407218816539239 0.750175911574708 -2.3961401053810216
Ni 3.119892071467858 9.36600189867953 9.208622483143023 0.5014782449898461 -0.4049654600730768 -0.5799056331598141
Ni 5.532637227449976 0.1383776678450988 5.37340189793821 0.7757095370694382 -0.7420226863399544 -1.1012487353943874
P 0.29109735259214076 4.1206419183925815 10.172901815829283 0.14744196766646867 0.6089123048048094 -0.35328808630344316
P 1.3357546668905749 5.13694952934736 6.319205673486946 -0.39833509924075267 -2.385633292312427 -3.936989117313536
P 0.04403854011095985 4.058116423514773 -0.04643869088653669 -0.2354739688057364 -0.5901280822187708 -0.05084999277233177
P 1.7226281983143803 7.4915857718155126 8.937797713912145 -0.055751286728691084 1.253759375833015 0.7285580761946162
P 5.66711025744846 1.5060352490217244 6.923551671266402 -0.37143621796737963 1.4837373545211865 1.4004891479238075
P 2.28962226518749 1.5844034486627392 11.2806279120034 3.038901497524792 -1.8161187725789496 -0.6642918100163785
P 3.5197209082256045 5.502452505784827 1.8543525000403989 -0.9589422891822711 1.091699144032739 0.0308709785472436
P 6.59415543473141 2.392742316514904 12.700968185332348 -0.7003273634836972 -2.422143214313003 -1.8933788799136941
Ni 6.346769890209549 0.2887427923338681 10.195171833729937 -0.8287315977924243 -1.5202542185002978 -0.6350966765096611
Ni 6.864573688516324 7.596766894446055 6.725958570060267 0.9419755794209455 1.1480461553639003 1.6982372921784172
Ni 7.139807440691495 3.8641572664587596 0.013067382022313454 0.7478187241964411 0.7767662604687268 1.763399587808363
Ni 6.5438823913791015 0.650565284301465 2.921821219632473 0.8983115628740916 -2.959664468969335 0.6583631032367694
Ni 5.605629545258871 3.4262508497275768 5.933791988419318 0.9351007066779831 -0.02721358430031442 0.012731588634055494
Ni 4.717573758295443 7.201050702270124 2.408236443781222 -1.5185503484353138 0.20364036923490733 0.3980203962138113
Ni 8.837845253734928 9.032583248794888 3.1935634980240977 -0.010870881276232891 1.1931345630621064 -0.05960074238176832
Ni 2.276847422317878 6.981247420717298 6.052661663870444 -0.44479750446835004 0.6423682704704099 1.5019145396508455
Ni 9.161566420667992 6.099564808152017 13.419791022260181 -2.3144209338336594 1.37361314946857 0.2796285518357636
Ni 9.413805455677862 7.53053717003728 7.456876191307922 1.1553912828750619 -0.9035558419921663 0.017991551481414174
Ni 0.8478781937866678 2.402164356757771 8.205114409921396 -0.5126975107444331 -0.3121650910108882 0.21953750008113804
Ni 1.972986624485452 9.288023118040488 3.598843251007026 -1.2992673875671432 -0.12535207774596477 -1.1630284877053454
Ni 8.93256905145882 7.215345229049875 1.674664124703041 0.9037635871275983 0.5370121762303978 0.4837494602515153
Ni 2.132410964683541 7.5206877186946866 1.8220601667523748 -0.22926424045059868 -0.07663558637686803 1.4364413976487003
Ni 0.4519976857879533 8.76025589209786 5.407501705276857 -0.11517539432327907 1.7040929796282458 2.45243749442117
Ni 6.338658577339178 6.106051958843426 12.970583856052222 -0.8967465323798169 0.5387597550491238 0.6357327674317632
Ni 6.939893022312622 2.5477975654713423 10.43424660686822 0.9362512753426586 2.134828606686891 0.4789199000733559
Ni 9.455131360009222 6.613873333465472 10.581892446960284 0.6317799534316022 0.06303933574967206 -0.12931671882066761
Ni 2.8964890386528883 3.6709959434555697 7.544537258059441 -1.4516623283635126 2.084872329373422 -0.8980269417541372
Ni 4.790756036593106 3.241172345521442 8.673950193433697 1.565084487441111 -0.2744043273223468 -0.27713895264469046
Ni 1.0199833464124288 4.462304853489733 4.302055134967948 -0.4116014773323556 0.8677380609626087 -0.5376901761340288
Ni 6.968596052165386 8.27341565346018 13.702154941381238 2.058556317186713 -3.159660813693752 0.10621201448240418
Ni 8.254704545316585 2.045712997610073 2.2774116049695174 0.424472676868069 1.8352068995586521 0.5119590899165118
Ni 1.5402186389754284 2.524062002399848 0.22018130292547322 -1.7027894303254738 -1.564662312302028 1.1392586389792572
P 7.924572211887619 0.0625330932973596 5.462731767583551 -0.9995577487107882 -1.2305423142866032 -0.5035821787067262
P 6.596064537643522 7.93799292041904 2.395878564184455 2.8732077827369875 1.0342380737017929 -1.0852739572326857
P 3.033858966105076 3.845208707704206 4.1922902657434475 0.07595758647323693 -0.5046288748036857 0.266802860826005
P 8.308757802395364 1.2610717007316485 9.648140714621398 1.6726751274385967 1.3421094224333339 0.19668322119078385
P 4.111989218129224 1.8050520543905804 0.843352385141783 -1.3168699311402547 -3.1817085375224106 -0.8182584661752424
P 5.673198491113457 8.372185609594819 8.34123629696238 0.4732570453606237 0.4529622996673296 1.7410569584471047
P 6.761814562117569 5.674186285655048 5.691200096831505 -1.0263532716370776 -1.0474365746699381 -1.0093202274141908
P 9.27348164262534 8.18561591555186 12.398155019595475 -0.9338781471247916 -1.0749512351504389 -0.39999294655914985
