# total energy = -340890.92165094503 ev
CRYSTAL
PRIMVEC
9.07486832730141 0.00000000000000 0.00000000000000

0.00000000000000 9.07486832730141 0.00000000000000

0.00000000000000 0.00000000000000 13.28198709875291

PRIMCOORD
 96 1
Ni 6.364350415854513 2.3454814151271917 11.57689856803449 1.72667163625971 -1.5864873785969194 1.0077063459598514
Ni 4.502387064634525 0.47677271421590217 5.8667073192626455 0.1910188238161549 -1.1107163085651903 0.1980801015383105
Ni 2.8008401623491967 1.6830432455914446 4.641470312904163 0.34036649314576867 0.017225619849667105 1.0098758428073447
Ni 3.200206971463669 4.367616193834692 5.030008081541533 0.11708880929590801 0.7435427225289066 -0.2674322668798878
Ni 5.259485186585129 4.567036427207954 2.5598906086580246 -0.8713178078940672 -1.2230832869053967 0.24443632020534678
Ni 7.258143280708483 5.961798327927116 2.535438375719492 -0.18127151462140395 1.2328053992891672 0.25622225709668134
Ni 4.990115867485309 4.91670925689344 11.383459580432165 -1.0087954652589723 -0.539522087136445 0.23426272210645463
Ni 5.5871968347114205 7.693301370843394 12.536336308526785 -0.6444428936112514 0.9496361812899967 0.8113825649910155
Ni 1.823794454675372 6.783291716135589 0.383355111286769 0.769054750757082 -0.5219696800749785 -0.49430126762543264
Ni 2.692567907315004 1.6030392056634046 0.43290661528167346 -0.04992285297237209 0.18665746152366564 -0.4492758519546779
Ni 0.6948726567302578 0.11175246707053653 4.639570942945344 -0.7588341014703383 -0.7009523986622057 0.5577602074110266
Ni 8.794355155379364 2.1761806700163118 1.4113307954674161 -0.08817932535040941 0.9022746612868977 0.0012750100576816752
Ni 7.042642380507578 0.6323758529443655 4.830193998879151 -0.7296960464538014 0.3700205685667757 -0.275604518278035
Ni 1.005794890805861 7.647319012595279 2.4388917581615943 -0.32910840373344613 -0.23706342478004336 0.9541839485616793
Ni 7.734101979227749 3.8243491962970197 3.7189164675892195 -0.6295973439579866 -0.019581007455721115 0.4407696142558796
Ni 7.8700162834476055 3.96831290879911 12.751703808162018 0.5381532318133764 -0.5228500257974028 -0.7129579077635141
Ni 7.685397160455767 8.655990636688026 6.867810503099043 0.6420155151166814 0.5328806705605275 0.7002849402815359
Ni 7.056218383653262 0.5311620305617184 0.40536801959591684 -1.6431503785066026 0.8023788188305084 -0.20208742292549067
Ni 1.9123651703851805 6.537199434514832 9.297576573584635 -0.2453698877632097 0.9614573422946411 -0.10550856065747635
Ni 0.1144250158181327 5.252733484485939 1.2284086728687882 0.13705471089487364 -1.2758708630200737 0.6947552687125583
Ni 6.335065815486115 1.835174339665136 7.033981326094316 0.7160499164252765 1.1721484477287427 -0.38630105089435407
Ni 3.5667590563971308 4.225857674356934 0.4653873843050901 -0.2861457841289911 -0.5269864165632795 -0.023479314068862788
Ni 5.936751691107539 5.408267654214464 4.80595411786148 -0.4834522407260706 1.6226424883612376 -0.6291980516370389
Ni 5.428549985117273 2.926518014999313 9.603660087822485 -1.1262871664202538 -0.3044926620672949 -1.950617806931505
P 0.33216831600386176 5.674778389764224 12.423639147654466 -0.5506608773620839 0.2600524294760489 -0.8449778844479576
P 3.7871331609357566 6.1686327287937095 12.831409284919275 0.6635446474377088 0.25558153818888885 -1.7906612517377933
P 2.6700168593089715 8.555695190988764 1.4343346794072516 -1.3721915865306948 0.6384319115304811 -0.1054882489425022
P 6.199959174555006 7.729201550284788 5.6158098948172634 -0.8994765297164703 -0.7011632291214311 1.1161791314519744
P 4.854991076817374 1.2973068888331334 12.651704203173017 -1.4246032673631916 -2.149869560180414 0.35416920335681584
P 3.900696064254665 6.107023447138598 8.32479060914382 -0.3045021751489917 0.3547790690266729 -0.8727943924395936
P 4.8033278509427895 1.039762123275309 3.7375380975724704 0.034937178196817256 0.26293437900953426 -0.18609696103450532
P 0.22190412735303924 5.865622872487306 3.38507383836318 0.22480851867209026 -1.3611183594356688 0.46953074554897206
Ni 1.7788194068210879 1.0710794941681931 2.737510285643001 -1.6352930872457125 -0.5534155572890856 -1.7960240587116034
Ni 1.4661629653917816 6.732127608023714 4.920007064074684 1.1041219431771243 -0.7258995555258467 -0.21506095236702316
Ni 5.845585563031644 5.771643535203414 9.280735432783993 1.1192485144059177 -0.5654622040409745 -0.28055466319445876
Ni 8.632768048419441 2.2917672689912942 10.142484029785205 -0.5054966221206199 0.148800281466576 0.6639593663776242
Ni 2.1274395517706783 5.159616259701273 7.297681574896604 0.19055165437174926 0.6029465741396777 -1.3894485738389295
Ni 0.5795129294655974 -0.1742547157774766 9.177547826521542 0.49974583567977154 0.5998249977915605 0.000320616564212351
Ni 1.3263192431491433 0.9991883866012768 11.345022067782528 -0.15502209400657171 0.684155381709525 0.8751333249854154
Ni 4.087211834744798 6.7194500168509075 1.575695719648525 0.6758918561491521 0.4815323979955384 0.9715280962670818
Ni 5.380788952660233 7.7847851193137405 7.807178264609388 1.2979700089119581 0.3974745510126703 0.07318593726537075
Ni 5.095202843706578 2.9815661667919056 4.777756686728948 1.0128506091649525 -0.3801849106942872 0.25883655479107687
Ni 0.6455498394193583 7.4433431952787465 7.144300871442458 -0.6214441187232329 -0.42787218946792116 0.5558563055200942
Ni 5.030226785870283 4.6254150557080775 7.066442130407225 0.2903348825096742 -0.17668080992692797 0.10048822462474952
Ni 8.254990351259234 6.978301563460188 9.454875805219466 -0.563091904036585 0.6033864898905738 -0.09250597775022135
Ni 5.052369464797736 0.5441354624447862 10.493793058245537 -0.7664851902576929 -0.43383534902989157 0.39067732558517876
Ni 8.044299131317162 6.9838190834552245 4.784689886196396 0.43742718014620796 0.7143835844664471 -0.07876780222852241
Ni 7.296938343173588 6.087294683208975 6.96832828307442 -0.18854465124404945 0.07884622087494161 0.7914853118464562
Ni 2.375355881942426 5.074566592935666 2.481128010728868 -0.37733072907494375 1.0478808612962083 0.799700500667397
Ni 2.5928078788521014 5.279232100251578 11.178067176156379 -0.7804053998832107 0.11452747632663501 1.7452977360013298
Ni 0.9749131135967956 3.2876977778323435 3.5409111086966956 0.041960917812818056 0.35784588087745467 1.1112490411402087
Ni 3.699224910620089 2.4073992423083417 2.397677335777612 0.986297284156456 1.3807345910046995 0.4389374461431472
Ni 0.9129045377315168 3.2450731208969983 8.254529347943858 0.06425701020685708 0.5340062995245384 0.2680498458592287
Ni 3.2600920281203316 3.034862868980809 7.06403819776465 2.19393055505537 -0.8400935597724628 0.769786486716784
Ni 3.941260726060284 6.857560439226683 5.9964851974617055 -0.10678485626673867 -0.14893654993412414 -0.665634440087202
Ni 0.8716120714791837 7.527104230729723 11.530797329010168 0.49214179808026853 0.13195235667130178 -0.9502969548024472
P 0.12625410679433507 5.532021634761048 8.10211874792305 -0.13807286774674282 -0.555081889247915 0.057543602742423476
P 8.713071559005106 1.4802834606422386 8.000020125870147 -0.7611745766780568 -0.89439731542135 0.8720012071143369
P 1.6933432212400752 3.0879599240646303 10.559074031660503 0.3611914003109199 0.27019800255048304 -1.7038541241445626
P 3.97581782497657 5.884671021285961 3.757991943488283 -0.043583026797273335 1.5811256000643739 0.3306148130756435
P 6.884013680650258 4.155854139419899 10.693539986881662 1.1324557571248108 1.127325377876781 -1.5125756189091177
P 6.292368559603467 7.7379406485664015 10.30759218568933 0.868582154130459 0.4672064682911696 -0.32594080463874187
P 2.1292908249269082 8.469066497119314 6.054460901804297 1.8596105252139976 -0.7565648458201873 -1.5803856365745559
P 7.161985975005498 4.049306109384155 1.5039988142656446 0.49627664618424855 -0.6023547061919496 1.3321098880184605
Ni 5.693418169484301 2.792799828935376 0.5772914016781219 -0.9918940615179433 0.4721509567806385 0.3278488202947321
Ni 1.8420712396589327 1.1970386677391094 7.055763732745777 -1.737362283204337 0.3740284041745881 0.14880156701815664
Ni 6.976713461487932 0.4780813102410409 9.015055955180854 0.3106301424236005 -0.14179531090365258 0.6560133720576702
Ni 2.979342824030747 1.5161019662679163 9.339029665007876 -0.7998889625291191 0.7986489194744311 -0.08227452983020024
Ni 6.5425717566152635 1.8791511519940023 2.6195134016175547 -0.250663274951665 0.050554315908783905 0.5224761873977518
Ni 4.179076727688485 7.190508286427212 10.287496797075827 -0.4167254288224823 -0.0448346398161873 0.6160406883194744
Ni 8.161292334896142 7.339553925240521 0.2875390206361089 -0.2519585967243209 -0.863075879600249 0.4188561020122399
Ni 7.39525546755884 3.8379977983900067 8.428642495774096 0.6642750978458302 0.3633989494851999 -0.24905376437270008
Ni 3.2400365689278443 8.604372785155508 12.508311299894098 0.5667616395786884 -0.34689041030721546 -0.0206133053749774
Ni 0.27355101846448 4.930720853722942 10.290751044888689 -0.573080896928497 -0.9913392174557379 0.5142455719578434
Ni 8.668395981808448 2.4340702805738257 6.082738191778863 -0.6587672806537235 -0.7817380026517053 -0.9278293698275504
Ni 3.591714944532579 2.781410869077199 11.603900838997045 0.41416795250795124 0.14156802538419488 -0.2970865994112109
Ni 1.2775781249035099 3.6005629412351468 12.66288716351822 -0.5420584804050536 -0.10834320189279405 -0.3377421681490441
Ni 3.124803889820964 8.397347812052242 7.969325290950387 -0.28718476691646666 -0.07120850182402574 1.0472851366937381
Ni 5.635084915326242 8.039879670400085 3.486574426587674 0.05128785164069877 -0.6062321868694851 1.6291712906186913
Ni 3.225435105651504 8.194125208813979 3.659027780985192 -0.2525072701389393 -0.06511370178019754 0.41397383421927414
Ni 3.293886838089935 4.166090590989639 9.219080776786818 0.2583716993395163 -0.5608180204007438 0.17131594607058884
Ni 7.079531720605977 6.1716455851067895 11.704233491656801 1.8228897727541962 -0.9874293408783703 -1.3380936164057213
Ni 0.6002417438943213 9.082128307620524 0.4052346190302473 0.935288397208757 0.6458140629271651 -0.14623380629098043
Ni 4.664228267910008 0.10584109778637983 1.556994230823241 1.0228218614450513 1.2550742379896966 -0.9215147404634323
Ni 5.866675557223201 5.327710047313238 0.3581260696120929 -0.13091697342825195 1.0176889110938603 -0.24615433133771802
Ni 7.915862518669526 8.75323692660056 11.575942076903772 -0.4272993476835867 0.40995340020597143 -1.240307106982851
Ni 0.03253703320757657 4.77240069939166 5.8362774705005425 0.40050408186761344 0.5034268840757846 -0.44780955182179644
Ni 8.073692630106514 8.863124508212245 2.472933404552028 0.6247605846909756 -0.08079717395372536 1.0846373520899515
P 8.57291929123643 1.5896809993596301 3.6218389702291676 0.004515885592482545 0.9024317556900523 0.0527145567848963
P 1.5958428350119827 3.3737910544654333 1.4955782438653238 1.8917809392989549 -1.353254897527192 -0.2933248183759335
P 4.548832241171697 1.2193446942979935 7.951898821137114 0.3861503842491027 -0.045820657878540436 0.5527851227939383
P 8.543988610736136 1.6112247369718316 12.538567818669515 0.102796561042952 0.39792912205158565 -1.1853708599562875
P 6.455825089456447 7.816574383364094 1.5943563715659512 -0.44972965166264484 -1.0920462429595126 -2.225660024948167
P 1.639538326420049 3.123206712980296 5.791491179909246 -1.2527566456001136 0.6091218497124542 0.12702997966901994
P 6.982457853193291 4.076784810938387 6.030752808075621 -0.06473394984327561 -1.6721544790484364 0.5443480477701786
P 2.7115706817715957 8.734760494511914 10.361078552628065 -1.3253520004693369 -0.8759946445444462 -0.4382774439616452
