# total energy = -340858.1492074456 ev
CRYSTAL
PRIMVEC
9.43543980370169 0.00000000000000 0.00000000000000

0.00000000000000 9.43543980370169 0.00000000000000

0.00000000000000 0.00000000000000 13.80971990159127

PRIMCOORD
 96 1
Ni 3.2008785666421176 4.282387536886348 9.475096861389323 -0.5852195891735599 -1.6690475579883384 0.3144618574648648
Ni 3.596478247291817 3.9305399901640143 13.676303762113442 0.5092771722089745 0.16935008059346965 -0.8851865954563594
Ni 4.278707715400113 5.01833296325397 7.595194007068119 -0.536942756445043 -0.10251476813647506 -1.5752845679025644
Ni 7.525602921499587 7.865316492757054 1.6681593211954362 1.8991787744249224 -1.2653897609830917 0.24722416736312905
Ni 0.318874459117725 7.4265308045624865 8.190875960908105 -0.03092420038268222 -0.22983039736671385 -0.1576577318572059
Ni 5.1136403397474615 2.60854996807446 1.0015634331398149 0.4891552046481189 -0.3935284218807287 -0.19549100065489558
Ni 8.179299619929997 4.392112265254115 4.586732362397269 0.35024158616763557 0.23447843766168647 -0.4999792918468164
Ni 6.685169435802302 9.078119606542215 12.489800992971183 -0.9306436993478939 -0.08776152108670048 1.1382389394654915
Ni 3.1770729522580883 8.886165021116653 9.57884989996571 -0.40756047449376265 0.6619932437901889 0.1250988240845781
Ni 4.431627886752456 7.289999991983452 11.871457000039813 -0.1917994107359213 -0.4628710741406093 -0.707323335185556
Ni 1.2647074676204932 6.178458017147717 3.5155268923144973 0.5640979767035963 0.13558455410725037 1.5653457115222977
Ni 7.283725424577436 8.251990247442706 7.137594995639182 2.417427039784256 0.16267395412487468 0.8710570980335128
Ni 8.486876083541011 1.0741870690305935 4.52178540025316 1.4123087662665548 -0.9985822721713964 2.0282612657475974
Ni 7.474104291571711 4.569423048252402 10.530146028059582 -1.5395608892487098 1.0827673887607483 -1.33471133019705
Ni 1.9862732838726727 -0.10149136367830819 1.1424892735349728 2.2794130502999064 2.625791811078026 -0.21955806890642834
Ni 4.703925241294152 0.7613201543751401 2.8980386937646694 3.223604149314932 2.939864146413956 -2.1540763991729097
Ni 2.416718043365107 6.545553234438656 9.846551251825495 -0.48485040662517787 -0.8679699744677568 -0.21006555603496083
Ni 1.9291322609992358 5.14547551332325 1.3785535960528434 0.15589755463298957 -0.590878330121234 0.27911664519635154
Ni 1.2066700779747686 1.5892771581461453 13.38359283376285 -0.49892668221258596 -0.30859974225713305 0.023465687222107973
Ni 4.931404257221444 5.44824933812274 3.6849996555471023 0.21867000987452015 -1.1077785660931052 0.29639625821240567
Ni 3.2749373329125278 6.576926071468739 5.21113956888519 0.37818844908954874 -0.10400652219065312 0.29578407854970346
Ni 1.1403578077048688 3.660214642521352 7.831022443593283 0.2515495342113603 1.2752242305750103 0.8920164738939993
Ni 8.157833994593625 6.8462606979420295 9.977633097972989 0.4414373297468655 -0.06054228035943121 -0.1728480664443991
Ni 8.127244299059333 4.076685515805801 7.725198326000926 0.04299707238681627 -0.024269928290958205 -1.0578909372340426
P 5.094590186976413 5.598357748442011 12.987337390053423 -0.4095757051515785 -1.1124152935341678 0.6046532724181393
P 4.075421166884889 8.926161850040117 13.611039769195132 -0.8196905706360786 0.6636739739267214 0.06554616133192584
P 2.067050083215389 6.084160232703013 7.670152914286701 -2.0041276059241873 -2.317553308815054 -1.2370060676340762
P 3.3313423914887177 3.330578120872346 3.244731659774362 -0.22940745089668232 0.5223016094931004 1.5365010193764634
P 6.773607812188155 4.3055987185687545 2.6938482301253917 -0.43907371461069544 0.602763254484278 0.3330735590287812
P 3.8959307973139867 0.2843388626974223 6.705392413729093 0.9953452532913374 0.36640251219821407 0.06974914366967987
P 9.401689140458785 -0.0918596668240803 6.379234738700535 -0.5278719044920264 1.5628602260962827 1.353644933876759
P 6.849204555131018 -0.0033693955198322726 2.833851284517078 -0.5162510324236463 1.822383779652055 0.5533409952974083
Ni 0.823724265517864 3.7481151988438315 3.3366488827806626 0.8529254214298084 0.2502287585174078 -0.28120360963236735
Ni 1.033312744214258 7.528037264944327 1.3713883231383641 -2.4260942285409506 -2.7207853311367916 0.6038564875484568
Ni 5.8578229049804245 3.323501541091124 7.53063389795205 0.9067990315198124 -1.4390734359549087 1.9617450271929184
Ni 3.1406993321826095 7.063794760416779 2.3707419762984965 0.9250587490609488 0.021113384939847508 2.3673877158386776
Ni 5.443286296836177 8.134660554670052 5.981680034943277 -2.0355040633529393 -1.4376462165900787 -0.030873806760721018
Ni 4.260704896436685 0.021240118327343682 11.574989823141348 2.219219925749778 3.4995526811959476 -0.7576742768342822
Ni 4.740676278957962 1.7694751856951703 9.834537106444923 -0.0964780750240919 0.3738204019288401 -0.15797166355319892
Ni 9.267913476274575 2.4505346592796373 10.2089315798942 -1.077694088002899 1.9715489006572176 -0.9381304946432424
Ni 5.823147664052438 3.285929620172692 11.586410479364268 -2.282216838297289 0.7605559692574515 2.0110901532849494
Ni 7.679900667049342 9.147649361752642 10.232311655947386 -0.5421687807306727 -2.1637627732227385 -2.61253828850223
Ni 0.6755350236352604 5.21897758865087 6.058807206206823 -0.7807609834504167 0.16120405444756752 0.4400687315341131
Ni 8.74365213976256 5.633457584156869 2.357098330480301 -1.0595708960396268 -0.6303946430483014 -1.2040733214617974
Ni 9.082035314021157 0.485083503755231 2.312451716868589 -1.111565543939363 -2.7862859839427623 -0.6594614785072707
Ni 2.0316011362313238 8.94175863187793 7.336841288871314 -0.2518822349604307 -1.1489666102956406 0.48799075202637254
Ni 6.752566781638656 4.3331124607581435 0.4651067908048281 -0.17265729058983167 0.09136337950534588 -0.429141543098648
Ni 2.967917560244305 5.229186734415246 11.777453601314008 0.19198478727385002 0.8656397836726833 0.2439619516720895
Ni 4.854486552719421 5.539820280491746 1.4319987571925408 0.31155111157597315 -0.4710687794600532 -0.4713174051357496
Ni 5.9799174948057665 0.593910921806739 4.874582152210148 0.04271502237002321 -0.8438995637821144 1.1336328081520475
Ni 6.837240417580899 2.289717024891451 3.8703532073527396 -0.9695375481996141 2.4812811581257397 -0.018810190727967604
Ni 3.724186923743595 2.532821128975681 7.438771400496057 -0.6106526845346838 -0.6939422858929597 -0.41676373825958546
Ni 6.150519680171454 3.9003843248563026 5.463014857722251 -0.4175008735359262 -0.6080705256298045 -0.6256440157371934
Ni 0.20236281896778138 7.493229927860426 5.511777210134721 -0.637807904793237 -1.0076184142317357 -0.5167773372407616
Ni 6.494384844900571 5.915473441598109 8.251225033282363 0.3699521772226854 0.26300662700836636 -0.1494011482753685
Ni 2.87562008901776 2.3498773884715423 1.440782208016993 -1.6141503917298266 -0.5068359097573336 0.1879548401788505
P 1.1073620750449598 7.98162715804121 10.43441688741113 -2.672069353988327 1.6553379217117299 -0.7229800678862065
P 3.1551072486171767 9.10293481297503 3.132803756234708 -3.00775283983613 -1.7457769896305935 0.030609754466056963
P 0.49596728345874974 2.2037412982694637 1.6542524266093797 0.8799839682094974 1.7625033012463387 -0.36636394565079483
P -0.18298525643885524 4.6069666628517085 9.4654585597273 1.4011769180194513 0.6813099418409299 -0.0335068735081939
P 1.360467745219983 6.232249458924708 13.362450844008471 0.1865924126136851 -0.21575694999278328 -0.43508207695279905
P 7.987373340823562 6.290484992804308 6.669804765781315 1.2526532872530298 -1.2193618721897517 -0.5514473778191213
P 0.11161747757325077 2.887697451844378 5.315139815981933 1.1468595912549666 0.12181218291350634 0.6620361812129824
P 5.918153106475264 7.878327964114793 9.938689264120972 -0.04965648668486287 -0.34702847854697655 0.25156907459538613
Ni 1.2873053457218606 3.991134383970687 13.019154636293765 -0.45565938688351854 -0.6173439805119303 -0.2867613062258029
Ni 7.2868579905605895 2.3307140104239945 1.7523149514976935 1.8854971631727722 -1.2864866908627068 -1.9000881736130695
Ni 1.5056980332100651 1.459181315448169 3.5848792612584095 0.28671605481016427 -0.3612168542322166 -0.13939210077879866
Ni 2.632355582458489 4.270621543570104 5.320029260838772 0.7563555580228587 -1.289105873653109 -0.6288884908164202
Ni 0.2796994569928535 0.47200787140747535 8.869002899831235 -0.7738079491713511 -1.054248969606081 -0.5441223049126177
Ni 9.458273472389434 5.538282303819294 11.62022992591071 0.2130822313740975 0.5068816753936044 0.22738322137780195
Ni 7.342734664513115 6.774004100655904 4.396020424381291 -0.4326364436257839 -0.3389547003999066 0.6859003894250897
Ni 8.00360229712183 3.419714719796612 12.274134204014706 1.87142114469568 -0.6465558261891962 2.5203367293663046
Ni 8.801123403025786 8.227590200357053 13.468826934823763 0.27630462966885316 -0.13502148251492876 -0.357754606715229
Ni 6.756803294067681 6.820879365126715 12.129974838431515 1.1239646889346644 -1.3943125867994504 -0.19902241084692177
Ni 7.166961858187281 1.2378542062106848 7.093556024344684 1.2520123112349213 0.7875988323078564 -0.7775177939227707
Ni 5.4124041026709255 8.051062558854555 1.1443055956788195 -0.9114838385899915 0.0856177352708203 -0.6253676221473552
Ni 3.4382459233837044 6.917177462789578 0.21317677641745872 -1.2450752177954558 -0.4087238986742445 -1.6651762479583905
Ni 2.2449458634755897 8.69122883674327 12.066574344855594 -1.407108453012538 -0.278439673733985 1.3750424257159286
Ni 1.517133786136519 1.6303118854375218 6.923737924018755 -0.8830057857549567 0.28267608041283576 -2.376605377782204
Ni 5.658876658731017 0.025788000266742047 8.369781333217093 -1.3448687303460256 -0.281008977123058 0.42252738021624003
Ni 3.6106125359748433 7.256768373330836 7.903275266703526 3.1089774284062712 2.2340528769975525 -0.6931313599558901
Ni 2.1574132893017337 8.66029946537948 4.912710764071369 -0.1922105301314109 0.7667297021683311 0.28013917292359497
Ni 4.717238646722556 6.077328974354208 9.832700026333718 0.743563548464513 -0.504679268425647 0.45116278456474557
Ni -0.07011192184043033 0.3777166917705673 11.52269201147018 1.2119051588013903 -0.4085539487552835 0.8302991993898604
Ni 2.115595420514569 1.9016656960083882 9.202879708085149 1.3534973525553013 0.0654109213056422 0.5408084100480364
Ni 3.595006318697323 1.4351209441920159 4.804139046435957 -0.17450437110089947 0.6687645010757515 0.9831803357940293
Ni 7.10341417175191 1.4944981662763186 11.23497997907704 -0.43203840503046875 1.5888882747289281 1.6156177203039725
Ni 5.344412324132949 7.909936687137582 3.4610881793735158 -0.5015713189242846 -0.2861247010830685 0.7952650906038626
P 9.088319316866881 7.6474238835733885 3.308919069021954 0.5321355648643867 0.1991774483675473 -0.3015564622571065
P 5.456382687151289 3.8741632379069495 9.59800384257355 -0.9761141729758672 1.340092649113621 -0.8429058324102773
P 4.416663279375099 1.9827538648614784 12.749727542511334 0.2404781068885471 0.6696864986693886 0.3282118600611057
P 5.356848233668483 5.767337038177871 5.7653923940539915 -1.2393087476253237 2.1814856444237978 0.6555886258154258
P 8.146454854305421 5.72832149498407 13.59431545231218 0.7925860011098027 0.9666725679469932 -0.6686673133762548
P 8.175393347890763 1.033793951639381 13.38703205153652 0.18941702654667378 0.07636999142030718 -0.11235232305218716
P 1.524285849435407 1.96126936864569 11.212926525846843 1.457753014642283 -0.2713709398126617 2.0749501851637038
P 7.49076727809656 1.7735512956491537 9.237432288296926 -0.6743885321307482 -0.9565344510717269 -2.8557425360726882
