# total energy = -340894.2637532475 ev
CRYSTAL
PRIMVEC
9.03139912118763 0.00000000000000 0.00000000000000

0.00000000000000 9.03139912118763 0.00000000000000

0.00000000000000 0.00000000000000 13.21836552167653

PRIMCOORD
 96 1
Ni 6.048355105695829 2.114376980862969 11.117187237960144 0.5537886243577882 0.24952530469247994 1.2215269981618704
Ni 4.732417029585042 0.38966513521413215 6.039960420184872 -0.30457442314782385 -0.2600413737324554 0.024302581301106532
Ni 2.854193073725297 1.6847804174421193 4.7567078807418675 0.12861326499573977 -0.6847966148379497 0.6207054407849955
Ni 3.3494840345713213 4.540021133468945 4.782999186810664 0.014558614540465248 -0.8725455096535811 -0.1323673327215333
Ni 5.190390249138679 4.505936633072656 2.550959331527203 0.6025287698759688 0.7212247757579965 0.916785453308563
Ni 7.381299306408155 5.954690465099667 2.5298231480938598 -1.2047788321692543 -0.11511625895056948 -0.05268447487790927
Ni 4.890737456704 4.520007552950085 11.51339471871934 0.669007470324493 0.3952253499671774 -0.7762903492735728
Ni 5.564019232020101 7.925468199459987 12.61099510779238 -0.5688424333671172 0.2987004808655501 0.3439372412161625
Ni 1.80731844112438 6.378470807467202 0.3279292000368894 0.09937956494160305 0.707325134957769 -0.4458341732629805
Ni 2.608042289861794 1.4404630076062914 0.30888288236711353 0.8319300501250639 0.06623058899346013 0.925505092569748
Ni 0.8794966152733102 -0.20505972400578304 4.472632445563023 -1.3237957117258103 1.104914871392065 0.3463160258609842
Ni 8.81625316053227 2.306854159571426 1.481223518255081 -0.16125547651079325 0.09473640974263685 -0.03445098258901809
Ni 7.051355201220653 0.5591763690212311 4.793798933915561 -0.18940468525149962 0.41460863958979566 0.5423976089120272
Ni 0.6583754510171933 7.183656167385264 2.408134979071719 0.6615661835550993 -0.24000553812750278 0.08070744245339649
Ni 7.67392567030327 3.677495420340486 3.9797194521134855 -0.4466055042113663 0.20818196585900275 -1.5243191325982908
Ni 7.649540892595274 3.663894133218914 12.511011197210186 0.24467491857871407 0.7379896539211613 -0.49107736137149627
Ni 7.97902439642607 8.910875129438448 7.139556748470309 -0.005893225555983399 -0.07971859617756594 -0.02144300036512436
Ni 6.651309375822235 0.9156935599310441 0.5359105816680565 0.5615651829794134 -0.678335175483322 -1.4289031802901262
Ni 1.901299180690831 6.324300475358844 9.092900269909325 -0.35298443902009535 0.9071407311299474 0.4413604537623432
Ni 0.06131958767637653 4.7695360800961035 1.1668513514839227 -0.0920200392527383 -0.08985697016314848 0.9313790348520218
Ni 6.56640519240265 1.9149998132030648 7.031681201309874 -0.2976188177655971 0.2820495025724304 0.061216166498004244
Ni 3.567348476293548 4.563864027227876 0.7898437221800715 -0.3581045338554801 -1.6385879559469008 -1.732893448799706
Ni 5.839892350489907 5.297105261508195 4.80892110865418 0.2832322100266219 1.5486104010454877 -0.6811844720066591
Ni 5.297322015087822 3.111497635540421 9.053641680939366 1.6396027703646603 -0.557337518051311 -0.17279947259465078
P 0.14753603339261806 5.532987344536887 12.310144751830265 0.49573208653468814 -0.16336352399273157 -0.7043285142232902
P 4.0060848156553215 6.262877929732144 12.548538466962878 -0.6020862830219114 -0.36538538378760943 0.4082600716639485
P 2.396581110137704 8.43417981944456 1.4599816674516704 -0.20468320867712492 -0.21931458543705454 0.08161401342806589
P 6.3561271259673555 7.867305988926838 5.981019703044898 0.2672903419853848 -0.5081368879569442 -0.3834209011330816
P 4.654313489726243 1.1017494138430615 12.617365856753574 -0.062031720420764144 -0.9047136097456935 0.009698715345002652
P 4.093544885034671 6.233227846319051 8.192544735156611 -0.5597990922179262 -0.2205713406622911 0.2552156702090379
P 5.017800211360966 0.9193874021838481 3.8759820920440906 -1.1559348140833574 0.5834370433518403 -1.0211107922912157
P 0.054358185210700946 5.450566795883856 3.625718409007172 1.7006870392704905 -0.0827733238434897 0.24723830843051614
Ni 1.8127824376108017 1.2005077635604493 2.638808654209965 -0.5879858390647873 -0.79281662906337 -0.35302557667067586
Ni 1.6658867304179974 6.622210207757358 4.765537879691907 0.16122205216969654 -1.0589682294586213 -0.14304152460592787
Ni 6.0278718924211105 5.666335953003026 9.141755623617255 -0.7567029140599484 0.20729802059215266 1.0826964263134966
Ni 8.49943167831133 2.3500242475137316 10.31956477169122 0.2985248745196343 0.7252953462829443 0.30875889354281666
Ni 2.4103539938431466 5.260491969349595 7.087647878709389 -0.4920471814839332 -0.5762538953398398 -1.0563374767039937
Ni 0.4216624792665998 0.05361490106056459 9.251044584744838 0.02324225835739223 0.1013261471450126 -0.08420722807653885
Ni 1.4872908122047968 1.124120189540361 11.333889338611622 -1.321133077291983 0.5116724119140285 0.18020604947136706
Ni 3.882426898478323 6.707285987760814 1.5730511722639071 1.1976990425043372 2.0734869703546157 0.6129887888670281
Ni 5.691172300668579 8.081006955640403 8.062092496398234 -0.5316388277336264 -0.41737900324608124 0.3288710909116594
Ni 5.059434961447584 2.8047281005746676 4.995035666660679 0.7056444048212364 0.2285142496584516 -0.06241867144653767
Ni 0.8535177956151423 7.579168230409825 6.933693229940077 0.33079016231124325 -0.4789754359016396 0.45877376414278404
Ni 5.066380107394788 4.570538231200546 7.077972540798805 -0.4296709332395568 -0.19591574689714 -0.2690140095447109
Ni 7.942284664679353 7.149436196001708 9.182811461018286 0.3919788180054217 0.2835320006552278 -0.28449667856134225
Ni 4.510741337421046 0.38728897409747504 10.38644950752451 -0.4940739821059749 -0.18720099273196147 -0.29849170728885366
Ni 8.144949261630263 7.047002066829818 5.0123642122119145 0.26060650220730597 0.2519449698775661 -0.4672717743114662
Ni 6.959731656832642 6.067194604325044 7.027002033409685 0.8577822353014775 0.2712184733951974 -0.7395860518740036
Ni 2.2734741083089234 5.3049716101688125 2.5775288046898535 -0.9883986467701751 -0.7681684914973868 1.1355727054872378
Ni 2.3927066399018777 5.166727983362771 11.41645077709141 -0.9694452455961241 0.1608124754361037 0.007044565551607222
Ni 1.081762927521655 3.209957949085823 3.780029798042953 0.15617446244346006 0.7689035698911983 -0.1930520521960998
Ni 3.9582454943518917 2.5896904867867385 2.445463558043087 -0.5364272502612051 -0.5458518860092147 0.4253031431891643
Ni 1.043677517301424 3.5055646747008047 8.146676968287869 0.8363903998892628 -0.355617248657252 0.05663600332648956
Ni 3.512356286862439 2.7997066426466506 7.243320299597242 0.5706545468751915 -0.4369006182187766 -0.4939616248978267
Ni 3.859523270231108 6.718566205300552 5.911609788008957 1.146640019044993 1.3418047467087215 0.5820851573096363
Ni 0.6169384885719853 7.359967141613233 11.020098793945794 0.24749053365063828 -0.2749743408932039 0.7058824889739713
P 0.06983529393595816 5.6621905407926665 7.7112244456574395 0.8971959612124097 0.7523670056887558 1.2889955733274896
P 8.61139393358764 1.8056386008822736 8.122236195905135 -0.3822577340629159 -0.7199459090455729 -0.5632762521332493
P 1.6142542214711013 3.2693032729077665 10.545308206032875 0.06641570842107271 -0.03967315021990587 -1.6330572559366585
P 4.143208548966625 6.2786919096457385 3.798614611216107 -0.6330053411982711 -0.5527910363312093 -1.3072622328471615
P 6.865642540476378 4.068365344201376 10.372067907516282 -0.02767509731776524 -0.03549742157566145 0.09780939224100575
P 6.129375787480436 7.976613012852723 10.397130040160613 1.2108669473448632 -1.4100670214202295 -0.2548469740157095
P 2.578762493813895 8.558804096330727 5.912257339328091 -1.0350734251188949 0.5002973373078674 -0.8590618733448496
P 6.9489120406496125 3.7911194530606007 1.4547344245448754 0.4242006541536049 0.7024485235917579 0.4638097839047947
Ni 5.432802033753624 2.9242044799447022 0.13226935626758168 -1.069929099345499 1.2809325938136973 0.8741205674501848
Ni 1.6097294904963952 1.058200007136409 7.214570646679513 -1.221736028848883 0.7941250634621484 -1.295332057068479
Ni 6.867430757508298 0.7325566542246654 9.380320935333742 0.08878070637983419 0.2467379717553299 -0.8658279884240895
Ni 2.6869857498416465 1.6746381561954229 9.200405529704565 -0.03117719693375276 -0.13695752319537702 0.8714674460980539
Ni 6.545235592792448 1.9398993806626752 2.6207521778871508 -0.726154094738814 0.27094645068073336 0.2746696651685915
Ni 3.9786745192317023 6.847218486208113 10.43172300832911 0.5397629995026575 0.6434800154773499 -0.4424220622576381
Ni 8.128846276943833 6.986482661118229 0.2810661729816947 -0.007495022825464511 0.9796239859013386 0.738760727759231
Ni 7.770290699245614 3.9324427869771705 7.934799441062913 -1.1596562287990029 -0.4040635170840977 0.7294659327208664
Ni 3.0130644161924733 8.507370278165155 12.279716161810343 0.7400663339445319 -1.4955554302020373 0.13446638134240713
Ni 0.00042718517984750355 4.904519371808594 10.078329778385667 -0.2300682244091328 0.13866884945952893 0.41282969331250197
Ni 8.761757698054472 2.2311078148910664 5.687280670774365 0.38386904441409375 -0.31795110156504597 0.5947684092042596
Ni 3.4151694005973443 2.6571460070463786 11.529758710841234 1.0902726959988578 0.030758621339095415 0.05145677311839525
Ni 1.2097197906945818 3.22010924173167 12.792165877903562 -0.7597062196626465 0.7945716640812639 -0.7526719385236843
Ni 3.2394996557091034 8.485830391189758 7.973609169495063 0.31153619917763764 -1.0773606159228801 1.080255935192804
Ni 5.824493814937265 7.81589926495872 3.6731458985093113 -0.7085227548102959 -0.5129340522352713 0.31563608027862416
Ni 3.1759818254793464 8.319589427015277 3.767287396980652 1.1163094863822516 0.017592002050150348 -0.6905728552000945
Ni 3.3794592483538555 4.145701215132331 9.29223318371339 -1.487669085475425 1.518958125396694 0.5221576277160684
Ni 7.028532855565798 6.227637410244514 11.562222978229814 0.2796776599061442 -0.8867089456381568 -1.7320305865787784
Ni 0.713155402568251 8.839012286393066 0.1199983942409685 -0.28145043553585075 0.1016310799799411 0.010918703795032809
Ni 4.522292496935316 0.29035045130903575 1.6356803128171948 0.04070364836694926 -0.6592329074362324 0.2934968251774236
Ni 5.873480123932885 5.560876305115515 0.37220563437520626 0.5665356396108114 0.3648374817039394 0.5746379570029716
Ni 7.74544532018091 8.914695411279368 11.643886695633983 0.45752446511671524 -0.21366741445360618 -0.2939161721030293
Ni 0.06733179009127047 4.726004736187754 5.6861047826048905 0.25747515566717594 0.042968533141726 1.009850388886048
Ni 8.199264096125038 8.837856267301724 2.0280015825216684 -0.08014437086107488 0.8155732060335954 0.8957119204677154
P 8.49618037461693 1.4501446674962812 3.489384019981676 1.854685062887922 0.1824825042103696 0.9122875654382094
P 1.9712834927127822 3.1833604785858034 1.6162230664860433 0.1985344154669097 0.49558553365449487 0.7299333592755881
P 4.725905390797092 1.1951521438638413 8.20872358359591 0.4786566191096401 -0.3091111346759128 0.0964060841355759
P 8.549772697179616 1.669381881889477 12.571167540675901 0.015686300387005244 -1.1222227665428932 -0.1530469725580719
P 6.398773392758897 7.729667465863922 1.578207198039276 -0.5987811299080785 -0.03445226814059873 -1.4278387435813538
P 1.9475670385419674 3.318443115688956 5.961839720667686 -1.5279780695071168 -0.29197704609878744 -0.54925319838128
P 6.837491669322367 3.846454835659452 5.930974914068766 0.42964342243573106 -0.7225915741985361 0.9663555509272067
P 2.379520797141257 8.602326408839927 10.14167239947189 -0.4209795761131459 -1.2079130069228619 -0.414823326703763
