# total energy = -340894.53629811446 ev
CRYSTAL
PRIMVEC
9.08023534625201 0.00000000000000 0.00000000000000

0.00000000000000 9.08023534625201 0.00000000000000

0.00000000000000 0.00000000000000 13.28984227350115

PRIMCOORD
 96 1
Ni 6.650300792680488 1.6969143781223053 11.422460238465575 -1.7686050432687026 0.8908520212722528 0.6907003819168944
Ni 4.718671411561161 0.6625657033999923 6.2856703227261415 -0.31179048128028886 -0.5718267128064217 -0.9272896952739965
Ni 2.70457533319169 1.5559346444176452 4.741243968563377 0.13880666058897387 -0.8771210448394055 0.9384981623953063
Ni 3.4400017528881888 4.148668719072668 4.8047829152720185 -0.0026842317003824743 0.18843023715337226 -0.2125191597817759
Ni 4.843170518145252 4.440071631223251 2.6143777235831704 0.3470783579483055 -0.0031010075228269174 -0.12534333599521638
Ni 7.252057068111478 6.099148668733208 2.5746807507756198 -0.45058197236061115 -0.4164341228343086 0.12579893547539625
Ni 5.169187287366694 4.425397970932981 11.75257945800827 -0.018842843738115938 0.9765070375389119 -0.05728623531597876
Ni 5.504856346741947 8.138569523432853 12.553890249198668 0.17066314297793833 -1.083604539950063 -0.3810112632503245
Ni 1.75353872562857 6.385239643216831 0.3072424746569862 0.1263612357367695 0.5639318834393772 0.23354641276572036
Ni 2.6917722013790164 1.6584414210369876 0.29821308864668644 0.6529126216451593 -0.12144940025744892 0.1435925120133914
Ni 0.4917247077952196 8.97482287621299 4.860082456443908 1.1625667175775785 0.01942545571446332 0.08163869601841424
Ni 8.748271004775964 2.2893906530479384 1.1524580197059937 -0.1663899695238812 -0.3140985605881752 0.5284141501487416
Ni 7.21255804443408 0.6248663823646318 4.84404131271322 -1.1848473833526498 0.7407551324814403 -0.22682297799895776
Ni 0.9133536309513501 7.439491285754888 2.706050871432512 -0.5329068958127726 -0.12959208396924135 -0.17044357076796451
Ni 7.709510243707708 3.9184393523277454 3.7695707101699996 0.08298004053765709 -0.01584185212826304 -0.2088504526809371
Ni 7.560939433268725 3.963377436966697 12.798662520845136 -0.46818297327182595 -0.4195230461722775 -0.7097720538363648
Ni 7.995973507839785 8.79610568448459 7.066753981699581 -0.29357010161752023 0.3571012894019463 -0.12117094978508164
Ni 6.796528902404812 0.7712760967955182 0.454537512032366 0.40236864588017807 -0.2519879073003596 -0.22210988879400456
Ni 1.9361513383127398 6.5660452890707015 9.185487059896374 0.006969232228981546 0.1039134482562146 -0.10080395609295544
Ni 9.03117481665941 4.751687147214268 1.4002576418108617 0.15787421874338617 -0.013823021926021355 0.47538951832259413
Ni 6.530005835053325 2.1114180406164467 7.068720760671655 0.9209136165443236 -0.21742662438572233 0.28941005670255965
Ni 3.248672114289007 4.2645506823303565 0.3575669548925889 0.5477863840277662 -0.22207235068784978 -0.5279783481629036
Ni 5.778035226588959 5.666130406404995 4.739769338346088 0.8288961483947467 -0.12514844637559092 0.504557398135802
Ni 5.51108538817705 3.004885956199176 9.445396991858377 -0.28536853964333436 -0.4297352108185889 0.44678188188823054
P 0.03723259693949433 5.636120228645501 12.328481579389454 -0.0054939332350356996 -0.8056801152895995 1.2295282711997924
P 3.9559407242329527 6.117754070920562 12.712903330265009 -0.05808713395071932 0.4826698540340914 -0.9795959608768806
P 2.4599991946283106 8.34391904537868 1.4955056783088911 -0.5014787592104782 0.3297061852184451 -0.6838339938143643
P 6.246865937051346 7.993721609478406 5.824339886644796 1.0721744437362504 -0.910299074253271 0.7417203246081872
P 4.827652395969465 1.1114571251053225 12.647623702443964 -0.6824777368967859 -0.07232487481665609 0.1564364578555951
P 4.1870599540400315 6.156553916477692 8.015648561748794 0.053944058316623224 0.8081537736410727 0.39503457411260995
P 4.845059207093504 1.1582929789278549 3.9096723851184287 -0.062459551986802114 -0.8958052515124701 -0.848749435675248
P 0.17419160244085538 5.525822610114616 3.5701033646697407 0.37496865660067036 0.4823443523738726 0.2377044007981519
Ni 1.5072918237648134 1.0301890189184932 2.4796851448197126 -0.41475030737398255 -0.5064096208531924 -0.004889209771501257
Ni 1.9318473067672026 6.511500315454581 4.832093539068457 0.17780206801556475 -0.24295099390907193 -0.40666367371110607
Ni 6.1142491000839 5.770144502088807 9.215615280715134 -1.0218181027708853 -0.808974212659839 0.8281659550969416
Ni 8.611785987558731 2.2382961688565097 10.385786115475725 1.2441411360169603 0.896354696258037 -1.6295957797506193
Ni 2.4925609185150117 5.304264868108065 6.933244557599379 -0.3749056645732189 -0.26038513022511933 0.46059153407781317
Ni 0.7082656197829746 8.867340130633828 9.038740468734815 0.011303340827961179 0.8356512077303931 0.367923833938747
Ni 1.7591230703553742 1.3992370233599791 11.433091377987758 -0.7850881500708609 -0.7979146124115677 -0.39827339276488183
Ni 4.137354745853808 6.849593797662447 1.552678472028975 0.26480562789031814 0.2232774267395445 0.22773314851805296
Ni 5.762616987001782 7.821070014949203 8.189028391151313 -0.8711972231558028 1.0284831734958868 -2.310131048209054
Ni 5.56836351262694 2.895314756494543 4.921707289545377 -0.9056034685498147 -0.1860015731072216 -0.5945524365387116
Ni 0.735860454945184 7.304549908543439 6.951066335477914 0.02576888143398788 -0.2925537445378639 -0.023573416444565856
Ni 5.179547835876099 4.221900816994095 7.352153042251199 0.36576282173168617 0.7735212711688679 -1.0232643482991086
Ni 8.083007563459981 7.31688086811905 9.321136695463418 0.42158198558383525 -0.8199548800410589 -0.40693338243272503
Ni 4.464270458372737 0.37618234533880324 10.48872874339082 0.7960839869607322 0.03201434812306744 -0.5182112414738107
Ni 7.999296873969883 7.258812763195611 4.610750998639182 0.11060345868188048 -0.7099476601822805 0.4931365578933701
Ni 7.189167358228799 6.019605807258725 7.076083923499241 0.5729400004752584 0.6188033386662763 -1.0887860841510024
Ni 2.3284629056649133 5.244616802237532 2.4023778372830167 -0.7212805686965965 -0.1853240874242228 1.1230336924799627
Ni 2.170176243424823 5.244861968591391 11.397528636325108 1.6626915338633235 0.41529486702354285 0.003669735542103358
Ni 1.2324785015587367 3.2614661658663526 3.7480015191715417 -0.8094148997416835 0.8021875287553087 -0.5735200413484446
Ni 3.427688953783235 2.4393961406687676 2.6436950793871277 0.8846132394513927 0.7387419587061536 0.051477341943685535
Ni 1.0289541069138666 3.4241385817699332 8.199008477800469 -0.2654877415590073 0.0032912691567620737 -0.1982323108454586
Ni 3.3113438985238113 2.799599995900647 6.974508779024567 1.9401212782755552 -0.49512247797514725 0.86053023036026
Ni 4.2044758453994 7.189267240817408 5.9945025886705565 -0.050396193064364825 -0.3324377252169952 -0.18435503864273411
Ni 0.7064686412115363 7.368011673251791 11.364901534744044 1.0566094994184576 0.48962545941631797 -0.5423261322441434
P 0.3009162747038729 5.586215255282058 8.315786660285044 -1.3721710177054045 -0.14397432083284237 -1.3682166610433468
P 8.579360467201953 1.6840113637210223 8.136905116297205 0.46178015506927567 0.0681648299016955 -0.9070849381913475
P 1.984158542492602 3.396961437432818 10.241245113475369 -0.40869433098788965 -0.6156231411660816 1.1574756762079161
P 3.9177855753841193 6.045874928063026 3.782475540618348 -0.5883396228597804 1.2207896057752137 -0.10912738835698625
P 6.920056423808792 4.106663550444704 10.520172690308625 1.1337541642212603 0.21530289317450016 1.0639129750584064
P 6.1704466765297425 7.953641450740008 10.214413018080725 0.40313226351907994 -0.3441406154762202 2.2519783511277214
P 2.4119193485658235 8.454543552381375 5.943084848101446 -0.3570053872540303 0.8296332836710874 -0.15260268593180168
P 6.671993474879408 3.928645536836572 1.560200538974804 1.797320923146156 0.7419488956792254 0.4451402325197495
Ni 5.101757459819947 2.7221365083163076 0.780182899628888 -0.31157450861474084 -0.12629850081963412 -0.6032134546478192
Ni 1.3922543223926414 1.085106282183068 7.027655396400154 -0.23310315458071465 0.09192953642146104 -0.39684900161352943
Ni 7.056922810909806 0.707182347708328 9.21780815754688 -1.262661049198019 -0.29820837172048 0.2967364151606438
Ni 2.729754825756615 1.6685386427218762 9.135770047404224 -0.4929352405158413 -0.3122419669954106 0.23084521178447343
Ni 6.724749642135886 1.9291323164040897 2.5933270140219498 -0.6063427443054202 -0.09919470262430659 0.856929657493195
Ni 3.9576024072980016 6.968109029165294 10.307894040783898 1.3234992635313143 -0.21976967069660217 0.9069173022652316
Ni 8.249275752553505 6.981883746158079 0.49216509920863427 0.41337785250648806 1.0045446604024184 -0.31560625548195326
Ni 7.563699824808479 4.012846559034389 8.385744425347145 1.366221999210821 -0.657084750744978 -0.22577859589484342
Ni 3.065669051485727 8.347950669864373 12.585135338962788 -0.22886494812965102 -0.07688626893509339 -0.28034588961776236
Ni 0.08373883821961534 4.622593441554139 10.377997997634782 -0.7403010756631573 0.661187460059442 -0.7229319882570905
Ni 8.737038753675057 2.4888107813244904 5.6577784059501735 -0.3355014517439835 -0.050816054210602805 0.9671579922238439
Ni 3.8727022069799175 2.6283285971413206 11.365233871357056 -0.5658884929451158 0.08147954473273064 -0.0854819810239044
Ni 0.8840780442299027 3.5350990574797714 12.576470070389146 0.5555631997597077 -0.6563357883940955 0.08680815603449565
Ni 3.275249963094465 8.427402728985575 8.126406548210813 -0.1008504930601747 0.1346658989477229 -0.2487341762497523
Ni 5.643638663497199 8.008177344120801 3.6416828597614477 -0.09641534010695654 0.09561469858253209 -0.22627970390097804
Ni 3.1986763385722834 8.35112875222922 3.669099722311225 -0.11800103669753226 -0.08572675004485882 0.4408516324467246
Ni 3.645442077187296 4.505903337352247 9.253570664386748 -0.6859435839581993 -0.36130607151191324 0.771991979008535
Ni 6.9922170539614985 6.252731769073323 11.51361490487768 1.0814463559564793 0.028265165493280356 -0.8902262147627958
Ni 0.6384413341801971 9.00362538267384 0.20245474292321566 0.1674862879118535 -0.1989938716018315 0.07457073342803931
Ni 4.406429359332503 0.3467859914874914 1.7183237569789878 0.9218137597610898 -0.1087059845488515 -0.2750419609063457
Ni 6.086209333390612 5.803741372802916 0.2786351932556895 -1.1130238736524445 -0.20002719796235227 1.5816732450377275
Ni 7.973218438107473 8.72814920328881 11.48651675858792 -0.6985748995689646 0.15198639250404147 0.08824411715007384
Ni 9.306423990161237 4.936733262966379 5.839105257311879 -0.8835858266281428 0.2836893521686985 0.08123940369746654
Ni 8.064502043861237 8.861229132257991 2.3464018185791815 0.2958666109611808 0.034219069083870096 0.5578064872679297
P 8.84802647009088 1.5719794202424637 3.657178281348914 -1.3944187733600113 -0.0836104750328044 -0.8596915365090486
P 1.6981129691856196 3.2236833066659734 1.4909474001741663 -0.2714313607369519 0.23540094947595586 -0.2866031833813838
P 4.659132308514564 1.5269777739562151 8.277232889105306 0.5979074690538734 -1.5310888472219566 -0.660123794681618
P 8.705784583675609 1.5466001625003198 12.377308728819447 -0.15895202518859722 -0.14890672513745323 1.040226430074744
P 6.357281598641497 7.780926294563509 1.4403396165963256 -0.5854980396459272 0.44751747450267443 -0.3428288386433322
P 1.7009187619020139 3.300365894012093 5.914604689994743 -0.9823938353369919 0.1837991661392641 -0.480361774726205
P 6.973184880713723 4.12213627144385 5.886323389041727 1.0775400789235376 0.4528147183458718 1.2411522285919656
P 2.438914888196376 8.589503090063483 10.309993391191764 -0.5726222121245235 0.08981994627762596 0.06734644776545821
