# total energy = -381164.9324613512 ev
CRYSTAL
PRIMVEC
9.24815332698301 0.00000000000000 0.00000000000000

0.00000000000000 9.24815332698301 0.00000000000000

0.00000000000000 0.00000000000000 13.53560721170105

PRIMCOORD
 96 1
Ni 2.146246683277533 4.249369227667201 3.5995921264257125 2.1489516763518344 -1.5675278067752811 1.313881795046208
Ni 6.196355199712072 2.8054827957252213 3.647318146400988 0.41246125422948965 -0.08757048812181692 -0.09071571861901795
Ni 1.5039439395417633 0.30785715148373205 8.059520534225278 0.8248474322466697 -1.0022283535644159 0.7077393396770522
Ni 0.5974029594122486 6.749302286159714 7.99223466999784 0.622308009385425 1.5435406998320644 0.025816961063103924
Ni 7.456443832756905 3.084656799715771 5.9657515720940655 -0.10330049726256402 0.10241938020919136 0.35692311195286913
Ni 2.8666038409557353 2.9752881386632564 12.973987353908498 1.6987898222477775 0.6726563799309899 -0.2833628220672152
Ni 3.3869696832897294 3.4976885747256077 5.718211801318147 0.3837296906227521 -0.8643889419847177 -0.63289118421791
Ni 2.584239224072989 0.5760535974944633 12.702639137249477 -0.6376724076566372 -0.79582379132081 0.6460045816714165
Ni 6.754962155985871 0.13662111922852868 13.234480088211406 0.25182027137424373 0.15662980481332378 -0.6461519058825581
Ni 3.2791639601467257 0.8514016404603705 5.914844187379905 0.37505838810099923 1.1427861925165415 2.372884991507823
Ni 7.0428571685484265 2.495170259537494 8.888738629339237 0.4870785246247482 -0.8108614023802229 -1.5472924535650128
Ni 6.584195005103521 0.798743580324491 6.932030998534143 -0.7379865685973678 1.689459545985787 -0.4185113170783115
Ni 7.250533699293839 7.755834299884678 11.318759348064068 0.516672179121465 1.3254587012505301 -0.037343987866096974
Ni 1.1909031981273757 8.21291502911345 0.8854385439051254 -0.3364669009810463 1.2107985560007728 -2.0906938211512056
Ni 3.9055043912682015 1.33856846203956 3.6620587779629363 5.880115758074319 2.00409289603151 -0.6526367422759535
Ni 5.060931673295674 6.26489326389778 7.579980664681435 -0.23328030358852728 0.18116661361242348 -0.4043854191998907
Ni 1.2827928494226386 2.188825181120064 11.536641215987855 -1.2172265710143038 -1.1109680195646805 -0.11771615846726177
Ni 0.15252886773828933 6.822640141913683 12.483795461381375 1.8925160176927667 0.6589434012202716 -0.012525643270836492
Ni 3.1695178544948903 0.2379744058066462 1.956260945000186 -0.6875530945371643 -1.0069183028409174 -2.5191229115638616
Ni 5.191312138670133 0.9106675061367556 9.437715483570589 1.8649975005575234 0.9583997864152397 1.9096678468817045
Ni 0.8448511734703912 1.2792600548579456 0.993416282699708 0.2661379735484965 0.3951320189224227 -1.0601501655818646
Ni 5.443962438965553 8.723607303084437 5.102477152413399 -1.1993946850392054 0.8185981089028483 1.0558034585773945
Ni 0.12020657191734084 2.6987868509795034 2.7277492927026694 0.3146222943021291 0.7249341062887837 0.9788171737293273
Ni 6.176508662707278 5.017761293641257 5.19542664207807 -0.24764479984031543 0.3205188622922222 1.199939758909398
P 8.068893537605687 4.289802153941648 3.5419437627633714 -0.8890463355220819 0.045823486092017855 0.2602977127176356
Ni 2.3236910008502187 5.591128302598958 6.373294568113994 -0.8312872743347426 0.1728354680389088 -0.6520793271105867
P 6.25829933058724 1.9874188983193155 11.188817245156539 -1.7668952596664476 -1.4370654043859443 -2.6198685036150553
Ni 3.9852882098797386 5.228841144805014 1.4368587602411689 1.3013584657682167 0.6145332505360126 1.525439105135347
P 4.08091411511253 5.812547589164094 4.965646100104718 -0.3109782697916386 1.9358915564649244 1.2987747642014407
P 2.200727554430954 5.093105998663652 12.385270260085672 -0.4928678776130157 -0.29129158999598864 -1.5897565362664945
P 6.230009229609764 5.706711722676273 0.5711659484697506 -1.7905571220597614 -2.599648577023755 0.09975700288567982
Ni 5.175155614836314 3.156718410312861 7.479965585887378 0.14436435718240945 -1.083379311313134 -1.9733864680865887
Ni 3.2790807267669293 7.672758138694526 6.456728632837269 0.03311349472451716 0.2183959302775271 -2.116993121167367
Ni 7.514411257708466 5.780826423308342 12.352188690877915 -2.298044806468481 -1.938172896299933 -0.8724393230930202
Ni 2.6623676232419085 9.233337769111108 10.295413266804893 -0.581190927630141 -0.7378988939795679 -0.3566415761567084
Ni 2.222127781191948 6.207785917204116 0.576941420212292 -1.4078427600754013 -0.6398961547808335 0.23130183970591775
Ni 0.5038292193991044 4.337226684118993 11.298874893630702 -1.1703232215945458 0.11154833909365305 1.8980752569480988
Ni 8.664456114509104 9.403152360202455 7.272817124696006 -0.10619041721584938 -0.4940935224900007 1.1062299906590625
Ni 3.322889228999786 1.759118985691008 8.223016786974744 -0.1667751207774418 0.99739390829025 0.600925944165223
Ni 5.547208822526374 3.864331612728899 11.878944039292676 0.7775270498941512 2.9633321476289094 -0.04092913411419403
Ni 4.744885282055305 9.020861446797433 7.722970987095052 -1.309228612544913 -1.5062152239087285 -2.6363359051424595
Ni 8.340373078041722 5.852000211187604 6.670753096015157 -0.10834577299595534 -1.9331607877973223 -0.17008258788411998
Ni 2.1662966796551624 7.176520728348188 2.5664050852286064 0.6041079414376305 0.010881165688878033 1.1985225668468973
Ni 0.7032767433286436 0.2052137475187698 3.2028093567828018 1.1786589951537507 -0.4159132173338321 -0.07273522288119733
Ni 7.589497014438161 7.444744918818851 8.854465897985058 -1.5318005285770007 2.204625829985687 -0.4705818125213057
Ni 9.100820980321874 1.4284235196064659 5.304279256175846 0.10461484519861337 0.08068738784873847 -1.0266713170981288
Ni 4.447325949283053 7.522975047674188 3.1766583536660935 0.36700157923479376 -0.7256756124404986 -0.029043695530517725
Ni 3.8395003210896292 1.8426020656268312 11.063883942082091 -0.5714289631473707 0.8011305482457041 0.4857816601901957
Ni 8.827131131244577 7.367726298047217 2.2660361634805604 0.8750142829090479 -0.07096913211971004 1.5254383338043986
Ni 1.9750356210362683 3.516295859186766 1.3587044662429795 -0.03608491864801527 0.13680325700569987 0.1478273760303454
Ni 8.315819231001774 5.610447694865042 0.9106055435095738 0.695154561033506 -0.9603404550813782 -0.09754405439476105
Ni 5.540466918762863 2.2792998649587877 13.172676529266559 -0.9423504462618609 -3.1455053481289763 3.1211395176901022
Ni 4.268374182720721 5.326927058818456 12.711992719507933 -0.003906534143257788 1.0627714052547956 0.3965368696897493
Ni 5.68003080037486 0.8310288835321967 1.942224097905183 -0.08579925515400708 0.10106775127730336 -0.6048939276740356
Ni 1.1732484734572208 8.777422307199487 5.8241281267397715 -0.9475795558712842 -1.1448258486543896 0.1839475187916703
Ni 4.851433256348051 7.389949610452866 0.22485590033539715 -2.238478516869074 -0.19331636160107996 -0.7220696402567951
P 8.339485255323893 9.160416080256121 1.1528424231771286 0.5021534166799996 0.8349477539054652 0.17487872372118268
Ni 3.5400543650419927 5.44936336049901 10.42999701785907 -1.212560532997202 -0.20720726065055925 -0.17101512700071836
P 5.272816113797464 1.8562430917601358 5.438174019808377 0.5133233172538901 0.48584542354859556 0.6382290514910557
Ni 6.555997385659152 4.72438212616545 8.429042522354194 1.7161833351338764 0.9637803340008626 -0.5995051525582965
P 0.16498890469381547 3.148663268779228 -0.0013520800140265144 0.6723079954526356 0.7848318110856806 1.162177966779592
P 2.1234592335199314 2.9411717011000293 9.756478982253647 1.839825115056954 0.6798089318153712 -0.5452769873423512
P 0.18296823954517627 8.639421363496998 9.885825504087967 0.36574379556829273 -0.06799745108589579 -0.5943341498803184
Ni 7.863353330275049 1.015123548150618 3.2060036689363227 -1.4676080530594917 0.35805542578509947 -0.5740640867773726
Ni 8.434510030591488 6.113648964654349 10.186979594052094 1.618260557243458 -2.3631322829964336 0.8807205892652058
Ni 7.0977357102942085 3.3750118210589752 1.2727354826972361 0.09824519422684369 0.2379360571929838 0.05685454709519886
Ni 0.08154004292524197 0.15530793780815916 12.164788736266244 0.055837161574278024 -0.9214386358098582 0.3532901431859722
Ni 8.166156365974476 6.616036396952312 4.4322755045851965 -0.5087015022111626 -0.8307033768068145 -0.09925615198986132
Ni 1.2708534834985057 6.401303525230824 4.506450318213785 -0.22406932651322053 0.6137192392751495 0.3633642395925226
Ni 2.981909816433729 7.167189341657676 8.611326398554377 0.6852239321833553 -0.10809200511393642 0.5729220027531294
Ni 4.491828063014214 3.0654298889827944 1.6652178610506647 -0.16441227697222008 -1.5161419961041374 -0.23329187355275305
Ni 2.706860488819758 8.797204107131105 4.20441672886981 0.35672385145786956 -2.842870565206027 -0.630811675981062
Ni 1.4539484227440387 6.978656488265443 10.293720854749033 -0.49406369769332975 2.1851836621006755 1.5069749848928886
Ni 4.986927950503334 3.4989185791159327 9.815128920919538 -0.8337557904798931 0.1350937305137609 -1.941723589765669
Ni 7.41199720794561 3.9706668794954982 10.59380493337511 0.8423908404470718 0.6526038321554889 -0.24449262736457894
Ni 2.742364149379592 7.294379194139938 12.179230652476257 0.9116314199114494 1.159936221933267 -0.24455844760550788
Ni 7.933334106377228 0.8407699634143726 10.301341333077064 -0.2094757449697618 -0.45999580947534324 -0.0016038541520101408
Ni 5.768174949579284 5.88480341098071 10.360018091387554 0.933215059619496 1.0583575924578161 0.05635626730254165
Ni 6.764672716962122 7.588091295134931 1.254425988772683 0.9009518287104161 0.3039427031010959 -0.07071716400990402
Ni 4.355519531367587 4.328283719867532 3.6071848602938097 0.8162033834184265 -0.7266865702035163 -0.4399160080063326
Ni 6.722057226506348 8.313636666820445 3.305909619521313 0.37784083594214285 -0.6408832012844511 1.0101990304747182
Ni 5.1083839479329525 8.645016496249982 11.469518119258687 -0.897596796195254 0.13180477534984397 -0.07875443249208372
Ni 0.682517413592082 5.114635699570996 2.4179740742222946 -2.1180315897342106 1.763895039387543 -0.4334088030154342
Ni 3.1599182713583684 4.325620251714046 7.893451445224771 0.5899108240016421 -0.866142948561347 2.7055895972329598
Ni 1.3604403446194007 2.5681844299255885 6.76701897345705 0.34138799243174756 -0.011755854984347495 0.25122480388208995
Ni 7.94357181209219 2.325170705379933 12.305423554031623 1.2740818894404509 -0.25038045360392364 0.8254637256744299
Ni 0.4927970973147527 4.0156498971988155 5.045505753573402 -1.5661692358648578 0.3271782765902688 0.7596681673358594
Ni 1.359848462807515 5.07173351636259 9.41746665189678 0.39732259881583826 -2.712724408505528 -2.6116404592783087
P 7.961124807075927 8.649437113532503 5.128046446686864 0.42975372276135015 1.220522725267072 -0.1079559937567044
Ni 6.2636077705875906 5.607525278418856 2.940989512479809 0.9862720873454756 0.38549860959771676 -1.460222302118382
P 5.126602809955061 7.811665401421464 9.359981055732705 0.12284679482560779 -1.1059674810262952 1.0344113660548637
Ni 0.32658743638392285 2.2613676956893114 8.899349960447951 -0.9982611413865519 -0.09276128829413703 0.16846459266472277
P 2.1257805200009208 1.757010406736165 4.220199627309876 -5.1990048196180725 1.7792069871542646 1.1790096936249501
P 8.61485826830374 3.8977821832537547 7.700893795511714 -0.18738225550483215 -0.34074881618585184 -0.29781525004711934
P 4.436292902383371 0.17828220026263703 13.572018262930545 0.8633440456599712 1.2945381004122738 0.6652788565199962
Ni 6.9528448923752375 7.66981722594172 6.749773941978561 -1.163383299941603 -0.09066018279073419 -1.0666352590855759
