# total energy = -340865.22172448476 ev
CRYSTAL
PRIMVEC
9.31101413965164 0.00000000000000 0.00000000000000

0.00000000000000 9.31101413965164 0.00000000000000

0.00000000000000 0.00000000000000 13.62761036511239

PRIMCOORD
 96 1
Ni 6.6157642811976425 4.371791219786958 1.1194958343877701 -0.6450401608756181 -0.31118961447149635 0.48242174257902726
Ni 5.828424914416921 1.369771242493049 1.0256547770545217 0.6404669396826389 -0.6980305970297205 1.4436471713685202
Ni 5.751953554206774 5.217985507776537 11.329654269630538 0.5190008272546416 1.1155849495114014 1.4712348511788016
Ni 0.33384455449443473 4.855535655237829 3.7601162415527742 -0.5903211720661833 0.20905845492668512 0.4224304496270595
Ni 1.839027739737784 7.203549990115965 4.678998824654073 -0.46998891613231314 -1.0064231083720538 -1.2969197132705728
Ni 6.592849875075984 6.950318334979549 1.8028916933508874 1.38562251522462 0.32971878362393536 -1.8689078913555235
Ni 4.118131257994064 1.2341563196316347 3.2561408342932334 0.5915388465233683 -0.13059558553309122 -0.26227874770340637
Ni 6.381741248502909 9.085464261587335 4.996849849934703 0.5042470659842347 -1.1271960513877683 -1.1126415506123613
Ni 7.698439709649576 6.816370083672696 11.091566979206386 0.08124840255853104 0.7183610810569564 -0.032546566477453624
Ni 0.22602207813140932 7.352172399914378 12.866671812667446 0.6426971145647383 0.6823535526140958 -0.4324276700490875
Ni 6.4937620612008615 6.496397078239637 4.006204486540252 0.7019013928390364 0.9927432968921159 1.7776208736140677
Ni 0.22846435717477007 3.777087427265064 12.294735312241723 -0.2555874517261598 1.1209546984637468 0.17203842605891018
Ni 5.433042004400642 2.99052087466886 8.880255093656551 0.24596304126251833 -0.12577656687789307 0.331367632081268
Ni 7.3650029775802235 5.545789076211756 6.2397017257943 1.9436529455778977 3.825304252642019 2.978891178409431
Ni 0.33128030116412005 5.844328126792293 6.231756637316604 1.4245611012713466 1.1134959281928565 0.014191718119349753
Ni 4.118233679151048 2.8473826522762393 1.2002940229297885 -0.9495526204372549 2.1790739496585116 -0.18015308474624459
Ni 4.371483956316006 3.741267955363391 6.2685239704710956 1.9574348298533384 -1.291973425008891 -0.7066412215168669
Ni 0.01377937002008975 1.507704607908016 0.22687403593723285 1.74323493993503 -2.0792716953571935 -0.14141633029767903
Ni 6.602794038317728 4.881867203597052 9.204333325281825 0.6834987219621325 -0.7086058014424054 1.8226591448006286
Ni 8.943797179449579 1.9141396918643225 10.993407473454111 0.7718544249894062 -1.2633264506961597 -1.1250270687609074
Ni 8.798405691603303 7.400571052096572 3.2224116850954667 0.08371897558621066 -1.7395191816463398 2.461611190500638
Ni 1.1490350271634542 9.029765774216447 8.252948784663715 1.0727976791425462 -0.44442238051711846 -0.6527375295198758
Ni 5.37602135300323 3.2411640678378557 12.462204146026664 1.1375447416119442 -1.5620760396320903 0.8764430449357744
Ni 3.221005721940501 1.4741011574029117 5.600457765404238 -0.9245938936093882 0.16403920990351747 0.5473624091164702
P 3.2051397536222144 0.28475223174903086 7.561252156477739 -2.0415088747861225 0.8793625325754145 -0.7497102847921991
P 1.6393437276755876 2.6249425213349973 0.6334115410505233 2.7797831498272383 2.0573406996120567 0.7753040741009034
P 2.60001693613074 -0.05989123709725205 4.149703045185172 -0.6269077129409655 1.0576615948320558 0.1567863849958461
P 7.733691209680699 2.3942248987065735 1.3105103610619637 -0.05811413053391282 1.1490900232473822 1.5528889738161837
P 4.39502220039384 4.9980593506885445 0.3043007062116151 0.9324162178672845 0.154638742525224 -0.26715407351783665
P 8.812334968953161 7.652517787263547 7.917559532901673 -0.05973829640089712 -1.1758549500460522 -1.7765932036805019
P 6.05177752475675 8.862456158775544 2.63709246385761 0.6133767683340662 1.1553755991457777 1.2628302277860315
P 8.625611888756607 0.3700038784170096 4.593704347320445 -0.44192686778877444 -0.30782866841906337 -0.01618946527566889
Ni 1.1990072407574954 1.2574338553098727 2.434177529843274 0.29576350972441323 0.7682973037657672 -0.40239512824273926
Ni 2.040210825097659 1.2725735645149985 10.020095494227101 -1.0799492025856625 -0.08915223078664 -2.3864303342924256
Ni 3.964071215861214 5.799625947275805 4.901197800325688 -0.6948575986183775 -2.5730489721583556 1.4600340973669759
Ni 3.469032520099262 9.292587774052297 11.692135779617768 1.255624711176528 -0.5510935940241283 -0.1724390039314385
Ni 1.027209716437828 9.176889110717182 5.613444768109841 0.6351414137046675 0.06137351801147494 1.0419819793132699
Ni 6.7843960606650695 7.1023671980298 8.776957770229377 1.461185951583232 1.609898301321692 -1.1967464487830808
Ni 4.057674842330544 4.729920761703785 9.690116872858107 -0.2782368136945595 -0.001965094146170809 0.010016503695737589
Ni 2.1717847677653315 5.07653257896702 0.2686208995240119 -0.4882743447050623 0.1520038760055382 -0.02467719103170589
Ni 4.788924659140983 5.702707599725893 2.6488941744464767 0.5788201134051193 -2.2804944562895435 -1.4545224235201273
Ni 3.1576815138814225 2.8288723559049043 8.163715748293331 -0.6449946523496634 -0.8150075633381124 0.9001061928806692
Ni 6.526713740706975 4.076511024201374 5.251467915096114 -1.1178153815038168 -3.8488655849017266 -2.308748308928914
Ni 5.45718546440611 1.6899490902400767 5.5945974130218845 1.0925650915774603 1.2887975983840707 0.2803898554818204
Ni 2.2753046244335913 3.994034059786242 2.4979542531959376 -0.21234920986281494 -0.1585254791741399 0.1028631526148293
Ni 7.454938064426663 8.517874142623452 0.030898600859293083 -0.8858900492812872 0.5892899025881916 -1.6718222925199984
Ni 8.667436964863265 4.931196957206374 9.862410674238435 1.4084595677237937 -0.8099118939827599 -0.14561365620847827
Ni 7.840702696700694 3.2326258677510777 7.806318052098228 -0.7098831254929323 -0.08125817275054392 -0.7095902768428617
Ni 4.350673839419661 7.9563082498930955 1.8045546404997408 -0.23054053605986102 -0.39430669480764996 -0.8625493176728177
Ni 8.264549377344323 0.7106845795894293 6.856486588660572 -0.8835416036537687 -0.3008733201471528 0.522460503668468
Ni 5.198311334621291 9.069002388355685 7.238822905479912 1.0474735985554604 -1.8158889159563305 -1.123790111030013
Ni 0.7680339097906177 2.4552027311692854 4.325307843240372 -0.5801177491706203 0.24961092242775074 1.4436993647626943
Ni 1.138839466536386 1.8450705879998548 6.9164215875248996 -0.35953946652979374 0.3790299711542376 0.4151280024283754
Ni 8.28867421532125 7.72787182576114 5.68381741397229 0.16351239086577002 0.10059569673689127 0.17210424629983906
Ni 0.8074725729395428 4.175654704162126 7.9155427672105105 -0.6078699795832241 -0.6062255020012657 1.1604946655398982
Ni 5.467706910532674 5.265248216217632 7.47861504261714 -1.8909810691054787 1.584587333360729 -1.2981145049096223
P 7.441371916633387 4.73800272209127 3.3064258979667907 0.24581057484505406 -0.4632839933083118 -1.0275886867060753
P 0.643041923111324 6.046982352407033 11.158805537665115 0.6754887071734624 -0.2863920958118423 0.468547041479464
P 3.805765351220653 3.7690613329632074 4.046132909039847 -1.2184419314786434 -0.9625220361137296 1.2869276350548675
P 9.052847778594987 3.805923638463265 5.974767056820294 0.35876042227192406 -0.4053382700314632 -0.9717962623268037
P 6.3495530721670415 1.4165218451492223 7.921607030805405 0.7867789075097223 -0.3764691524055968 -0.7001175614657362
P 7.376241371805676 3.5696473403148787 11.127993529238546 -0.649824726748455 0.1977106340140337 0.3583325907058861
P 5.583321774739346 0.30535005751999006 12.881907425319568 -1.1398523066991983 -0.1526530795537629 -0.18961474437977666
P 1.7113364900212418 9.226302663454945 12.875693254394903 -1.3870307084260565 1.000071198012097 0.2055105896744267
Ni 7.441958510532478 1.598012135325308 3.4138796581646726 -0.585807857576862 0.12600822327272493 -1.0889611762762859
Ni 3.496714165527823 4.377266096178481 11.997189746883933 -1.216335169548286 -0.43029005488079447 -0.12242641945873754
Ni 6.4778029827398615 1.4659447089012572 10.843026213059849 0.2309681105155829 2.2039388312209915 -1.3239381508409456
Ni 2.628815903271856 7.579007329591672 -0.01610153697935077 1.2297270174741597 -1.3594859660385683 0.14302249844253434
Ni 7.460869180517478 1.8687857413488436 12.894035952509356 -2.18440564628407 0.1478579721579647 -1.033697627817291
Ni 5.369922638655532 7.3516137390581004 13.06528040258131 -0.6090526870374156 -0.8716885609699246 0.0926620437121114
Ni 9.009411897019396 8.73360103227509 1.6021573988788889 0.8041292258627118 2.103148759085107 -0.9822238854180311
Ni 2.2356862587092303 3.818102445130119 6.176441763733694 -1.8967747929691205 1.2031502954268958 -2.497976359393234
Ni 9.325818783986549 4.116967381210152 1.0711474616826426 -0.6730014219752345 0.22948895486689508 1.1894193189940483
Ni 3.472924524064664 0.6377458181938114 0.9458342450109893 -0.7961405512302805 -0.1914181161371026 -1.7472548597277004
Ni 5.5835173060390435 3.276899740611086 3.1888613073717087 1.2218545567046184 -0.6414611852751082 -1.069518494170642
Ni 4.238727514835879 7.839715729187938 4.268998553333287 0.7341335133998647 2.7487841303425626 -1.0365530949882147
Ni 7.8009912208336205 5.82136716559928 13.292780138677573 -0.03363465733530981 -0.18031017914939915 0.42658380967380083
Ni 3.144199165216587 6.610317337848934 11.1760579160084 0.0004933946966507632 0.7527346734408198 0.43104030278325767
Ni 3.1014709207256135 7.356399600393546 6.71699455945659 0.48193066187522166 -0.16871553233326428 0.4132606102023334
Ni 4.44009682048118 0.8136867438642051 9.283468566674989 0.9158169187477068 1.315990870969411 0.6680399642049011
Ni 1.6589527237309352 3.9625535205349927 10.226745076065653 0.21379982626641242 -2.6833742374781853 1.2740968018387862
Ni 8.437920463075839 9.115129153055681 9.399085293084516 -1.5174242052506706 1.5960426263855223 -0.5276142799552654
Ni 2.0907789436050632 8.470723166353613 2.233497239254049 -0.8209758651064055 -1.637434816179064 0.07416989844519484
Ni 5.731329657595854 8.76810765116451 10.943938985732146 -0.6463488523847126 -3.6872907773783017 -1.0502380486744751
Ni 0.9672002294593304 8.716636364272789 10.821644399887246 0.11557828618865255 -1.358023779670745 0.6327065790109296
Ni 2.1965799987697907 1.9725197513453434 12.138616604853489 -0.8543534121255867 1.4605994829521427 2.325829432780917
Ni 3.4635762657362834 8.103906448121668 9.11685820840586 -0.8243776916991028 -1.579290603738164 1.086172300677239
Ni 1.837454178325935 5.844793677505858 9.232924656804691 -0.5149659950636357 3.2608434932823647 -1.090547032706167
P 0.10047608610297351 6.619861127477012 1.2899572281595069 -0.21891786421926812 -1.5678502231117062 -0.5548540895078251
P 7.938859409148689 8.9671771362848 11.39390864801532 0.3621851316827569 0.5910282254355369 1.924400525106189
P 5.076383602738679 6.742794448900922 9.870150920402162 -1.0703006237523052 0.13818085407951686 0.9410381552083406
P 0.14116335626567922 2.1597735593553606 8.823700924074132 0.6630818488686774 -0.6080137042499401 0.8024680361102051
P 3.211247778984184 5.043916095974673 7.770068411337222 -0.6895824662623672 0.5891988855362821 -1.6033628141960192
P 5.501878332908327 7.066538415113856 5.866073069521476 0.6218907193423483 0.3961578890837758 2.079396136750199
P 3.708102122529038 2.399941861469149 10.614886810283146 1.347148784629454 2.0020748371602166 0.06707905303668447
P 2.9247013147850747 6.450074782239945 2.8605037335873487 -2.129014571108275 0.15936083059124168 0.04735457802456361
