# total energy = -381175.63322676177 ev
CRYSTAL
PRIMVEC
9.15851370253039 0.00000000000000 0.00000000000000
0.00000000000000 9.15851370253039 0.00000000000000
0.00000000000000 0.00000000000000 13.40441056040698
PRIMCOORD
 96 1
Ni 3.7391830904061485 0.4153056332041555 9.532023706005193 -0.2776377466579799 0.16038155854627217 1.3606817861188822
Ni 4.872402645186307 7.162434086467198 8.760948274838642 -0.099537430675706 -0.025631841635491343 -0.6007251410083267
Ni 1.5106235941984327 1.5076012846224274 8.529736097165909 0.08874599648715684 1.4706764075721706 0.15969815932600237
Ni 1.3336169966970497 2.583864041665684 12.730892944035283 0.998669432568564 -0.6540397932710672 1.484593531873895
Ni 8.446851546672427 0.8507352689275736 7.4323574705516275 -0.1285988668180366 0.4983841794455546 -0.6012023377550614
Ni 5.999788226633388 7.771108918046953 12.42218874883377 2.128433758904141 1.1066794194916554 -1.7731641233942945
Ni 5.0956872132560385 -0.14251563427945466 5.2531889237755465 -0.4456889059343679 0.5647466660311886 -0.24949290879264777
Ni 6.524094828473258 5.626652054676987 7.0215651529809735 -1.5292402240489922 0.17987232028103217 0.5471428369064965
Ni 8.493184468323976 5.125415749267292 7.93582662164202 1.7139819566071837 0.5150762953892549 -1.7905869468564324
Ni 5.990437383975505 2.682427967898927 12.920162791604154 0.7049154970750118 -0.00777964394541886 -0.9225799485031532
Ni 1.0111731989927402 6.109159199229316 6.213011251369181 -0.6679759437361851 -0.1175112415453073 -0.5896953655567263
Ni 5.676016444418409 6.538885828367952 4.84813441514237 -1.397019187097336 0.495373674754005 0.43875104116395397
Ni 3.7674187886571318 7.912479738093072 3.2785712049548983 -0.6384087716020296 -1.5809895887071415 -0.43581072758870754
Ni 0.6577727085676554 9.243688045643186 0.005573871539263294 0.367701947735928 -0.639575281106305 0.3228192282906247
Ni 0.7766383124891745 3.573331562794385 1.3202620517766526 1.7712535366351432 0.06962238828382848 1.1502459912286964
Ni 6.9526400093230905 6.27942513052482 1.5443351678903061 -0.49010059928052363 -0.25237151589202345 0.4517299699221252
Ni 6.2252158869479235 2.3685931732292995 1.7345172034402994 0.455482494986022 -0.724192857247385 0.22933211757405664
Ni 3.265660447957036 3.0179226478632595 9.637262357144474 -0.45203490275705377 -1.0075178840981294 0.7591863426034344
Ni 0.2646013716764995 1.0497763349408091 5.111115645715853 1.8395888306764316 1.207531712324043 -0.4949291310174186
Ni 6.272501294041608 4.402918907352401 3.4296253217122614 1.184106134311251 0.21859416233126222 -0.7622310429670291
Ni 7.5012899410206035 9.302943630360625 5.219704481227567 -1.115690107630698 -1.2907305537407254 0.04120629903498065
Ni 8.248322441584339 2.9491330502106035 3.0952662974673975 1.526894863745267 0.015507608717295875 -0.16885282924207692
Ni 8.42439487067132 2.599534258891578 11.8673806324123 -2.024740139968216 0.2585326503974128 -0.9929584982267158
Ni 2.7187139998387244 6.68359950597541 7.826218443536945 -1.4288317036222424 -1.1653399094473413 1.1838788487917933
P 4.012876118798104 4.186411639544014 11.740937274117488 0.7468321919134557 -0.27542505527737726 -1.420358890264541
Ni 9.619645039870521 8.680998112188044 9.190385494939088 -1.9504792244711118 -0.45248253181743364 0.7888013372563899
P 8.198234529247449 6.866861368447737 11.18722726350863 -1.069375026614242 0.48685689553224537 -1.6666806004180588
Ni 8.098077021601403 1.6373957431410593 9.629045338503287 -0.23680297202980505 0.20380877649197157 0.4534700925416835
P 8.655619870263466 7.838478946050273 6.875484109253219 -0.8409001148341583 -0.9097619708028785 -0.22715182209328622
P 0.07573083531221532 3.3027066365477684 8.679061086505243 -0.06564797701711275 -0.8790735405800861 0.9163293396077509
P 1.0259092478042333 4.210003971264589 4.464445803508777 -1.3643358379317019 1.0447700835813682 0.24472248398719784
Ni 6.6474966443129455 3.2560714839386184 8.048410400902382 1.3006856080709084 -0.9440126644556323 -0.8706603768157263
Ni 4.174642949225326 1.7144005277321301 11.67193061968619 -0.571979436334202 -0.5012658718687238 -0.19045369534130427
Ni 1.128777675554817 3.5985999025525635 10.749465870154754 1.3064561920060982 -3.1579114351028132 -1.91167382156814
Ni 4.711029630855351 4.283079753406853 8.57307235308028 -0.12967204527755732 2.085162864030648 -1.5672652971425136
Ni 9.0279775685412 5.009139257215884 11.78341537728255 -1.0132771551794097 0.3972722051938771 1.909768634125627
Ni 5.538135018155495 4.573844251646307 0.8205085097619728 0.8330402524701074 -0.8543323290796642 0.9522697622581019
Ni 7.862172021423382 6.773243039702503 4.975583378259744 1.7026624178293064 1.2917039733975881 -0.10265437903813288
Ni 1.2532601960307728 8.096336903966733 4.385869417938184 -0.3142253159740266 -0.21284491855231086 -0.1948237993845419
Ni 5.830923547959486 3.102391621255677 10.344840895821925 -0.9398256229574782 0.2137903131847157 0.7533075152251543
Ni 4.366513814732336 0.8934496617503965 2.815167804477084 -0.7377780521309873 1.0321912184750932 -0.216006346999428
Ni 7.960644362517958 4.190606238894955 0.5914082853868968 -0.6746806094498704 -0.051183207742034435 0.5332251983841396
Ni 0.930450057771796 5.5175192034415925 9.860901359700847 -1.9429119536468151 3.4626144134087014 -1.1972565556502799
Ni 8.50775566388587 7.638795868214983 2.6297179730420055 0.2189201782121133 1.459142953011274 0.22024095390606588
Ni 5.44341766774626 5.845998461784046 10.544097186911028 0.8434951292548442 -0.5634857970408941 -0.5294261363530236
Ni 6.37195359611992 7.909191831614933 6.8883527370872955 0.209568047573252 0.4025769052362422 0.07850092172038092
Ni 8.786027949211167 5.3308228982692585 2.8253548194509954 0.7425039968517472 -0.3807852632824475 0.3625489427800788
Ni 1.8371337720595493 4.4551132778786275 8.091733834897338 0.5749202641300809 -0.9111873903954952 -0.2553555382210118
Ni 6.471744763211297 1.9096875189114124 4.091200645237364 -0.07836722435599407 -0.4248241466702168 0.6144787431489934
Ni 8.313384524093255 1.7598908661079447 0.5779956418291395 -0.011125420489200195 0.1878676797816829 1.1219551147038034
Ni 2.3495984154697984 1.665494063684043 6.2710661549186995 0.302809103717285 -2.1444586735774873 -1.320009762320817
Ni 2.3627317243546218 1.63593038092239 1.4080931156095293 0.8344088506828596 -0.68985191787367 -0.8341476266016732
Ni 1.2524817223521045 1.0774533638459254 10.98344025560968 0.25337630300745395 -0.6001888088888825 -0.5299185026084099
Ni 1.2395682178000815 7.560261611808175 11.337772166895006 -0.6118305068928689 -0.012795094882139254 1.3483335489661747
Ni 3.480500866241686 3.2813123481551965 0.15083980753288287 0.39663791404398785 -0.043127427317093465 0.013001811576306642
Ni 7.358435441728082 7.029617318372561 8.87480600337786 1.0428792943165588 -0.19174850289332784 1.1967405352458098
P 2.289078955838757 7.766044259878678 9.541527495844651 1.8007844562147246 0.539136164551936 0.5513357919419215
Ni 3.198061457107048 7.410785506990043 5.729796153694959 0.016220318513604323 -1.1658939821785985 -2.123663334098691
P 6.460342413447278 1.2815508453649567 11.283323886106189 0.11652265237979288 -0.02184974888523979 0.5370556278738234
Ni 2.8873130816104924 7.328908393021896 -0.11522784221367258 -1.7182201630582474 1.4255283502806224 -0.11694328485697925
P 3.8253921814332355 1.7429934080239147 7.743030746234476 0.8594560234594747 1.4599132555183953 1.3384635981506303
P 2.5837358224715503 0.5194507577877548 12.674031394842595 1.1165966786053672 -0.277735962798741 0.3794441758735207
P 7.711981552523648 0.767651978683185 2.4967858076726483 0.12890611364581026 0.31620146586379094 0.27083383636226904
Ni 1.8353661788832796 2.4988272404135317 3.611912718309174 1.1008070198712783 -0.3094893439509379 0.3653943826486739
Ni 1.9641806764181764 5.154887846890278 12.452711327997266 1.380329899367113 0.15305828541198158 0.8808218907297605
Ni 0.7108325586542835 0.6554904069120779 2.6493144451625477 -1.2917823920440075 0.057587054385849205 0.44273676528457945
Ni 1.4705550960316942 8.703326568995019 7.074124032359094 -1.2270738961220284 -0.5941680566160993 -1.2256338212413924
Ni 4.750621886301023 6.08352451891647 12.755288477421967 -1.4757805615679551 -2.772225649194955 -1.5504135156924974
Ni 4.330731501055205 2.397268480145884 4.616773869544996 -1.5770282900665484 -1.0434277106208611 0.6078008169081855
Ni 1.664559895269641 7.871852570580467 1.8294745069128426 0.2623216851261998 -1.3177129958668403 0.28821783616667135
Ni 4.90781861830877 7.413203354650847 1.0732459425755712 0.30207325399252494 0.9205845153396791 2.1902461642252473
Ni 4.166162165384778 4.699975304618265 4.350522133669721 -1.1376802387485438 -0.20285026923344418 1.1676451605417504
Ni 6.856127590195985 5.013636087524426 12.211820432870221 -1.2851422610196708 0.31545096085101154 0.0501478244989846
Ni 3.479411003091551 5.459674029859622 1.2597957115260379 -1.7345140151222644 -0.13747148671731807 1.2292588195884895
Ni 5.955827360073309 0.8280496300797996 7.974096387685343 -0.6287038856094398 1.2481769966492309 -0.9956067344828401
Ni 7.03964589105658 -0.43565859857008515 0.7582489324962616 0.5357700762931806 0.8960441069961536 0.7068237698413182
Ni 6.1450697321005805 8.555645532894754 3.0201206911912637 0.7104994189206925 -0.9541998894012792 0.604768714950081
Ni 0.5650967908993031 3.1611984387936487 6.312364641497734 -0.41552780896995534 -0.2674338095417846 1.0880209238502037
Ni 3.0945977259551296 5.624829510417518 10.285874720142672 1.0210650266549448 -0.10915952714650233 -0.3845141341972603
Ni 2.2195200430212996 5.830181708336284 3.8461673542884194 -0.6723643026118679 0.7876885638081853 -0.8813823912189208
Ni 3.96782538908789 7.773755728554424 11.27651453104631 -0.7772681398058098 1.0538075111932883 -1.456589076241169
Ni 4.737277931597265 0.5046103019181817 0.4963832089117403 -0.6777736465528973 0.9141816971371288 -0.7553924227786409
Ni 2.954536573391946 3.7665670468675305 6.117223270688931 0.743665621260016 1.9441869637044968 0.22529882804494747
Ni 3.702723046702883 8.789306697175439 7.404730813472778 1.9926617713764327 0.7501108626647275 -0.41376814596637124
Ni 8.042878658526906 4.55922726351508 5.424912890478628 0.4221183177032795 -0.26207383078145186 -0.996680170052677
Ni 4.25644679508254 3.3048314117648387 2.4051933421947247 -1.2978633081307647 0.03522822707467481 0.32457169220535714
Ni 8.121504500072378 9.091775776136512 11.699946513604372 0.11031061003181002 -0.15726075352910335 -0.27850266576143645
Ni 5.787246595329274 3.8162886186497524 5.825516361372596 -0.5245613520615546 -0.5177759537086051 0.03619701874584734
P 7.535185600841198 2.489165008284181 6.052413047311348 -0.20944797705561993 -1.1944095731197881 -0.13672843790370645
Ni 8.442959178279086 7.023499431109617 13.301156968458168 1.2415623195461907 -0.31149403308579254 0.4257746835089441
P 4.798465962740575 6.007783609239001 2.9132206856365657 1.1046083958952397 0.7896068638768208 -1.571898425039151
Ni 6.182482261245981 8.868930816732382 9.88096766358275 -0.10739317927469891 -0.6349732635579194 1.2894102922674051
P 3.007967343290175 0.24825891953279028 4.607310377166553 -0.47280170299075985 1.3902934383377281 0.22637612026952628
P 4.204572972541647 5.715068347545946 6.744389141765518 1.908842522766932 -1.371797693526386 -0.9213337348008778
P 1.2940064242236455 5.704462788488327 1.114646088658525 -0.8403889795256947 0.8251973593869208 0.31838793199214843
Ni 7.569530027841259 4.501098176003243 9.865660123505975 0.35594275031747086 0.43910868161368893 1.0431286913232036
