# total energy = -381161.3709721644 ev
CRYSTAL
PRIMVEC
9.34555108698545 0.00000000000000 0.00000000000000
0.00000000000000 9.34555108698545 0.00000000000000
0.00000000000000 0.00000000000000 13.67815867858522
PRIMCOORD
 96 1
Ni 6.7286098246744 1.446635224868259 6.140741021419604 -0.5270861753659375 0.46577256405812045 -0.7616576869620624
Ni 2.887242569327458 4.05114683913325 7.841564953974655 0.5066577323082565 0.11815735976973844 -0.008449159208617708
Ni 3.14599284046799 5.323880050587886 0.19203425150611755 0.17640261656487685 -1.0873925462375853 -0.5528925949060801
Ni 2.836729866054638 0.20771702067579742 6.046033207364699 0.06480748339368839 0.049585010016979125 -0.7400717332611707
Ni 1.0893735004069505 6.27883649064831 0.8279775037721475 0.4735560646582812 -0.5638619494333902 0.7674424119646396
Ni 3.3312496983730995 8.586748352134485 10.985134493062693 -0.47693500843284314 -2.849129144521229 0.25055965949426523
Ni 2.9677825280333163 7.062825420315955 6.066783134298397 0.561916138560929 1.1346957021989232 0.26514655616950467
Ni 1.5945566064412837 2.0513484492847454 6.876037761153475 -0.3052940749226678 0.9546436618069172 -0.4487392627249175
Ni 0.5648404309819834 3.2119724306818864 0.15950612661964608 -0.4184778927372148 0.3827806964459214 1.9280746315236663
Ni 1.776579903692851 7.6804728873466095 2.807893233821777 -0.6682009152627976 -0.15102120037729475 0.44518779792823326
Ni 1.7739351127536822 2.6161561708381527 9.27231461121606 -2.040910064859859 -0.19391054354165313 0.39877758609480995
Ni 6.550754643178556 5.08116674500076 12.843161808465618 0.17668312391977314 2.434280621006485 -2.4432308882212372
Ni 5.164603824523375 4.697466456698784 1.1938950775898458 1.5373649100386553 -1.3101554952345567 0.39276403291087847
Ni 6.569445745222152 4.807641157694764 6.340947957294284 -1.3425092289749136 0.42530134341695136 0.4944272516803356
Ni 7.523860143323311 6.917773122906621 4.872775910096291 -0.6366843327117551 -1.7998010092555328 1.5957173818356194
Ni 5.062466297406141 3.2021409110069547 12.356752979878975 0.6774602290775364 0.16722737782351196 3.244580494456283
Ni 4.176321149519218 8.216412201793682 8.486148168160337 -0.7366125710679765 -0.06677103487796242 -1.889075881662966
Ni 0.9679747926337894 3.316661293228072 11.674800645377529 -0.5672439785317457 -1.1146508677329061 -0.7333809515045563
Ni 0.14290375522942128 2.4390019056689423 2.706675308925087 1.2374781221744882 2.369157920365223 0.18549429445349988
Ni 3.737313890270239 4.553367405493674 2.9846017162072473 0.3083768276130495 0.4024277812528876 0.23790751794789353
Ni 5.837390042582641 4.386549319754573 3.997237028064007 -0.6796623789351778 1.1764910409681546 1.3501346067306554
Ni 6.369264042335232 3.7835089489709883 10.453299744624394 1.85321747720346 -0.5645898287383503 0.6604786069178754
Ni 0.6180951189245993 7.905242734971883 5.313636392112892 -0.2594021974865597 -0.5603251399247253 -0.2998546490746513
Ni 2.320117151120645 6.3795441484592095 11.71861165401262 0.11607116666467106 -0.6300472870112116 0.6509806947297693
P 1.8347933410076331 4.258010611000758 2.28940953957322 -2.6636343358470964 -0.21667689070389134 -1.107432495607596
Ni 4.7818287457725575 0.5096147663288703 9.941628022515626 0.10205891154597908 0.5152958675992286 -0.7495521619477801
P 3.0825739312340663 3.6497273860939448 11.992147521424737 -1.38707364584885 -0.0519689368681234 1.737040123978228
Ni 9.43797852140397 5.881800101038227 9.635100490886355 -0.1291097450161841 -0.21107034315039136 -0.28097889521607095
P 6.91640867245744 3.4926473645195575 0.26378471947597465 1.3447777132941163 -1.5413025545301648 1.9247872190216466
P 3.4859652955389717 3.2031689216193526 4.825900495281154 -0.5964331985011921 0.03139239826835239 -0.11773672729255208
P 0.2572026478913221 4.346933528973169 8.00660551590941 -0.3345123483578368 -0.712528019314947 0.30864653633466843
Ni 4.288346269617516 2.8852239303067493 10.302580305075443 -1.0992587015475521 -0.6238154471688869 -3.050546280852572
Ni 6.184044566634209 1.4669617983406704 11.422424974588967 -0.2893090123483211 -1.2329527235003088 -0.6759167958498166
Ni 7.9915302075561465 2.68338806488897 12.003199570063117 0.9924471058079359 0.6981794639027588 1.3168100244365968
Ni 1.3710764448570192 5.376187099656891 6.364282863640613 -0.7804843327502623 -0.09441347918557934 2.381046958493325
Ni 5.312777535973989 8.754183244241027 3.6161497558277254 -0.3519724528158132 0.46279136994260944 -1.1665881800321456
Ni 7.026228242514592 8.974822358314665 9.467009541098085 -0.17014120903619728 -0.929907592512818 -1.5296963377498043
Ni 5.112689288597285 5.022121553645038 9.047869054211244 -1.3057853911913189 0.9149661407116372 -0.4291387148851706
Ni 4.963758587513907 1.6714237635955755 4.524433579530186 -0.898402322815685 -0.6211106466432141 1.143281386985405
Ni 6.812607637258324 1.2119497476088579 3.1216841277051905 -0.5609252354025694 -0.14424660065762257 -0.8285919868907665
Ni 9.051586714407716 9.66143064633517 2.767036353864679 0.029451215381581537 -2.452480946064596 2.1163883977038327
Ni 8.575393507643001 4.799529219407844 5.630805702690686 2.244197164520406 1.1540725640636382 -0.6196600302396167
Ni 8.098069489204647 1.4276544107429867 1.0994022112084423 0.17816973576762862 0.7278865040488883 -2.3309711248828564
Ni 8.590140787155399 2.751694697307294 9.566695730182301 0.5451296631312096 0.4776168649912161 0.35617852047736076
Ni 7.925877711628013 2.964997553828821 7.182155023092889 1.8632293529135073 1.019787702604418 0.8583306516057797
Ni 9.067184439063098 1.0870184215494572 5.660062884719528 1.475890090562626 0.6161988111638936 -0.41508789321905926
Ni 8.236168696653763 5.463493237302532 1.0210500459967868 -1.7398768220960743 -0.8014406232869553 -1.6683888413584171
Ni 7.539971873284893 9.126267012622906 4.610770583534866 0.17137919520835646 -1.0177313342960215 0.22463856875312926
Ni 2.3422287248382196 6.57998752677474 9.28324329858095 -0.537374444665823 1.636209685522711 0.7435270387996227
Ni 6.157054615283255 7.155037972248039 6.946452749882316 -1.0392730650225392 -1.684468520529099 1.4942251414263878
Ni 4.863695772723512 2.585297161364174 2.47273747574743 0.9133468599406593 -0.7038634016614136 0.2515251087313281
Ni 5.111726696842041 8.829723333150222 13.123741417682867 -0.23293474732365047 2.1545389406316247 -0.06130949754275892
Ni 0.8369763348510371 8.07401404087454 11.926040831716945 -0.6134492734432144 -1.2417854913005903 0.45906661279285454
Ni 5.801409671148717 1.6362377639985046 0.3804031779014858 -0.8869238898624403 -0.13127589942956744 0.4833182862513676
Ni 8.328577505157305 6.778645904845109 7.468534481274266 1.661740482803964 0.43979670881964905 -0.46778933737783307
Ni 5.032719408503756 6.773113338640204 4.729059091927973 0.31059337564839407 -0.6589171759680266 -0.5115605689265126
P 7.273072281653353 0.32762230939567505 12.976838701171218 -0.2576808439200788 -0.635244514941435 1.688124115003815
Ni 9.099875176537347 5.163463667298716 2.9682152270456257 2.025530239969679 -1.810904832478178 1.9313139643965704
P 5.26617127302828 3.571047192041424 7.578274614147733 -0.0009019429889790918 -1.9052175244198348 -0.6735454674041627
Ni 0.7783657116178285 0.9586666238160783 12.657289078748173 0.3403474669823751 1.4161924175916771 0.3931802945126906
P 3.7033241212039583 6.147690373159413 7.862438242181842 0.8609644896842011 0.41132791195599483 -1.5232762931560735
P 6.090832040742791 6.80271069872624 2.6955139173397535 0.7373857017885752 -0.42003083904663147 1.3617122842659257
P 3.207234236313835 0.6153101447201035 0.0904256825767168 -0.6766878696878862 -0.6479395939106002 2.4759101236218135
Ni 7.250484084833666 3.350492187926982 2.737464226766402 1.374823367726587 0.8078089887071442 -2.833789685950681
Ni -0.2519569901027866 5.642208209492383 11.913115000098696 1.3374804083017546 -1.3025321743613438 1.6214584953554656
Ni 6.424356065608732 1.8068127612483689 8.683442095781523 3.1703794856628362 1.9672147920582375 2.7304056278353754
Ni 5.385373776311319 8.91722572736732 5.968833348594031 -1.4137501266987715 0.6293489753926065 -0.618870701569102
Ni 4.455697051764859 5.164052437013089 11.203123208866549 -0.054128920633919685 1.6344052853241209 1.3048309976978494
Ni 3.2623262595873364 0.42465716565500766 2.6343454167918785 -0.32602307993990304 0.05235948743832273 -0.36096797144620413
Ni 0.8880516402953696 9.108473083477403 0.9587666212120115 1.3676438192590123 -0.38845692089509226 -0.5612319680097109
Ni 8.718156145051992 7.561102164145178 13.71358493586857 -1.4668380076626866 0.6095386255348986 -0.4029340314653448
Ni 2.2266803320047046 4.512611457487611 10.300774744618032 0.15454515437015318 1.4733061318855334 -1.4351141941968446
Ni 1.141119816414648 3.6602878587485765 4.631069120354212 0.306122227250918 -1.2741947608692312 0.13381794912513081
Ni 4.310317660069764 4.888872687176236 5.924776551967069 -1.4328405676713194 0.05181492778876237 0.4429056867622759
Ni 4.875405748153824 1.2642567966778637 7.551068780568175 -4.229772461363703 -0.6420880202258297 -2.0111688290416847
Ni 5.5540609722547805 6.854391595876784 0.5905584528388703 0.6240049374718737 -0.5485471734531908 -0.47465803947320834
Ni 5.350365342183662 7.226578165319905 10.175797625358623 0.699777404517498 0.029903472427651727 -0.47186247900594214
Ni 8.3235589442586 7.230540678953148 2.8618535108665384 0.540817666019417 1.042049856436728 -1.349167614831696
Ni 4.012334765739722 7.1065906357510364 2.1775489011729063 -1.3454449145644698 -0.16845662224492278 0.9026798671451164
Ni 1.3637495328559293 0.33152407694727587 10.428378898269667 -0.5085580346547628 1.1389873875957417 -1.483242160052323
Ni 3.361118079438767 1.2686585512091306 11.854230552220548 -0.21291716655114296 1.8963027384287086 -0.4356626320466174
Ni 2.6331276914937383 0.8025800343153082 8.492714352308253 1.41548227889853 -1.512859982918756 -0.11363941729472687
Ni 7.320996267293135 4.954506492002326 8.725830711551094 1.4148590434922343 0.0885235960637056 -0.6748744706282314
Ni 2.2930991631166258 5.5827985416468096 4.42682677554832 0.44968388602637394 1.4742836653074542 -2.166550106159888
Ni 1.3953374953096076 8.28697111200826 7.600268433922433 -0.35875322318307246 -0.4538012506288571 0.7785907152719752
Ni 6.887708485269496 8.516441771797496 1.5142129043068833 0.22307765202391258 1.7824008115012142 -0.3605568520507145
Ni 2.8643646604260957 7.658520187996404 13.714132585158447 0.2327480852341411 1.5686896882938661 0.15228335491917
Ni 7.533738390753354 7.120347286855123 11.490378345178668 -1.2251825926365867 1.1540429963772834 -0.4653192785707857
P 7.6904726269399335 3.1093956626666275 4.790720103014696 0.08579025629294258 -1.2172538247078133 0.42689825559042605
Ni 8.303989360418953 0.201738671687153 11.215392048247967 1.293729231357733 0.7023857886746225 -0.24305718046963304
P 1.4231498551504798 0.15403243738617878 4.100643681010002 0.8365415807551465 0.31699593674062826 0.11347538091303683
Ni 9.100071433108806 0.7054049947906486 8.133457352703791 -0.1828936236058592 0.03694186733167187 0.4850890049985452
P -0.04453996161478892 8.061201290423654 9.752403978201762 -0.10143207659525758 0.34036032249818154 -0.40943506580865613
P 5.1983319181610455 6.998350463816568 12.23631686386106 -0.11540216562210448 -1.566459770522083 -1.5988441003900593
P 7.577494260637413 8.931776750308261 6.918248811453631 0.33603341298805356 -0.6872373630689584 0.2067274928006633
Ni 3.284774273141696 2.880569845897894 0.9368101836413983 -1.1650704578360387 -0.409602701734772 -1.259822037087327
