# total energy = -340872.51001079084 ev
CRYSTAL
PRIMVEC
9.19756483745495 0.00000000000000 0.00000000000000

0.00000000000000 9.19756483745495 0.00000000000000

0.00000000000000 0.00000000000000 13.46156584371700

PRIMCOORD
 96 1
Ni 4.0513618386417765 5.979750915097002 7.742836754087384 -0.44291442851302426 1.6917835661332736 -0.516170299784382
Ni 7.004681573986688 3.9530950538831515 5.353369143998476 -0.7174144008729709 -0.9186032232435921 -0.8492785687058406
Ni 8.314874712218264 3.6682280698374625 0.4452237710385007 -0.16216796102273362 1.55308180655328 0.3451808838152765
Ni 7.799093660580845 3.34895299502221 8.80748525803727 3.225954394714664 0.1092070925549861 -1.7047522104787995
Ni 1.3723962705156068 2.5746375880141255 8.393959975111096 -0.4429082578654372 0.24124738095440387 0.7300297756441363
Ni 0.8003537136022133 5.643589110890432 1.9039631030104973 -0.43806352817862626 0.35934869067522623 0.3363851399005175
Ni 1.2330715554722094 1.1137331492345492 5.880860535429482 0.5434877566524124 0.41543267815298773 -0.4143618136863122
Ni 1.5024038521856895 3.666075839620922 3.8765538374770485 -0.7678257634459873 0.09730082803570339 0.05153750575765962
Ni 3.565049785353912 9.453165360077442 12.674441436407651 -1.2209091620722137 -2.488789807797959 -1.2585598825454518
Ni 4.9952435545051594 9.307291978734144 0.9678597678912513 0.629457990166645 0.09064398484081808 0.9686206928122997
Ni 6.871565215337157 0.5277792752163806 3.355200900945697 0.0020584251909254872 -0.543797060362715 -0.16707799672984128
Ni 7.4407381319618295 5.399862835214767 2.6700347324840297 0.5620542068006901 -0.21569730039944146 -0.07617561602131397
Ni 8.555620976824873 6.257876083977203 -0.34311884239371176 -0.45980709050330487 0.3227924888177473 0.8634103801215324
Ni 8.36538773935177 4.814548191966041 11.033220574768107 -0.09775539907461875 0.4731344037398304 -0.4240098782990375
Ni 4.422428402129419 4.4074271735688315 6.016579804981922 -1.763126022432002 -1.5143643353784242 -1.8601293738319447
Ni 6.930245680215483 1.4771013507937971 10.582056096478054 0.23766686269199713 -0.015926698532585475 -0.9654237831415566
Ni 3.328985081346529 0.011092263423708535 5.051856406765202 -2.341946650057754 0.2779465361476503 2.6803279944526937
Ni 5.613301529253391 0.3021749619152865 8.083845675063683 1.2117105262920809 1.1185931402101057 1.9619928815376662
Ni 8.301952133353993 1.7727386834872163 12.61438961458366 -3.9585671005946277 0.0947315246466304 -0.24937335249564796
Ni 8.302697136121257 7.603489045131417 2.6774111796364464 0.7437047020280676 -0.15035836998231525 -1.4275587504470897
Ni 8.563825204829804 2.0968700726372265 4.551610962216495 0.5494264907343506 0.5981496669716667 -1.2178652330395672
Ni 7.412547595151161 7.172951026173045 4.655534249467309 -0.9395134910336981 -1.5198749807840084 1.997953101682359
Ni 2.9585439522807873 2.1025173775643884 10.304142471593496 0.6643350045494881 0.118858242491505 1.9541031943769445
Ni 5.836195320140748 4.421076360070311 7.8521856849481875 0.6353159916093187 -0.7141516709612992 1.507759428467397
P 6.017681673272271 2.076267526974617 0.8387967761495388 0.5345796555295051 0.04857636624680667 -0.4574496460147218
P 9.00511517730585 3.633295717861306 2.585280090507967 -0.47380211923081617 0.852680138188222 0.10571707712385665
P 8.500821884388342 8.97931600740245 0.16108339463002003 -0.5579445555076907 -0.7637616206789427 -0.8031393511456169
P 3.5883748102647943 5.467768457816127 9.796035868215398 0.7615031636620692 -0.3223931964967996 1.0035457868242588
P 1.1327353185822955 0.38309054024868266 8.78528693484231 1.0264756561475548 -0.5474670530151345 -0.06416702159621207
P 5.941424661625533 5.873629409804508 6.107768143695036 0.6458490299301587 0.7377842227785745 0.3234589187571526
P 6.285901064617369 3.4393374665518817 10.008930066404368 -2.6423042069107527 1.3050428565983396 1.4602415853920916
P 7.207763809803839 8.709753771563271 9.661514121629597 0.4533387091701418 -1.2920947810781038 -0.49248709723482925
Ni 1.6261938798968778 3.402538008875051 1.230286532781746 -0.5709018869993071 -1.3259490106233873 -0.32491699135991786
Ni 1.8060982518435935 1.398784084580797 3.1148179401576916 -0.5035775507210359 -1.2651287940122213 -0.7674863778286977
Ni 2.1392432547209954 8.935839117515327 10.702308740679491 0.3660029627669503 1.4249146279560234 0.6683559527834231
Ni 2.6971583517514564 7.518659902878628 3.0270483363654668 -0.10876949079693526 -0.118178442815661 -0.6156660785888752
Ni 3.3716157952510803 0.5304033405188548 8.713012468852673 -0.5762546666707882 -1.1801363510302256 -0.8065280651121917
Ni 1.5138456230804602 5.672423477253059 6.932867906004951 0.7590786133809766 0.3796879164532106 -1.322907652693902
Ni 3.4686409087309324 3.619637333794799 8.618660167769944 1.0398592765433123 0.48775446764585034 -0.8198111553743429
Ni 7.538140345607828 6.344369985500051 9.17516159905561 -1.3709769973973034 -2.331125133962218 0.6125779265818547
Ni 0.8831088049411997 8.793607971923098 1.59970489261638 1.6475518500084079 -0.8426417801156132 -0.45063082332067556
Ni 4.446204107726672 1.9496722419299037 6.964367726712677 0.19801890928307186 0.47235613081290906 0.13975771164833348
Ni 5.624062680336094 5.402281794817118 10.949664375515187 0.050358140737577786 -1.540474916422547 0.042612178243571774
Ni 9.16988035721656 5.314031158373931 4.516786221751166 -2.157810669404361 -1.5969000892898113 -0.07917557918990235
Ni 7.18904676497196 7.12984203888704 11.34377911720637 0.36258416689338846 0.7063853967523189 -0.31859310602441904
Ni 6.037336869737002 3.207926730448642 12.189353579025008 0.3190559045934505 0.44781675091064815 0.9926620500322194
Ni 3.854653515388995 2.3449835868312245 13.07870569110718 0.30453637082103685 1.7369519351397955 1.1251666796625654
Ni 9.266270838709485 3.2372853580178607 6.4791593812281665 0.3558455626179743 0.9351878670751507 -0.0724868543158171
Ni 6.981172597775246 2.966748180285719 3.036539303717809 -0.24661995812022688 -0.5593918294771786 -1.169733924749979
Ni 4.836879879853905 6.733537356962701 1.7453998411981357 -1.1031174131720098 -1.3268586669218503 -1.1446453572124675
Ni 4.198274544833233 0.47340970906665564 3.227194709425696 1.3765642616770937 -0.34082209262594854 -1.859633665142449
Ni 6.953349963565695 7.835267683835775 7.492708053395763 0.784760591528113 -1.107158673120919 -1.5993202686955295
Ni 2.8719120872825195 6.668676128385593 11.657043583275856 2.5479874012040375 -0.42403481799970194 -1.5831747692839184
Ni 9.001500534249866 8.817659604471189 11.349917572106024 -1.935697438176247 0.3023054246079891 -0.4107378437804797
Ni 8.642648337119343 1.4577680691050448 1.8126000105618518 -0.4041427070614653 0.7793005968548062 -0.14144461243245315
Ni 2.2391656011846517 7.152615209896247 9.36879241705004 -0.4520858105996472 -1.2534770687059056 -1.4738558337414165
P 4.309703045146855 8.209571790213255 7.126566785980588 -1.7832652163840386 -0.6517983055350581 -0.6672022987949542
P 2.3119275381207696 1.1893923191544715 0.9321152709231264 1.810888634528262 0.6895089327119543 1.6992978722324477
P 6.043526831000812 7.721981275386506 3.042125904715786 0.5545370724880385 1.4544116089738757 0.4288371244843518
P 5.121829641984846 3.6060525302485162 3.808519448965297 -1.0826879416730644 1.8035357937076164 -0.19283762219244854
P 0.44175536926646053 3.381245645835345 11.962862620455217 0.39044721185224374 -0.04892577916642542 1.0331479259614078
P 6.411521407769119 5.526890405815794 13.087698150435006 0.764641966401367 0.38894517338542045 -0.1897679821281893
P 3.2106676048269716 7.594199504453187 0.7090642016737915 -0.8436113431177342 0.6845706148700725 -0.691747592234486
P 0.5977653870270629 6.824032199272708 11.063509076161653 -0.3269219376050886 -1.4411166916371827 -0.6441063362074391
Ni 6.835529155557646 7.672305226670544 0.7367553107034427 0.6174640510295625 -0.2265077607513841 0.22527748788870877
Ni 1.6858216939730823 4.42045092564841 10.147153832913919 -0.702284487210068 -0.10617601903814616 0.7035911218366334
Ni 8.591822592774887 1.2892502826629322 7.862509951692061 -0.659562008640877 -1.0703978114518016 -0.0032244204745686404
Ni 4.91360596731707 7.26660063328764 9.772437675623186 0.12197621929519638 1.668972995996661 -0.26800742265706745
Ni 0.6340764540009095 1.8338840957930325 10.524427833038924 -0.953143680222623 0.012724132434887764 -0.608751610857229
Ni 4.107972851388813 2.6077028342896083 2.1649835602082184 -0.5029741128090821 -0.4150254154122401 -0.7437741218134223
Ni 7.968779537781507 5.191951877757941 6.9597376724776066 0.36530542247929343 1.2632241207903405 0.6043635090918624
Ni 1.4492235311940789 7.753354169696847 12.789779821614655 -1.5388762044768594 1.5206059454127618 3.1131644699044254
Ni 9.139868702530357 7.733441441411332 8.651748407957996 1.0958347634676675 1.508671398758705 -0.11273721719543163
Ni 5.423537367596712 1.9111620371578741 4.879952076879798 2.0587375799595833 -1.232347485816142 0.5168626978657164
Ni 3.289067649125223 4.932433382929285 2.7495789538717585 0.36705248707738725 0.5644031666488408 1.6538381972377518
Ni 1.7801519208997445 8.16162488372255 6.861346720591104 1.170885521855919 0.5318290893675615 1.914361138592316
Ni 3.2114493978543472 2.4434895082805763 4.515130660046134 1.1506787078907408 0.20479196634084731 1.918259702315774
Ni 1.3894117658173153 5.156973537956645 12.752033934496449 -0.011279686678877347 -0.7856442796846469 0.5050037416446013
Ni 1.0765289986964885 1.1310429666171524 12.762103428689048 3.065374861224972 -0.4965898065492932 -0.07834999796481346
Ni 3.6090417388825995 4.475912242766952 12.11011931557872 0.5221059485425266 -0.4576733319897537 -0.8025346276820823
Ni 5.297512331583731 5.75930367650708 3.9014314113646495 0.8995294944415927 -0.06599096217882829 0.8794404370012016
Ni 0.9302141342318492 7.256483311756894 4.938267398426514 0.518863530345829 4.171123541372242 -2.6527534272685345
Ni 5.769218651607211 4.296633305242137 1.3209386534537308 -1.021795734173382 -0.30610602930100184 -0.8312235109763427
Ni 5.176978241892439 7.33176538151067 12.550473895691422 -1.9207847827304727 -0.753766971360076 0.2787770024687457
Ni 5.557435519273619 8.737033749436172 5.348899127394892 1.1010332769494715 -0.5282148896537419 0.17802009756364182
Ni 8.286426643586813 0.038974681805941054 5.595205320060898 -0.4730778394702821 -0.9376574116615658 0.7790851384098905
Ni 6.3586446064234305 9.280159161901688 12.349465710788074 0.3513489602992014 1.04788471795095 0.09299731556434306
Ni 3.6502284350777634 6.926952951935477 5.182110483178034 0.3081084044430113 -0.42161515281461587 1.6388874894651901
P 2.5227909139515674 2.695981063427879 6.6669479059168415 -0.02822171384985462 0.7293129520827698 -1.4356957777319275
P 0.38137427461446705 4.786238086810009 8.398482417835341 -0.9779147165197158 -1.3421503029735982 1.616836937423054
P 4.549318009255027 0.16310593917966637 10.681806448475687 -0.35341895545435265 0.3974354702446188 -0.1011615965426903
P 8.886659737310874 7.112854136280415 6.503591792968415 -0.920008588231551 0.8268192112610601 1.802313234154425
P 2.1100501833222802 5.665102215490809 4.508655574266457 0.8333305300170164 -1.4735773832690493 -0.8951863869815486
P 0.03175367350249697 0.07019857556282806 3.5788783243734357 0.3587251981586145 1.157291071000936 0.96752154621085
P 3.3599256901005554 4.5251100181014605 0.7740817888563749 0.7703120202029508 -0.039626099032054336 -2.2439004592155936
P 6.849831369176109 1.5270809191556813 6.673491053677726 -0.7795507651923994 0.2154075370731645 -1.3495892757501469
