# total energy = -340864.4672151243 ev
CRYSTAL
PRIMVEC
9.27291849056857 0.00000000000000 0.00000000000000
0.00000000000000 9.27291849056857 0.00000000000000
0.00000000000000 0.00000000000000 13.57185353191366
PRIMCOORD
 96 1
Ni 7.190378469959302 5.845768228427353 11.151326838790004 0.36678226413513604 0.3412553235086252 -0.5343541697822604
Ni 6.884446350234176 5.32411093795522 0.9961321181779791 0.1997765154041269 0.9669381629035542 2.005080970976392
Ni 1.1489702117683482 4.776053649154479 7.21719945877759 -0.09591731742461546 0.6691897615386282 0.20167244687525912
Ni 5.467711350360145 3.8143500219475057 5.93092700069662 0.082829888113038 0.021463569190414648 -2.552908749765055
Ni 3.6033262207658656 6.593109803873726 0.6660477555140791 1.0081704300804637 -0.9356254688332015 2.1036732641300095
Ni 4.647837008167594 2.46037413295792 3.9001300797411904 0.5656804906993678 -0.35230026846887713 0.49140312014203114
Ni 4.813024774316459 4.637136060478372 10.198270207874366 0.8033272987867068 1.5189774086704033 -0.38133805046212393
Ni 1.5797065385551992 7.0155932333959266 7.921592585941988 -0.9418575657858425 -1.2238664449283245 0.3069655490878197
Ni 7.8853929675804775 1.5940610160447266 11.787751329583125 -1.2295413838259146 1.7840015803294307 -0.5424441458792464
Ni 4.996953108298875 4.106595314298895 1.7964248388494481 -0.06131875351413956 -0.43533250240070837 -1.6135886056890858
Ni 1.8480740663487503 2.8307623076117956 13.162865763072146 -0.630375873995224 -0.8318554881333866 0.9222004536765472
Ni 3.1527643947073027 8.38341358936992 7.221800680825589 0.5364920420608696 1.1679148692633692 -0.033730045262593523
Ni 6.9819418129763555 6.314402972203673 4.807435059180356 -2.0254009134806665 -0.397363993576735 1.5333642735196946
Ni 6.153044921302337 7.6761773854624415 1.2462765069777193 0.2462116669382147 1.2766905307078917 -0.5131268849723678
Ni 2.409345263691208 4.458400560729894 1.493555564030519 -0.5386268290156853 -0.36051674284139845 1.28350986762257
Ni 1.599086937749716 5.7107081737536 13.255737748762463 -1.3309737175314884 0.0170906369336996 -0.9558024580017087
Ni 4.551018468459482 0.893283399715707 6.279628601381014 0.6412603821182118 -0.4554953505018285 -0.5527362718338739
Ni 0.5107569750400021 0.4663832792191776 12.60198124642175 0.3702216288339882 0.27170903987837075 -0.11373351967042994
Ni 1.5552074884729432 1.1444079359771029 4.944036272871395 0.8175164458028952 -0.30632123063560146 -0.11906393074440784
Ni 3.3679795549491924 2.7702379700315976 9.423833165228766 0.338519669745017 -1.4877919842065344 0.1579536658310699
Ni 1.0498056237366893 3.0988516478571007 8.919489340467678 0.018992481942102773 -0.9536193343074608 1.2407945881422309
Ni 8.985967818872183 5.251448350353193 9.405266928258785 -0.10809663309962675 0.19683671604951264 -0.005775726141512633
Ni 6.5539409970805975 7.884836592483984 6.625941498317796 1.2360503885890262 0.754776643571513 0.06155246679150044
Ni 1.537329302038958 5.099706315702916 4.2075597757677095 -0.25734480073689875 2.099143494580456 -0.6065551174265424
P 4.93074447181617 2.9233245778317336 7.705894306657976 -2.3824595225701355 -0.8165039453779809 -0.025121734768292218
P 4.820433836018095 0.4261759055792606 11.184822474182557 2.205251122274512 0.9228239461931592 -0.47134105928483344
P 2.150204289581171 7.713482335682318 12.001617280216017 1.6339805390818762 0.6544102892366085 0.832022095618238
P 1.3171809492748277 1.4532702978770928 1.090251311376271 -2.1745716909127837 0.5332534805189139 1.8356367880072193
P 6.553801903306473 1.5781579612032928 4.630160044060173 0.26528231041642053 -1.0184815821984847 -0.7856751329225824
P 7.005087016990477 3.7086665723686005 10.295879727511325 -0.008539919150211099 0.40578101399583666 0.9430754973533435
P 7.961356714088365 8.728366149195777 11.941778211296333 -1.2202039084750727 -0.4309662550122126 0.5044941489980344
P 2.056890912980967 4.930355009248625 9.603293807186342 -0.9430276748345436 1.164493502286646 -0.6695731130199759
Ni 9.046102693884835 7.446774660259972 6.337539830591348 -0.3532063252229143 -0.9139937494960388 0.8446739800542936
Ni 5.703911124658108 2.06289049110482 9.441368253686582 0.555867361263688 -1.2826583182555524 1.3510026111579054
Ni 3.708416203575178 4.587535220625993 3.5244748875071776 -0.5757705279455181 0.6583697881049887 1.958459414463111
Ni 8.451309896978655 3.531952568804048 0.6944813048203702 0.09977037262211849 -1.0297155032410912 -0.26787063996888705
Ni 8.901463714633122 7.082404609566499 3.956331382821635 1.694455970759114 1.2521303248700242 -0.9254269310336449
Ni 5.654783203637749 5.678484782748362 7.2019037800831605 0.2577687756481948 1.156117619518125 0.04309040343157095
Ni 4.048268658349846 0.12386115127316964 3.999366996535393 -0.2783756532652689 -1.1071740997398867 0.2550914859263477
Ni 6.704468279436863 1.8269039939271796 6.773902036895575 0.8309021230811818 -1.294946648704602 -0.10158480012303797
Ni 4.174083613503535 1.5555691322856637 13.568582829061517 0.8940556158112151 1.0262434855320908 -4.162049346985116
Ni 2.952942278801728 4.078006907257413 5.948773659208471 0.44086191685936976 -1.6967496518892973 -1.7785001908952274
Ni 3.5547083102506245 5.946193933344397 12.117547304488674 1.6181805959351419 -0.11305140600174078 -2.19482581317613
Ni 4.31842585937045 8.220293683996355 12.902530437088304 0.1147961566069894 0.8278759346603484 -0.6791389023315401
Ni 7.301848220541737 9.115751583047523 9.859205023861236 -2.3751133666177098 1.8863978206101704 0.9526276598181528
Ni 1.4647130790283054 9.066224926541343 2.920866327197061 0.025361361582924062 -0.04625774541595905 -0.49700761081300204
Ni 3.381527288548805 6.234581691693434 5.853486078307544 -0.5478953988018047 0.9353372481688215 0.23083492737182826
Ni 2.8214059330724335 0.7832861885553234 11.4218818480046 -1.4059974793365462 0.23445966860860912 -0.4465224575792568
Ni 8.21774363147076 1.0651708493181797 0.8724221154726901 0.007374180976884074 -0.6264613694321662 0.7207969441919586
Ni 3.003655868847094 7.121545597604803 3.566425569782774 -1.73831641958749 0.6658583831725501 1.6573865767106426
Ni 1.611994839988361 6.909279225374328 1.7283078357857715 -1.7291100704978735 0.13076913499647802 0.5099590287673476
Ni 3.6043184230212786 4.7530011743231055 8.129214153408572 -0.2883525619723228 0.944929776953263 -0.7360145324726616
Ni 3.521622537845822 1.4178570229852934 1.8631842866776813 -4.222757463498451 0.22154296054694103 4.526179003988754
Ni 4.816919399991912 6.452207810686794 2.7350676455986003 3.3268198001731735 -0.5545733250426127 -0.44094830592558903
Ni 2.2835952189654436 9.100581088749806 0.27226771721996945 1.3581405077542674 -1.8966500944657982 0.7578647955785335
Ni 0.49949594308697737 3.4662724886630123 5.243105505781275 0.29176878674272333 -1.8027539212362693 -1.0452418810114643
P 8.45209809503202 8.625204933387641 2.45288161499181 -0.8003898134249376 -0.4885905903939005 -0.5954281542754455
P 6.000217955213898 4.728752493034271 3.7116033055862574 -0.8100103672338372 0.9180180401640836 1.0225184712720197
P 6.383189479966798 2.4568318781769127 0.6477411602557941 -0.1709577914002217 -0.238560321040544 -0.6192944193700818
P 2.469702688742458 2.8133106754184554 3.889313220573533 -0.8765551450336065 0.4929910334544412 0.3057211351577574
P 3.804567093167498 3.7743930171010107 13.645140969630827 0.025304540203059646 -0.053605444030281876 -2.7719551691423874
P 8.035271145657504 8.98410396229893 7.812108167162205 0.07991091469403012 1.6581046858235895 -0.5463270258734203
P 4.785113290309044 7.781119001579355 5.546029490818027 -0.8940139639400023 1.118101545285668 -0.9120780205305647
P 0.23217903693397096 5.206632336330656 1.4812865658610137 -0.22888911649936708 0.28741153821529214 0.5342487545526476
Ni 5.644072983030251 7.662759472718677 10.953733932437713 -0.39666053975180715 -0.39154944377748696 -0.3080490119599856
Ni 8.970927145430313 4.532852821558975 12.220571281106343 1.6558711685073806 -0.1107672379532544 -1.0058248126664227
Ni 6.894748562437577 3.7362349583998444 8.010935298936884 -0.3271340536158947 0.7663404371497125 2.8070576692724756
Ni 2.6099092130587738 3.953443796070835 11.407238055464898 0.04943357204077938 0.17541248473746565 -0.5437659500144635
Ni 5.002813592648605 3.064560396076562 11.71050050201868 -0.9097347171093687 -2.154729459375876 0.7455237575146774
Ni 6.7537074754765225 4.212519859752947 12.688434518082191 -0.9446068463962054 -1.7233693113593547 -1.0374354975931683
Ni 8.29424520723859 4.839619503928839 3.786289243955865 -0.09476829142183679 -0.05143954672721463 -0.4297670924977888
Ni 8.440349307577737 0.3635568157607653 5.675599977873046 -1.335767539375706 0.18725112924360654 -0.555088059895502
Ni 2.7116980369622263 2.0989435973575867 7.002655657818801 1.0377656272390772 0.2200218959167243 1.1096788684396115
Ni 7.965650075249639 4.635439116434068 6.395668046089315 0.8376322427161638 1.8601471144437576 -2.310941717035807
Ni 2.8182253221041464 7.504619124458727 9.895740321864297 0.7276409636969855 0.13890127718530915 -0.020569853731551672
Ni 8.830831896133295 1.2044593547252815 3.54927067097423 -1.3464093353602684 -0.027382248667694776 -0.41988094373232854
Ni 0.7761784966976212 1.0598574671466685 7.103820414322354 -0.7897691004862979 -1.4608964453672713 2.257129556311358
Ni 5.581666243040251 0.7979466723479223 2.267626326404258 2.678036884425672 -0.5482800358347332 -0.6891394651876775
Ni 0.36548001901097726 0.7090685325585974 10.102778622771389 2.078266908241763 -0.27706233377048417 0.15218462455777662
Ni 5.3575027166630935 8.727633588652061 8.55146205080659 -1.0212514316341381 -0.06660211340026594 0.2373894406608944
Ni 8.57700430419477 6.846065741494413 0.2920570521104092 -0.03218275538013167 0.5564348037313837 0.5785588893239326
Ni 0.20804904899905582 7.256818929398879 11.68859601446974 -1.1813242006907396 -0.8974088485541641 -0.8073050524875321
Ni 6.119245134190368 0.49562079053990143 13.043297045668423 1.4649078805195093 -0.651102307909298 -0.12952677794894468
Ni 8.180605593779832 2.0123809052615016 9.027521620245613 -0.713389595984294 0.5330999856601851 -0.7416673598830646
Ni 6.575083250747343 8.460972277821089 4.095876748064952 0.31259292257692617 1.297629594853404 -0.563551874392139
Ni 6.87665709888327 3.1362307814231767 2.6939589443023646 1.7000172668969755 -2.0662076630843837 0.5249303053651991
Ni 0.17194401440394955 3.2529490037491993 2.79003379596483 2.5469329917975942 -0.6028987516208778 -0.9533601671088032
Ni 8.938564660650952 7.852872843190443 9.357603201034031 2.0484783641254203 -3.045045405639001 -0.6629885178239228
P 7.682353149033517 6.296404237832116 7.840513897713671 0.9731286079849822 -0.6191116139353144 0.1875115819938448
P 2.794421740892507 0.48156768289430774 9.078823113309607 -0.8684188890797173 0.16964909989112717 -0.5911945758100721
P 4.928370604737798 6.523154908407966 9.024902020832958 -0.5936111556713648 1.0625158376005637 1.0530248673909928
P 9.114555376590062 2.957977473424993 7.107254175959546 -1.097499295654284 -0.3536123024120813 1.8415912058184412
P 3.759778897899786 8.414088403023252 1.8944813131472578 0.6460634599338099 0.6690856318605961 0.18727195517921297
P 5.718692156388279 6.303210559845883 12.968421939766007 0.06197875569564165 0.7255136329413375 -0.29621011034352857
P 1.5834342517017042 7.566070753866414 5.163275879644587 0.18201019255964138 -0.002417608302557127 0.24524750325273245
P 0.5212019901848366 2.501091517102956 11.434218538477513 0.9380533615484037 0.6582530600214664 -0.7576040857179791
