# total energy = -340863.9008436391 ev
CRYSTAL
PRIMVEC
9.28662489695153 0.00000000000000 0.00000000000000
0.00000000000000 9.28662489695153 0.00000000000000
0.00000000000000 0.00000000000000 13.59191424311401
PRIMCOORD
 96 1
Ni 0.5767690636122078 8.07913160433169 2.4181377890856703 0.5878878800343423 -1.0546114951518224 0.19998117521576528
Ni 3.876218711324853 2.3674114572228686 2.109288786047766 -0.0419586038199729 -0.3325701370298014 0.635622467106144
Ni 7.1212905262156765 4.357061581762609 10.562670450141411 -0.3777256505205172 -0.6312958147063321 1.359923053575987
Ni 3.0385372743806522 3.4000562998986594 4.32091060787331 -1.3561247628758193 -1.0764702428981268 -2.5340934168307645
Ni 6.73768790639312 4.891135386831852 2.0144574859635185 0.20029716379428728 -1.648176113855968 -0.08321889602134054
Ni 8.559835175394102 6.764154787708497 5.547892937754145 0.14586742409049716 -0.9257061528369606 0.8171048121867734
Ni 0.793856924798448 5.867651867868998 10.882706121681949 2.419930780042716 0.6417396357474754 -0.10997019597325577
Ni 5.452595449093745 0.5233208219551825 9.96241086853368 -0.2301682403221068 0.2185460827021462 0.5002682838421448
Ni 4.07815637244867 8.600343433744165 11.413959578731726 -0.30631531709833054 -1.0150139353648584 0.6872473903712875
Ni 0.2923336690971089 8.719017214912306 13.468703372707257 0.05655449935627679 -0.06059884462897951 -0.05837355484288656
Ni 2.369166629352204 7.441261191381053 12.765797796058473 0.08752677936807507 0.5056475458761872 0.016637094336048763
Ni 2.47259177223268 4.347487071363958 6.3291154092088835 -1.7799459222028187 -1.091433034855546 0.04292148195387447
Ni 4.765208751520794 8.345694888990144 4.133192626984618 -1.9223775811388892 -2.8822506096655456 0.5458572853258535
Ni 8.983453862440506 4.619984509412069 12.467699918809625 -0.566922590636585 -2.190371634059518 0.4891536619862221
Ni 7.551586296653573 1.8700662541193498 10.649387097280615 -0.15508380048244258 0.26321025837874024 0.09438982503649551
Ni 5.712463077110658 7.034692747876767 1.2459391175401602 0.7676226462962458 1.939514497929492 -1.8279928983087166
Ni 4.359652550144009 2.806213776181777 7.996816817453361 2.1835006179712972 -1.0393424848078938 -0.031467731590978064
Ni 1.3597847823588765 1.4631820653642835 2.7969308658088474 -0.050843050793796314 0.692197278177395 -0.7912521127897276
Ni 4.628630357308425 4.90250221585993 0.7949202433635747 1.1194601161960915 -1.987551189622745 0.15951303989838977
Ni 4.91336756713677 5.38535099730264 10.258673708677994 0.38793190162955765 -0.6240478748946673 -0.4453829446581749
Ni 5.912989171230988 6.3848797351466295 3.378515044495449 -0.3609607723573526 0.6964236575539168 2.9371986837666513
Ni 8.431438297826944 8.923397258417157 11.284578318912134 -0.47686610286812064 0.7077660791499295 -0.5118192219045379
Ni 2.358756322701489 -0.13149118102480334 1.2477880845822276 -0.28600514478606875 -0.052442534070432256 0.28357236697486
Ni 1.5829145217850409 9.127415123546111 10.99785655731639 -0.8601257958329898 -1.1091008844489543 -1.3644535944564886
P 6.624734686239107 1.9404774450432762 8.693497569349269 -1.1879941565117478 1.6421381351920044 -0.18751209621447706
P 6.567761241723375 4.168385221171549 13.031873532903221 0.7589721697100994 0.19168936752061827 0.41033623746668685
P 3.346593199641597 3.8412452814884634 9.632698533719239 -0.018772138401180572 0.053273771722475986 -0.37609994199163616
P 3.722905818821147 2.2142192908444605 5.895547032112903 -1.0296728229286136 -1.8351189678305364 2.1006936126763947
P 7.19358690201926 8.374399846936049 6.022115373213047 -0.565894920703019 0.4593543192366024 0.9497745066400739
P 2.2491648608057813 7.248963047031047 4.91895440075057 0.24593758734122156 1.0210580846764092 0.07087657240590374
P 3.497212970888651 0.3390565369125215 2.986183925813831 -0.08265531020838668 0.6288532667031105 0.46207403216061066
P 4.323899043805692 7.628108086842595 8.431051045563486 -0.8302752881304604 0.2660364149736257 -0.3037987213240639
Ni 7.9170614244313535 7.974471340323165 3.7752768119755116 -2.3070516379527817 -1.02900562165826 -1.0959028977014418
Ni 7.161650198565371 9.182076198431133 8.457976686154996 2.9618560773040152 -1.8146460446881651 0.952267962485889
Ni 2.170609299736737 0.6809603530570763 4.863730556389158 1.29507031876666 -0.0026294672030470843 0.017581717637505205
Ni 3.472817006953389 8.582457393949984 6.277725083656942 0.4789967760578782 1.3987377124503393 -0.8966868827864751
Ni 2.527252847117701 6.674455276611926 6.96113989170758 -0.9872424216785449 -0.7666718523472023 1.354846153273712
Ni 5.393318921572323 0.4139457384225093 7.318933123266384 -2.12090196930347 0.013761058339834363 -0.6615947228001896
Ni -0.25938193752821304 0.24540092355617782 4.598090362257987 0.745663111306019 2.8258071819658364 0.9246435159004012
Ni 7.790781897369423 3.582900659975313 5.429031566760538 -1.022469106091323 0.7221043501494725 2.653447625122082
Ni 7.804628255278626 6.099789633567413 0.3639530499365197 -0.6594915604142577 0.6684233156862489 -0.05082376752008666
Ni 2.400081804053569 9.13540162106584 8.263122862598678 -0.05662777579637345 -2.2301412006479717 1.306293441175989
Ni 2.074567023749498 3.6464768948823556 11.573283703612782 0.4963506939552936 0.3511479000319888 -0.9279080455842857
Ni 6.235699390778132 2.58746732376644 2.5345790655982983 -0.13116637043489668 -0.26697923850286925 0.41110628286349193
Ni 6.39047028341044 6.784548216258872 8.550809504534309 -0.27136914004044876 0.41875300077547234 0.47685093335946904
Ni 7.520383236576497 1.5233779687629765 6.698054448120219 -0.7599070228195429 -0.32866617398970494 -1.5982486328979055
Ni 5.348538815711709 0.906207442988471 4.952635132383767 -1.457423399217006 1.4759543681416583 1.5868414195022285
Ni 2.257940721452459 0.9750770541585895 12.765295389644733 2.068146531978309 0.7280628817257525 0.33344894009032894
Ni 5.131742554551189 6.97445041135296 6.391556818538123 1.0603306570237867 0.5937440817048033 -0.34639341606613894
Ni 2.5740574372333156 5.706389624345655 0.8198381156251255 1.8280273510910774 1.6955111514965058 -1.553109831577738
Ni 8.42817869244389 3.0167972852019505 3.4324201881036034 0.5340924314804414 -1.2844881723754393 -2.5134690557121937
Ni 0.8823417453420191 8.5121855024014 6.422302048001569 0.5964342269424566 0.024299495977312992 -0.35926667248438127
Ni 8.67587155505573 7.366132394945473 7.781357830296145 0.43679623143042845 -0.032079397033047984 1.1359419159011985
Ni 7.859150030788303 1.2171607952565733 13.520149418009337 0.29098511449916337 0.8152734154049895 -0.98910030082289
Ni 0.4057800090398387 1.5096523369790724 9.355681295272465 0.4588046173807195 -0.598762360855001 0.8870560445649305
Ni 8.481511779950631 5.527371353778452 9.28383439211999 0.11421585862348717 0.666448194237749 -2.1041214074110215
P 7.492671947508046 8.383825771334331 0.5221785670773609 -0.43012293317531086 0.19683594471856422 1.0833543716124696
P 8.3770929681927 6.1954418713036885 2.7748166256417215 -0.05075640461726097 -0.18949750207562202 -0.0956650922044933
P 0.997996444715204 7.681051136098371 9.467339031235776 -0.5064630997989471 -0.4192186275579813 -0.08987291100274845
P 4.422671587549676 1.3279223719051716 11.993247175050156 -1.0958301354819773 -1.1155656662376916 0.17544642329919463
P 6.297919778431825 5.263380464251355 5.7312749934196265 0.06195124489181589 -0.11667023370125068 0.34742571398539523
P 0.269858179216591 4.998479485472009 6.6061187177181235 -0.18544647193469996 -0.33961084592666674 0.29630267005733485
P 4.083524041711929 8.485969359961643 0.288944050963736 1.464381318592078 -1.5500257933357757 -0.8537797990103039
P 3.630773211968565 4.824253113416643 12.315837597134504 0.7706400929663308 1.5709967391604878 0.63783361582485
Ni 4.016344596295986 5.3486966883371 4.910718093017724 0.6598836536463538 3.3094669107170227 1.210047022546729
Ni 3.048947581031367 1.454981975469028 9.92126833369455 0.7919694505717264 0.944070257166445 1.8372902644502425
Ni 0.7304116313042285 5.187768763314582 1.5233816834129859 -4.087041526019657 -0.45456795359155255 0.6957433436574404
Ni 5.428459510659126 6.294316567922925 12.520314221539591 0.18565113174633832 0.0867374506975603 -0.9138271420111874
Ni 4.181033604452792 5.063300128132125 7.579368164072199 0.3781663376023616 1.1629243580273134 1.5581749048054714
Ni 2.994249359646254 6.679971531875552 10.513916597433482 -0.1416878387915108 0.5201837918191493 -1.1457195641132527
Ni 0.43676761941638287 2.114388071847862 11.77680937761552 -1.545259482295384 -0.9824285452296693 -0.3852265868832527
Ni 8.275274411441194 3.3995362488973746 1.016137866697516 -0.12233823062030542 -0.6146124405133803 -1.0132591574572807
Ni 6.460965053959573 4.612081591517547 7.908754538348334 0.5881269926283419 -1.358077772837132 -0.3170072495945379
Ni 5.268701700389499 3.089734438132117 11.591538422420374 0.4482147576800151 2.112283117286207 -0.8933231085205647
Ni 6.108472627963862 -0.1067692565512364 12.639053009082893 -0.5262917044891 -0.8147705076266419 -0.5477509028041405
Ni 2.251059332310461 2.0125509418463086 7.874380095825924 -1.4389585076435993 1.6688218151307774 -2.0912239826230627
Ni 1.524371637640431 4.652339110991989 8.465383698273293 -0.22757399723236935 -0.10088417451158754 0.9819225521275283
Ni 2.075439966501654 5.760270622728751 3.4430626603798915 0.4042002997722781 0.07800367036898824 -0.420553801429637
Ni 0.8448014923492889 2.6187075303436083 5.154380560369609 -0.299942066582135 0.0702700491701564 1.0838778482161076
Ni 3.7168323660561446 7.129889940986919 2.3174215547243855 -0.6197374204447713 0.6220275020305287 0.13580181232437902
Ni 8.054085576644823 6.6217072464816304 11.431928269488612 -1.775861724831116 0.22812627019141357 0.5773661545674121
Ni 8.3195251796755 0.5257279151611284 2.1256527480006873 0.9919459978018013 0.981582138068974 0.12048652212354732
Ni 5.277626147036544 3.3994433826471453 5.046106870564656 1.9956514501323757 -0.46200692636810103 -0.17361836895152033
Ni 6.252192436818873 -0.0697397679347679 2.7198639507309803 -1.1457249634298914 0.6209674361971306 -1.0344843853846444
Ni 2.3457643342943966 3.3559819775397886 0.6241057773416367 -0.5449028918323842 -0.40914787358554056 -0.30925151690851904
Ni 0.01716075437988969 4.96922661664975 4.352973609427511 0.7148407266085236 0.048632159185406566 -0.3328323895522526
Ni 8.452277484378419 3.2237961569632696 8.204460180991271 0.26650512707992813 0.7461441647074957 -0.25501615260372207
Ni 5.454759232724089 2.1275379328803443 0.3006869883052428 0.3520732400597356 0.3825873494881927 -0.7501913381936758
P 1.244769931449772 3.7028188488965292 3.0284009231681135 0.3643410016834951 -1.1409450255427445 -0.2127338468957433
P 0.7162003090316243 1.9059962063331022 0.33629376596819704 -1.0694094793966034 -0.23036184439015164 1.3311421247885526
P 0.20794889350116558 1.1733372117733223 7.223382109742859 1.8261954400886613 0.038810030888662195 -0.4572331591285416
P 9.436325418309167 3.7702768930631607 10.252598398587986 -0.602309454776311 -0.7451967131925618 0.3148148699289094
P 6.27815784038301 7.590302236374208 10.56037386777324 -0.16863942767969023 0.8272002487495626 0.8592148539829461
P 4.506910563132759 4.612044445017455 3.0579221754535353 0.7551209142848092 -0.8676277606369897 -2.206289590841355
P 7.136511304628275 1.4972546925734482 4.297423804527794 1.9651419686896092 0.9770310283631819 -1.04831640617173
P 0.46546514806227013 6.481182036634511 13.227256694085849 1.532375170133548 0.30220849401880856 -0.7804794476542558
