# total energy = -340870.5460697053 ev
CRYSTAL
PRIMVEC
9.20133141769258 0.00000000000000 0.00000000000000

0.00000000000000 9.20133141769258 0.00000000000000

0.00000000000000 0.00000000000000 13.46707861462650

PRIMCOORD
 96 1
Ni 0.46365967893375387 3.7548700274775477 11.764543249152638 -1.2392822652627624 0.08178627733987205 0.09934356949734503
Ni 5.303730105367602 3.5690859495789073 12.062920336194683 0.05377256573576546 0.04685295579779673 0.18026029974807017
Ni 5.847344751608583 4.940148705036421 1.4157941068663817 0.42875510629350677 -1.3921556883574475 1.5832151356035509
Ni 0.7384417924254313 5.398816661803863 9.149048298232492 1.0978319964033545 0.6921797946758983 1.5873235013449696
Ni 1.922443325216224 4.653361614751403 4.549044282873216 0.3684804777731654 0.8058953166241991 -0.804747319062685
Ni 0.5535594449826412 6.418434572759443 12.235810588707787 -0.5689164811381622 -0.2474537668754319 1.0297594691051493
Ni 0.7343527208480872 8.90013480722629 9.769961487468416 1.0143567613968338 -2.0548708979153254 1.6679934056922112
Ni 8.3869765671982 6.769226122747445 10.25140917984349 0.03504259342642997 0.4332360248829958 0.38517285082718183
Ni 7.944171705388773 5.586744649867942 8.290966197111253 -1.844129913079895 -0.8759355091717366 -2.915344564006037
Ni 3.363399392333293 5.924635933538581 8.673875913723641 -0.2548577726489869 0.28906372910673445 0.89996401087585
Ni 0.916759910202881 2.5854084382207763 7.452654076167964 -1.1710978949770412 -0.5425580457492915 0.7055263911861333
Ni 2.9642456456519493 3.1266583423479477 11.924195546493992 0.24636336202473053 -1.9524677156560502 0.545706361570286
Ni 0.8930701629413368 0.4612286872354318 3.791817052706323 0.3015832017299839 0.25819840698644564 -0.28388012802326595
Ni 3.829759661969005 3.9112098455933313 0.7454808107797704 0.1913731218317801 -0.45687654712007125 -0.3728963474526739
Ni 2.941527558963239 3.0824643486801167 5.991880181950797 1.1541016175293608 -1.0490501990139611 -0.0003977496590509279
Ni 7.6629974271248615 0.24047771057841363 9.85030567108465 -1.100046744666486 1.1228223478001051 -2.767498418922614
Ni 5.890388578878647 0.6885006473012344 4.011155625026881 -0.12227909524759586 -0.32815015358523486 0.7390751736758562
Ni 4.182419082186983 4.118920695699017 3.1728701879440218 0.5490889048892736 0.8610393087861945 1.0974262763245035
Ni 6.662840331619513 3.3764652826119352 4.776247232955153 -1.5643334682076993 0.08443502781662877 -0.47645575480357955
Ni 0.2149016904245302 6.103482207725885 1.3504379716127415 1.0355907310749455 2.7434254371338107 0.3343832789791402
Ni 1.8593958039561833 0.4864513762719209 11.655850684297342 0.05463619928764139 0.5640691803481899 0.8762453271026717
Ni 8.104164451983868 2.0504338419598267 3.4687822383623717 -0.5521762855653458 -1.5870532784027183 -0.7290846381220477
Ni 7.060917522552545 3.168726828512703 7.23894487826464 0.9196851434538612 0.872163443723814 0.23693641228387585
Ni 2.638573729791196 6.854660482773638 0.2994435213260559 -2.2256104026571544 0.6863637022147534 1.5105056237539662
P 6.667275373249305 7.042110001616247 8.99000236861604 -1.0691731950160812 0.9888817570541809 -0.99964130956353
P 7.523772085007862 4.222702510102403 11.728707744730666 -0.3286918850213178 -0.13305998791318374 -0.26767729301115833
P 1.0915263141440237 4.200996569843729 2.3037860551282945 -0.17170135443446558 -0.5662224792457667 1.4582775196871853
P 8.029035582881674 8.972438867655566 4.172693275127458 -1.0453825203543865 -1.21588394094348 -1.0021177961284806
P 4.125177600902874 4.48603540720414 10.189784184384209 1.2227423586262103 0.22479334916343865 1.133391895785835
P 1.8013630081904102 8.155425067999584 2.2718022279391668 -0.6887052058637364 -0.5064720986600116 -0.9984238922166612
P 6.19604759941824 5.505763734133906 3.4743444430619768 -1.1253242882863521 -1.808070962573809 2.8372128526996168
P 2.3755996846055623 2.036411013238242 0.35289681456247657 -0.0727773889730424 0.4226055417523431 0.3912087726086166
Ni 5.291253100284617 6.3725935408100085 7.097110038624385 1.1275999716944063 0.11368415448973325 0.4231935530453292
Ni 3.158126894990875 1.4087238039860237 7.923853325872366 -1.1650241779791355 1.820473707113536 1.0101751192153183
Ni 3.6056888450214704 9.07294500815811 2.9180871677767315 0.5733724600269867 1.1469097277666118 0.7869786822253543
Ni 0.3116389656748676 7.4789247968260995 7.897162104379206 -0.006622390412524078 -3.062700913937235 0.35081957015829257
Ni 6.375832409386122 5.634674383995723 12.903669889768123 1.5900977216559968 0.354269476380106 -2.073615011292048
Ni 6.1923118589582895 7.468922949831111 4.770483519102659 0.3619910133940798 -0.37305395607646075 -0.5016335396207877
Ni 4.31214865052401 8.784142826344201 7.560835047009532 2.502943987811154 0.1804212508059667 -0.8839534943802067
Ni 3.6578695941554003 8.39096994493125 9.691300227325398 -0.8305557954853567 0.30241649626455663 0.15745487181778042
Ni 5.390314631791563 6.421130562795811 10.65920573690422 -0.048481492540155206 0.34931264659546296 -0.3875508641410551
Ni 5.343709889354011 1.8158643061334667 6.453315899137826 -1.646716498591306 -0.5091840982745359 0.42723147056012867
Ni 9.034078585244739 6.885816190156373 3.7607625599665915 0.6598962520518441 0.0061115122143765716 -0.19205317861794022
Ni 6.803418269420287 2.0382788834682164 11.22168495233483 0.5799244022128917 -0.5664117124384374 0.8460132676910075
Ni 3.9179452200186597 5.5035186093254636 12.469262162795516 0.5031900854746302 -2.453878854853387 -1.85788428655151
Ni 2.210675024496839 5.010253647313166 11.10277062866929 -0.6535867648940485 2.16369026811359 -1.4345701487679166
Ni 4.456600348752467 3.547849277210522 8.333333726539427 0.41592684418058695 -0.09607441182777003 -1.849616647226079
Ni 0.31271368115694187 8.13767570014923 5.700317600782245 -0.38642086430167 0.06302673734418178 0.5798259289618144
Ni 7.0890367906451734 7.076817422835288 2.5625964979540083 1.0768440812977778 1.6064900469710914 -2.5541896733600074
Ni 5.3298618859248865 1.2805492606187778 9.300498528958087 -0.1614719633969735 0.14007190045464266 0.1681740580074975
Ni 7.946766480782137 8.516807350178233 11.744409816392992 1.8709760867384617 -0.2282355420757682 2.3033423074219943
Ni 8.034418361623226 1.2927594270974812 0.12126158325010195 -1.4945493575350262 0.0649010715487592 0.15196839478191246
Ni 1.6010316256928026 4.868111483211428 7.0806396558083495 -0.9099195794266652 1.0244748236674424 -0.9693585994195886
Ni 5.862628162702122 0.07631584082469026 1.704339571540308 0.48947839231549256 -1.043345692430016 0.6040495773958694
Ni 3.6515482796332686 0.28962754122094625 0.3915203223326381 -0.8606179049780599 -1.0334317757504137 1.5117436099261254
Ni 8.962252994036934 0.4100573241321825 7.92195509124949 -0.09251137706686002 1.539333346618936 -1.2725957918132276
P 5.866170675207247 8.751376886004593 10.807545917690248 -1.1567971620836528 -0.3546883090850795 0.37250836798563586
P 0.2243983843376195 5.685971805336168 5.519347659358103 -0.4127705579397924 1.3163276854835393 0.8251166267476564
P 4.678766490145298 6.653031712579349 0.44342503153110424 1.3433471514951767 1.4782493348234218 1.9807282531636405
P 4.681342862876298 2.4500936618561884 4.583533632543241 -1.315713191827992 0.522106719873475 -1.8460633826571817
P 7.115702248411022 2.841628706318718 1.66893468941766 0.13516803539512207 0.174831415423015 0.04761117412005993
P 8.957624724452316 1.7116776331580668 11.766280460479827 0.20173646734397516 -1.2066410821889735 -0.8213435328584692
P 3.0200333166092794 1.7976272677304603 10.127458047488847 1.2680457105487002 -0.8235785928365752 -0.25684960626803505
P 8.169631923344811 7.595864514819949 0.3172416562316742 -0.06516126718868133 -0.744529254811892 -0.7505788034400814
Ni 2.2581446920655126 7.4636413857325605 4.321679389362473 -0.6941058080540174 0.562007926943787 -0.850866996238883
Ni 1.7043625748682636 4.3585509636755555 0.26983823824751224 0.17761489170542316 0.25243193681631365 -0.8846446069099603
Ni 2.134046338411956 3.6814065993193212 9.048394936431034 1.9800070587268996 -0.37690649705333157 0.6017569247069507
Ni 4.8391732966435885 2.2816356905735224 1.9752433239387126 0.9608019680988291 -1.5237347208497307 0.20079415803536388
Ni 8.661240645744323 8.981226138934513 1.8066896588117525 -0.3357081684381508 0.17874360599322764 2.9632611851816577
Ni 4.7072078048293005 6.92823432690605 2.615401097342088 -0.434684070183432 0.8863353643488218 -1.4218329037069062
Ni 7.201716292301691 5.300196794193659 5.872427580411104 0.7985301345083796 1.0361818276917252 -0.3514852287667495
Ni 4.04785881497933 6.078298164280361 4.572315369565973 0.6976289907159275 -1.0854277092017306 1.9185044713367283
Ni 0.4638335840930964 2.18980640537574 1.7449560876445218 1.0729167212189137 -0.3792652270934952 -0.7656359548835201
Ni 2.495345808609965 5.763704651162908 2.399550749672679 0.3480692611066651 0.5746042755515587 0.5377392842044093
Ni 0.9930168625080056 8.586130179304494 0.11671796591235997 0.5531021398137248 0.2159191866022604 -0.020548770685629127
Ni 3.5182761987911157 7.745367743867401 11.87151240467752 0.1349428067581934 0.5007997308655827 0.1761863867890127
Ni 6.7104572204871005 8.391227582204351 6.867374882201123 0.7505240389427461 -1.9949030020021254 0.21298504367460092
Ni 8.159004385829437 4.662480133952906 2.8461456397960316 -0.6641617121964175 -0.5551189131334375 0.2723996381874922
Ni 8.657219664017727 4.234461811353182 0.5338069473339357 -2.9729796980210024 -1.6839365592850288 -1.7940124275982134
Ni 0.9090123893475169 2.0055957551092463 9.953948545387183 -2.071519047994968 0.5652549731261749 -0.3822646760414513
Ni 4.282713592072336 0.8509878747798079 11.790561853336381 1.3460786914937268 1.1372287530334222 -1.989137817383574
Ni 8.211967248113849 1.1058527867946195 5.864899051237875 -0.6942765293039269 1.2216267569645283 -0.9667026498539802
Ni 2.535095559316821 0.5169997957966342 5.6970989751347325 0.056031794083587376 -0.22351191134785375 -0.099555428397835
Ni 2.424072297273089 2.4109327963449894 3.2698062119478934 0.2443185636805599 -0.034693951837759605 0.36414482651228897
Ni 6.17646716666264 8.01605250458367 13.115169848054613 -1.7246507491749394 0.9828360650807332 -0.12002269511325137
Ni 6.475234390146809 3.8697210432930507 9.51901542240408 0.4564865107705041 0.22285782270362264 1.444628561445183
Ni 8.983158418482763 3.6286277636585518 4.856605218568158 -0.7252074145548285 1.8140827159855273 0.7278741627537142
Ni 3.0585776929312742 7.259969920015835 6.5729580480998715 -2.6152595440881345 -1.3690219305534617 0.4427910155612826
P 4.3264659218434245 8.38173180842438 5.283189053636587 0.4728690658935857 0.44839010691561487 -1.0602802634018256
P 8.605793424040733 3.5889056169452425 8.822579547091365 0.6915922976035443 -0.5417905714556476 0.2823418370018686
P 3.6859428555921174 5.048181534445957 6.63865003194166 0.27843684552050757 -0.3081845090965854 -0.4713305177618721
P 5.6032058313527955 1.3303468649765333 0.04193322659637822 0.608035815737127 0.9592472220171996 -1.0414353627811808
P 0.925663118254722 2.109138334901896 5.442464096399474 2.3155589040928444 -2.031908632692197 -1.392654482370737
P 1.9113833251352885 8.834888167813718 7.888152160885653 1.4288782405894618 0.09454126301269525 -0.8637513084007188
P 6.87425011686042 1.0165630690031082 7.684611354071714 0.3348705030282039 1.3370579760523553 2.2851034158164647
P 1.7460722091169154 7.073412930297896 10.59075243357467 0.20272119985474765 0.7853779133971377 -0.5301894968816095
