# total energy = -340896.19508489093 ev
CRYSTAL
PRIMVEC
9.01825355762493 0.00000000000000 0.00000000000000

0.00000000000000 9.01825355762493 0.00000000000000

0.00000000000000 0.00000000000000 13.19912566062863

PRIMCOORD
 96 1
Ni 6.473509660746697 1.9071261048987662 11.2500239301566 -0.4319700136863786 0.3502955793340225 1.026092047555891
Ni 4.664430006061477 0.5035594258401332 6.050888156726059 -0.5152120496361707 -1.3475894717112984 -0.15339638547769063
Ni 2.700822580551283 1.4946762888100504 4.93833419987824 -0.0017342090822873358 0.5680261081134088 -0.6306062448384752
Ni 3.4292449385947457 4.372581291766888 4.943442138564862 0.46190099691785613 -0.47907930846935554 -0.13620676107228158
Ni 5.036820740854334 4.434879385776746 2.5828836671404383 0.6625977101434073 1.155427792539952 0.16335555357293158
Ni 7.173335137477875 6.0614476295512105 2.7004753777980435 0.2840318231097818 -0.17639875991013493 -0.7704495742220796
Ni 5.288177497693181 4.548897162639316 11.644360584430203 -0.406943409735054 -0.30999199461896937 -1.3330537399889686
Ni 5.582677578467055 7.804964582520787 12.366194206590109 -0.07800135637614308 0.08672922316744418 -0.49216442378808783
Ni 1.9642296849900256 6.277101121453024 0.34887113010587006 -0.14740237267778486 1.0465372027841202 0.4440002053780353
Ni 2.818402567479559 1.439123848291706 0.3937513696324275 -0.15337453110081972 0.8002304050289379 -0.027051604801153414
Ni 0.6416974230615284 9.009785191022377 4.578394065634024 -0.26318634711934025 -0.19294380875300965 0.08280160597826385
Ni 8.43320316431128 2.3224437255467083 1.4424930677361303 0.1780967164378481 0.7032532788812405 -0.009593557225706059
Ni 6.715496452374739 0.6703168500071399 4.6260032286185115 0.6330117689561743 -0.39059402184275316 0.13706756641068008
Ni 0.8295305052628487 7.341083667685948 2.6120937896792236 0.6525745215794503 0.9113815086841723 -0.8561637258614481
Ni 7.585361095660039 3.8467630130554276 3.869112048460064 -0.2638332366747198 -0.5909526350025951 -0.5654066682126908
Ni 7.513557762639412 3.7883517862311873 12.578238593508898 0.8465513995826647 -0.06572819543574486 0.0869181992497987
Ni 8.003050516934007 8.751727871958671 6.659829480039092 -0.07491448992070324 0.4228299990583234 0.39251052213917564
Ni 6.786172503729003 0.7475969682756222 0.504920280267766 -0.18270439041318856 -0.08547041105967859 -1.0111752783450587
Ni 1.6555078187133225 6.565180205855296 9.333471045051043 0.673058500465415 0.23354487010382358 -0.5208723332457417
Ni 0.32033376926556983 4.7512216761180595 1.398156628885426 -1.1385703546629808 0.34915015287566964 0.4828256628856652
Ni 6.474005664679897 1.7779215894269604 6.980422975000592 -0.32426675937042865 0.6064648717055814 0.5426488056908849
Ni 3.410324643106517 4.133462304698072 0.35732393895292275 -0.8794702617978725 0.6772159742772144 0.22722741252622802
Ni 5.906117234179788 5.451299663942502 4.8700155199446735 -0.13084215432625854 0.7293985698180405 -0.4707170525475894
Ni 5.456557305634417 2.9865839738475146 9.224868729313679 -1.0192349154247413 -0.7265094211957036 -0.4332851329533764
P 0.08844110859080412 5.626452180135244 12.49716900519077 0.4640959476866459 -1.0995968016132611 0.15950121282384788
P 3.921145566528691 6.009403289578585 12.567784634247717 0.6140912779025876 1.2119483533345 0.01620103523989468
P 2.4259372007721174 8.530654409804987 1.4019713500443967 -0.5244605648176323 -0.5334442563734814 -0.09406766581038638
P 6.341166793115739 7.622047350210141 5.7615239712241335 -0.35788624719708684 0.368227738332411 -0.8120037435147822
P 4.813564861394571 1.0420230993721822 12.617123498221073 0.3186676680160963 -0.39578636467697 -0.41003233307302284
P 4.248120377547136 6.211529401484049 8.102758129411106 -1.9679244165307528 0.38181267610569725 0.24705087501005837
P 4.5735620854993275 0.9877963420934799 3.7134948726327184 0.26869622119397596 0.5064751839838052 1.4539953473720635
P 9.224681149644397 5.5562901692208415 3.4666445369833214 0.1343303699851751 -0.7060046163741325 0.21745799184429
Ni 1.6091449783391654 1.2196195622175976 2.6351660890009985 -0.7018479138932816 -0.4976187620344397 -0.0436745580698151
Ni 1.8607632645246088 6.379846081651968 4.819687353580919 0.2476697395409799 0.5335805248410295 -0.318141106088665
Ni 6.044872079929016 5.62460343820241 9.0487395362852 0.1260367625178152 0.7134111932508488 0.6805589226075183
Ni 8.664133577355638 2.5620226435354 10.202580860532546 -0.09980302563226683 -0.6891816312795228 0.35526500752415585
Ni 2.3463150421136008 5.232607020668175 7.083112923854219 -0.2667743215809148 0.01331342927945449 -0.06560478248400314
Ni 0.48487631041450746 -0.06624267801679354 8.948095829112354 -0.014538817046123347 0.010853911995368403 0.5023112824141027
Ni 1.4447692748768493 1.240271362345359 11.494075901797418 0.1861735799087116 -0.058968765224724246 0.19969321166170123
Ni 4.019733111942091 6.973193041305209 1.646802498773005 0.3670491446432776 -0.8103227562679335 -0.8833253738779046
Ni 5.758533518419608 7.9166917230373075 7.848173739705129 -0.5725669334065558 0.33360706293474807 0.48576674779186024
Ni 5.318992869324867 2.696899640352342 5.02096033872128 -1.165517572675786 0.6508194865615565 -0.32299380619527596
Ni 0.8234792572778148 7.301637827616591 7.009698930788693 -0.1157361519227555 -0.0628596156386982 -0.1732848968715016
Ni 5.025863563057291 4.534476975563207 7.010055151795264 0.018434552556103736 -0.2538499002097628 0.16488613128484506
Ni 8.054003648253593 7.080870986076157 8.888779169653693 0.1802821541249411 0.3765200602481903 0.5573233769839241
Ni 4.305260030651719 0.49558638807028443 10.472331246865098 1.2377120925621652 -0.9109673039648892 -0.7761062582872247
Ni 8.308129008865027 7.016047781133647 4.807345873897583 -0.5297140999070876 0.8222961265797257 -0.48092278943599753
Ni 7.387879384219988 6.004389140726605 6.798302054459064 -0.2848149811327095 -0.6935944156352377 0.6902447824367144
Ni 2.5084452004965225 5.145634985544975 2.677890965981471 -0.8846502633369152 -0.19767361012851117 -0.9077331132983077
Ni 2.34761367059325 5.232408619094896 11.280738297350979 -0.060026517065277264 -0.18397451537486378 0.10989640531252685
Ni 1.0079521382880416 3.426972338755359 3.7039120766433036 0.23237553238607073 -0.5254584099545273 -0.5138755902129344
Ni 3.6289812133675206 2.7420540347801587 2.6272597863057983 -0.7292623013504924 -1.2083549795562867 0.5065937118395404
Ni 1.0847515836539867 3.249673478269863 8.323184080975631 0.047955959053988376 0.46296260541315104 -0.6976724423593532
Ni 3.4770056082351926 2.7622188492280513 6.993279396949124 -0.5659376010154963 -0.14964694573758744 0.18500012842590075
Ni 3.9719544057949827 6.9591426026156675 5.96513358580253 1.1891102723940619 -0.1989553050544122 -0.21066539440248883
Ni 0.7791220764444495 7.372476207530811 11.486657486607418 -0.1484092166757444 0.45093035683896526 0.2776742563228702
P 0.2560381321429176 5.4149290482589825 7.959547364691079 0.43605421105808123 -0.05285056814212834 0.14960040877036815
P 8.447614333134059 1.6220140258423597 7.946626011318565 0.7985545599884118 0.5676720672080998 0.13563134818478575
P 1.911220391910995 3.2173430400785863 10.555802396045243 -0.30726842504021923 0.023174381233934283 -1.2782501618855278
P 4.119060154128625 6.044664660102406 3.6949497364830552 -0.4092270635629081 1.0412389304996583 1.0023512522955254
P 6.94293680138004 4.109861535731106 10.307658842868195 0.6897642432558702 -0.6055122779843249 1.3423639616463012
P 6.36122338852366 7.838737941245007 10.156318122770362 -0.8215559059795916 0.1636687139379762 -0.19136643696356076
P 2.3321563843840876 8.355041962692368 5.8711561714918865 0.2466783221619881 0.8927950039312366 -0.2745297971566175
P 6.923322100385332 4.084412024831306 1.6196909237843198 0.6843623555140085 -0.8442556615699525 -0.07119307520505803
Ni 5.249029259983745 2.8814491765158814 0.5289782746786081 1.1130673252958703 -0.5477948686681986 -0.35981380323710294
Ni 1.327829583935068 1.0234725522705206 6.924525135379675 0.4295881437177634 0.26289761223432784 0.09481842793348186
Ni 6.936200166141857 0.7792456265150829 9.18102107979351 -1.2517063499587282 -0.30785900743636657 -0.5910752766233884
Ni 2.508598510803148 1.4257768333619736 9.166198678618843 -0.17064026015980288 1.2401214733346062 0.159643394828667
Ni 6.11684675976293 2.1845095408505912 2.725487503411295 1.1703828711878876 -0.35301374959613396 -0.5676453277352224
Ni 4.178274005499315 6.763852326735026 10.36420419307827 0.006896212899201027 0.6402298839711683 -0.014630605428981256
Ni 7.966165860810626 7.257051583148621 0.2762723871414582 1.1216735789076424 0.05162929414051753 -0.023861122888313744
Ni 7.587525476459454 3.94758708529489 8.225193543932738 0.7668106919179116 -0.9408754043782311 -1.0945384132537472
Ni 3.2220866413306397 8.357215361745116 12.348151387150976 -0.8063874257692693 -0.7244430255849781 0.6826528290220695
Ni 0.05497617413050006 5.005265872449515 10.181990384527435 -0.08840866775239613 -0.7095470823097522 0.329458073763381
Ni 8.592772138748227 2.219022396347946 5.710376947457934 0.118456379067396 0.5913845803336911 -0.4599263896899886
Ni 3.847141779695325 2.6620891824950674 11.483713928720212 -0.6050199117289387 0.41123869467629826 -0.42465728207504927
Ni 1.0823527282679672 3.5426134012174906 12.632447314280938 -0.4638300956197689 -0.5602757747440286 -0.23760772731928756
Ni 3.0330009237416573 8.257202932305434 8.207797333257432 0.8579943513122835 -0.2731699406946134 -0.7214777723090671
Ni 5.576445965415403 7.74587698669673 3.6423119954412577 -0.2638203811589134 0.21090502121712068 -0.07885110597094808
Ni 3.122353777744215 8.358054059304889 3.6122839173253594 -0.520361197937278 -0.6309271185130038 0.3403089004349558
Ni 3.381367031660997 4.330547212991563 9.126442610634903 0.08008266438520402 -0.029652275648794094 0.38196102875810345
Ni 7.354169153269084 6.288058299250068 11.330643507633514 -0.6123390710981712 -0.6981059303523461 -0.30428928780723724
Ni 0.43891478231357517 9.181573898722695 0.5426111682389299 0.7137176687476741 -0.8443343373266878 0.1892920709330353
Ni 4.644752177293453 0.3211526266680156 1.7162692023555952 -0.034643558215798405 -0.042159406976869325 -1.0156016895475284
Ni 6.048758947114633 5.578457035908194 0.35300690108342087 -0.7437160148819771 1.1017562711584252 0.7302526902882198
Ni 8.068847693236254 8.993552335026758 11.031512553774222 0.49801728302443915 -0.6596949346743155 0.9602039295035141
Ni 0.13180808520843648 4.802039533637681 5.51336689066709 -0.99665805856549 0.19292221148645486 1.7132137109825916
Ni 7.807011726026901 8.595342340947532 2.3679895121690864 0.2523090380852042 0.8068805633556039 1.3470156014856995
P 8.453277796225864 1.5111526376456048 3.470248231014349 -0.32018616154315177 -0.04274047629131994 0.5975799105111257
P 1.764709848297192 3.1005386229367677 1.5752101928803213 0.3299445264814963 0.3531199361566951 -0.62114612786684
P 4.4339414874303325 1.1873702883062989 8.12947290125323 1.104287265110395 -0.3362308737108403 0.695118822699564
P 8.52097782398093 1.5623222070451321 12.429708862974305 -1.0901541681431226 1.3927311012449435 -0.08912831952724004
P 6.165428090456488 7.674452420316001 1.2866188716888536 -0.22083642139821968 -0.1738842210183973 1.365043662632004
P 1.663516027671162 3.4099188217066265 5.831254909629319 1.0417451807121156 -1.8797772299698594 0.7958410177119907
P 6.840859191927582 3.825236442354569 6.027129568325803 1.2551847954256319 0.1944713011411296 -0.022022784127994327
P 2.185258055877056 8.571353787087338 10.348721655759782 0.9882155842250917 -0.8174593673127147 -0.8453607217086732
