# total energy = -381166.6654109856 ev
CRYSTAL
PRIMVEC
9.27616906461011 0.00000000000000 0.00000000000000
0.00000000000000 9.27616906461011 0.00000000000000
0.00000000000000 0.00000000000000 13.57661107559612
PRIMCOORD
 96 1
Ni 1.8680441914993775 3.716729018273884 4.717586839360979 -0.511847504039312 1.7276347715039277 -1.1941329224196338
Ni 8.043134244761536 7.737688551584465 1.6949174835553917 0.5285483617337607 0.3960275341534986 0.3553956195647492
Ni 8.12231562343499 5.60078387748535 11.096326834696105 0.36758907630714754 1.2018835128993302 0.4364807570725386
Ni 3.5911482422100125 8.742594492827733 0.9732148374358658 0.14378585897112012 1.033349757559569 0.12065930025598574
Ni 6.060585022996798 1.3368814777903093 5.91154110503782 0.17703613638381768 -1.2500384753380018 -1.1877437310638383
Ni 2.980915463855617 5.229922640446378 11.933922225964958 -0.5977534599745125 -0.07381817153273093 0.5205609726529099
Ni 5.233596003374528 9.029803237730201 8.431509816509193 0.5194052617819119 -0.10261349849786842 -0.6619631618832019
Ni 0.5066643513523917 1.8478314192255425 12.570325859948618 0.07719737241760899 -0.708642825327928 -0.22504428883198016
Ni 0.2777349934920644 4.341757286199995 12.619256723861998 0.2700411652576446 0.33981062064229867 -0.1842712206796762
Ni 8.46784364290634 8.015825203194684 11.798305562648649 0.03209353810043505 -1.3828110139177539 -0.5199940444058464
Ni 8.283971420780615 8.705508369123836 8.467460537126207 -1.9024073086645497 1.5810068150983223 -1.1793799324801755
Ni 5.197845648008139 0.8113243530142739 12.016983826135496 -1.0202325034513202 -0.471088319844079 0.2819096345604564
Ni 8.814865125588378 4.638483380507214 5.479370884157886 0.7825165326889427 -0.5917491627619615 0.27822472950970145
Ni 2.6460643149153267 5.098794715314239 2.953957989094262 0.4260456777821437 1.7294399430334668 -0.5350781924324786
Ni 1.7986769996390115 5.857576064202455 6.364701441154667 -0.4036390279521694 -0.30931270916375764 -0.08284300073916055
Ni 3.9753300579480326 2.4105145552322202 4.6432142267025585 -1.322031420736536 -0.10558929329674073 1.3217282876738206
Ni 1.0873247029013786 2.3558500912534646 6.131685930845222 -0.9594606235795863 0.7413112620952266 1.196566985782423
Ni 4.405039311189486 5.7025434515303095 0.14791129772279918 -0.0778198364929563 0.0866045246641218 0.6434954420963176
Ni 7.530542421411447 8.18151613405987 6.229845423697216 -1.0904578154264704 0.8639940205391442 -0.6066615610974196
Ni 3.3633811883266977 2.7756152913156837 11.122027388556539 -0.9779229440498317 0.6629777191906453 0.6172308519728338
Ni 5.387394885568279 6.421335235814347 4.478381341470842 -1.6305866829089786 -2.1224634002533187 -0.2729074310618461
Ni 6.655382256117756 1.095886606898051 9.773530291931309 -0.5361840239021476 -0.7385640383673925 2.7467498735213534
Ni 5.533040015201817 4.228986899539596 7.606961356953579 0.5529453025208865 0.20358174808283003 -0.21920042845669346
Ni 4.792282262700964 4.314661596520383 3.2092530021330754 -0.3983569536176236 0.0864299467594705 0.1735468922836366
P 1.5618193001254272 1.2108554456139347 10.128763039421424 1.732400054103055 0.43767272049811073 -0.18373771677370937
Ni 4.505166279488602 4.721050560869491 10.23174150207436 0.9711714842586112 2.0974347394194655 -0.49632112626893876
P 1.4219439476164066 4.343705281692195 10.823559229709153 -0.3061469098412663 -0.2375395930855135 -1.5349817545184596
Ni 2.8584700329172867 3.7042432947857784 8.963142831987092 -2.5295322798226434 -1.0730182797937844 0.05008688935406213
P 2.8128312813857277 3.4784149602256544 6.802275958100106 0.3619822716433314 -0.4097880782727007 0.31979818207611377
P 2.2938945584324717 5.856750485160521 0.7344944831849772 -0.2721690102339248 -0.6784434189264122 0.6070667669556384
P 4.891852660859451 7.1906172080224255 9.451969110332332 -2.53987762761271 -1.6052271210982678 -1.204972436237299
Ni 5.527381552105425 1.5455952805260986 1.0046471361278757 -1.0796699807823469 -1.3491910118704638 -0.2031711429079727
Ni 2.0406551444463803 1.0453407619599482 7.627557235007547 1.1218725822923261 -0.049522789320476004 0.6830590633215526
Ni 3.540713711300035 5.527650561006729 7.87901005884222 0.9451760886361142 1.6909351020900492 0.3115482833624957
Ni 7.04969364841522 4.933827325631871 3.737545669150301 1.952367185522444 -0.18619337740305353 -1.100020519414241
Ni 9.219649312698674 6.634687123055376 13.488702769045233 -1.1701129053559525 -1.9192619183280428 0.14187964308734274
Ni 6.960596045069564 6.602072112814531 9.019689430658074 0.46540335364415975 -0.8445634226183585 -1.3379182671701215
Ni 1.5771064266546977 8.370814915056725 11.089090495251028 0.0930389674355559 0.12725238009247117 0.7453332387704261
Ni 7.1607572199776905 4.226936866188279 9.549136053100202 -2.3104089844607887 -0.017249531109067066 -1.9374938679550373
Ni 2.430866470041212 2.831123886674393 2.708846354395153 0.05210777643883284 -1.64868802049538 0.1506761583330502
Ni 7.475599672362376 0.6573362369727097 12.310592200038291 -0.8191789211069826 1.0241369807120493 -0.5214721716132698
Ni 5.220043520450218 7.1578630552464215 6.671737069700132 0.09033339557893474 0.10447703406916846 1.0239428624233722
Ni 6.06893357510623 6.139951925050461 1.7570446255030783 -0.01526618213045113 0.8658323592994637 0.909587135787911
Ni 2.352529222747713 3.578476995341697 0.571318321738533 -1.416024267444929 0.8270051020196209 -1.102933579295978
Ni 4.935033227603234 2.6856828327590847 9.250301485576902 1.2502035401609566 0.08254475277245138 2.6596069598552585
Ni 2.7411172187657105 0.3993409311349457 3.226902768909315 2.033446152382646 -0.7935715049515236 -0.7147797914636013
Ni 3.40907559687232 7.143382955421062 5.145562376614374 -1.861121562541885 0.7121544380256122 -0.37308892307945424
Ni 8.897024154514195 0.7852518247765191 10.369598360206702 -0.9121901206283968 -1.855417313068256 0.8739534457447014
Ni 1.4048201396230613 8.451192919532529 8.764177355264415 -1.5686110125371309 1.0564624323176321 0.07789799802905939
Ni 0.3453536274939548 5.050883302375112 2.5729170841831905 -0.2795010251189638 0.30743888917981244 0.2566110078946677
Ni 3.75514163414628 0.11137246799052032 5.885501971008503 0.4554416144457576 0.986027061214205 -1.1237883112578002
Ni 7.18433724160233 7.29983482195181 3.9950131609713693 3.572513646934705 0.9596948510775795 -0.633558899708896
Ni 3.8026820003249875 4.81135406618651 5.471537159428536 0.8676105342458089 0.22304217080028685 -0.19249643680294592
Ni 7.018145397610579 2.7027231552313356 13.14735922941451 0.10612742518839786 0.3683490944016237 0.21780123411632168
Ni 1.2203171380046236 0.7904177232984552 1.198543186486325 -0.10819562057133623 0.09774434333102522 0.05642285887441895
Ni 9.074737000416963 6.719647555022358 7.124190561738381 1.8227360207851513 1.1845023413084053 0.6954954893126926
P 8.80384503680393 9.12632177628424 0.054074499629689354 1.477751569251397 -0.11487997457004731 1.8043238368265506
Ni 1.6231718819607388 6.2974705510174145 9.499853622381327 1.0955455143620227 -0.6069297271571419 0.8710565838128804
P 6.012209801607148 6.506388429471434 12.484847817750854 0.15746464200979335 2.846729276830484 -0.4610738730308705
Ni 8.248109751386101 2.9677433038607357 10.889921870427022 0.7379405458507806 -0.4235475939506383 2.21728851305502
P 8.829280292230665 3.1213937673503187 3.0406725446211254 -0.2383551470082734 -1.0995790610014482 1.7063218689587645
P 5.564458399640311 8.700462133182135 4.834522225907084 0.4217208251545447 0.01565519003875368 -0.12697238695820712
P 7.865152389957464 3.7263113008617097 7.452297008191151 0.3939894206775473 1.956647815175669 -1.184955883906056
Ni 8.847433754984174 3.094390839360813 0.8977504196849116 0.7038675154264716 0.4271018869607999 1.0668342624702596
Ni 4.469035601192784 3.2332272609406596 13.277437092214662 0.23737555670382343 -0.6702683393147876 0.08692154168390837
Ni 0.061015856900231175 4.922835065354453 8.63777934871072 -0.4311187214296769 -0.81908147629717 0.20072859490475106
Ni 1.3731605747902946 8.492573909488279 5.682436427583195 0.28608022099837827 0.4244392525269723 1.177424094305385
Ni 3.8210766434727685 7.600225003018169 11.754548018192414 0.6333524401250448 0.25967062065659796 -0.14142790026190483
Ni 5.891035205823253 8.558694442194977 2.4652680704334764 -0.5937312261889968 1.421718489616229 0.6630677078012903
Ni 5.610022941819787 8.273916053573256 0.1297745320735096 1.2767028720030658 -0.5791882953778155 -1.0031313249946594
Ni 6.2280569783119955 8.034006494455223 10.718082694741694 0.672676434535648 1.3255350630144203 2.324799963075138
Ni 3.5933930751105483 0.7090044983610806 10.040175625371344 0.4335049622736663 -1.308313042709179 -0.6977981693039401
Ni 2.8641656006897214 0.8242822335050127 12.397387458235546 -0.7030668739020471 -0.43408680291906526 1.3084662804575917
Ni 5.994241862233849 4.537790565898458 12.149111722286964 0.46069180710110336 -0.23935762013085873 -0.7120834755783607
Ni 7.192602308190668 5.850387033219332 6.562553777596085 -1.9391802545185248 -1.2473143915386196 -0.5353093346066781
Ni 3.8826240248573 7.317876970677193 2.725342165746489 1.1703905844973712 -1.1181961618820033 0.5295431215468621
Ni 4.492958841070811 1.863897743951693 7.412028230899758 -2.0472624894404485 0.041510460538960764 -2.013467138157558
Ni 0.9564657866705438 1.0507209399860264 4.23079760773044 -1.3888183964540985 1.7764481934622052 0.06369650971769675
Ni 7.229159690260967 1.8404012078481484 7.895682117404755 -0.5660751550346251 -0.2654535458869622 -1.6190627414297794
Ni 5.977535481845975 3.7666069790432326 5.3111976504654965 -0.04004621728860845 -0.4385299262920835 0.5758440614959308
Ni 0.11168971297067874 2.453574531778866 8.836921072644596 0.862601768177308 0.2576942136565175 -1.035813645719029
Ni 8.919212750787263 0.7722048930632797 6.620213516548326 0.0784528420912649 -0.9554083078870836 0.26995786151521894
Ni 6.366865571384811 3.7375447415334 1.646965255472619 0.6685025056636164 -0.32542658400648466 -0.6118233078040173
Ni 3.076524937846629 7.9941096915411505 7.49947560377845 0.8232469205287692 -1.3339276579534898 0.4568945448422002
Ni 0.38934307617545083 6.769386373256549 4.623894749504433 -0.5424238341642722 -0.7471618073387326 -0.7454792774299871
Ni 1.6615102884810509 7.412057914640592 2.5342512288968084 -1.0856475385220208 -0.12300903143508492 0.0789755473639543
Ni 7.713004665847579 0.501833322531734 4.1098298705154805 -1.34994768753083 -1.861789278032871 -0.6103480088100715
Ni 1.7172600642340328 7.810265297922458 0.16760553214894824 0.8047378059809882 1.5525891831875778 -1.755201882488919
P 0.07197750581991483 8.596531935588724 3.4448482150443334 -0.11799666582215808 -1.0062215338842089 -0.2138021402592576
Ni 5.6727112919926075 1.9834211816517218 3.3571429646671507 1.5114996122361195 -0.5375487654601581 -0.545614316077112
P 3.382935352600789 1.6000278402795924 1.0863831717468149 -0.4791716110728458 0.3779737619755813 -0.0008122114886502141
Ni 8.044108242507635 2.3454607819617275 5.103827964619326 0.6936813189220892 2.8745090180469135 0.0070193687406266215
P 7.95753375713283 5.305217304304439 1.1676591093828343 0.25383267381858216 -0.34113885253541887 -0.3735460652215309
P 5.9410337567897376 2.606547834930684 11.246335474232172 0.1390131201728251 0.21684684062285234 -1.0458239787671797
P 8.946104364748644 7.406631355769461 9.823193973196515 1.3391071452719001 -2.0947919024799795 1.0020069815822292
Ni 7.624704813036825 1.113585537370046 1.7164771555695482 1.0346818461074312 -0.3663127806978852 0.07901385680105748
