# total energy = -340885.6078804765 ev
CRYSTAL
PRIMVEC
9.11046071802571 0.00000000000000 0.00000000000000

0.00000000000000 9.11046071802571 0.00000000000000

0.00000000000000 0.00000000000000 13.33408016031344

PRIMCOORD
 96 1
Ni 5.019545074299648 3.50786452274303 9.789415235265954 1.1763375461094259 0.09256871266735671 -0.9574050266021381
Ni 4.314459176038827 0.5360422078283559 6.74179115275861 -0.3494370879884691 0.8489175858219961 -0.8266490042317827
Ni 3.741666280099217 2.883743290250999 3.151136227888058 -0.6422312306719132 0.006823964900368892 0.3985006782843395
Ni 4.874588531366464 4.963178652885053 2.8731077382291152 -0.026635600309657354 0.4208350801154817 1.1093392257120056
Ni 5.547077200627539 4.806041423766107 12.154694040894887 -0.4684557673172384 0.29814100881765426 -1.698111051013198
Ni 5.882633695462246 5.848642565949098 5.310710848535905 -0.4690602336704567 0.20824598632771876 -0.4260479917749888
Ni 3.517403175275934 3.164509473401955 7.466938285859406 -0.39318852204280674 -0.11234898061807748 0.48447888221837204
Ni 5.658889886908663 7.846885501292564 12.7486204729191 -0.5851152023852116 -0.012736730840378066 0.721163840613074
Ni 2.1083337445197974 5.356012615221547 12.152027408997675 -0.16076619557920055 -0.5062964923140958 -0.12409377985883145
Ni 8.0681785958716 7.257374909652974 9.438809170116915 -0.016899603968816058 0.04462226669506509 0.4590121054058353
Ni 7.842813125282815 8.965486108069147 7.527288711813293 -0.5604030443505124 0.8956124187753737 0.762914442187299
Ni 8.355240107485056 2.6513081020256 1.8932394075180188 0.4674898038595433 1.0815227177203695 0.5121377815862213
Ni 1.1781556894963492 1.4787371250437404 2.9085893391409106 0.2526527945778681 -0.39627538849824656 0.45896119756324183
Ni 1.8948300939862566 6.6373169427098215 0.899651633779892 1.171569178186505 0.5507472664283031 0.23142962353303367
Ni 7.582299496650146 4.217432767752836 4.300173973391651 -0.1583493586075918 0.13738766875426014 0.380154571676984
Ni 7.634721088507197 4.315288227978173 13.246635617068046 1.1077029756601633 -0.7568314692180127 -0.1582100048162501
Ni 4.598924206303785 0.543680418223377 11.072927027423495 -0.15811615955086317 0.20543962722717524 0.6962945881752202
Ni 0.23357035165004064 0.3560513876121879 0.8451929428718786 0.17215361148053576 -0.7403995489142345 1.0405272491446145
Ni 2.9710488367866477 4.863318891267894 9.891753953286365 -0.397749916161244 -0.41780477792959014 0.06221606851742833
Ni 0.06185274095166692 5.157550335587553 1.943295923732718 -0.702476548616216 -0.3508709922215183 -0.15391394854405752
Ni 6.3960719388212715 2.0680108447006615 7.509100587728584 2.3772707792803445 -0.25801045934535566 -0.07399609187149192
Ni 3.6790136406829954 4.5174584651870395 0.717473391908375 -0.81692174964169 -0.8739089656600112 0.9711133773271662
Ni 0.6419458491879501 8.817459339822124 4.966544968177229 -0.2708891150802367 1.4810785767421009 -0.0014277335854620571
Ni 6.82439114625391 1.0712444311643203 1.221497796048441 -0.8020954832621348 -2.1764683937148646 -1.197398223434467
P 9.269711727965307 6.011236961130327 13.207700240439705 -0.6796433527717843 -2.686509954893689 -0.9965117627956128
P 4.014187496161082 6.189537790854753 12.890455771957562 -0.3599387588507414 1.6069045088006908 0.7090454600829854
P 2.1603453656376117 8.752665742101 1.77099251040028 0.4303882710215556 0.4641442844260781 -0.5191995735290091
P 6.032017922379185 8.3807311770047 6.307700468363608 -0.4918142395375208 -2.447373963855333 1.7582018456575073
P 4.617218011734609 1.2580635418039954 13.352881811756424 0.9155122430230943 0.2753898311640677 -1.853775663699775
P 3.9762424266295184 6.32665022697721 8.681006501066793 0.8377569412194862 1.5075804796873713 0.9561832383798952
P 4.55339923332678 1.23545137791988 4.4287016222344935 -0.8648350283832008 -0.6020101783683374 -0.4846930551117072
P 9.022490261744775 6.028009319595538 4.399886145542685 0.11210472581775532 -1.8875085371758462 -0.9957843977112851
Ni 2.4126231376420617 1.5830610124881428 5.227612512830911 0.5705889837445787 0.010643852867091347 -0.5844194618697677
Ni 1.7441157397820166 6.726781668472115 5.165942892142771 0.16534944407450877 -0.26956036896648417 1.01225437034185
Ni 6.7414221790932976 1.316552700601748 9.88203400258211 0.0749581986744451 0.17840422037593792 -0.874650471811726
Ni 8.808895506602514 2.3920699379150006 10.685905539123288 -0.0072577100036778225 0.20382831687599734 0.6521567173157414
Ni 3.63599404444577 4.563284083372817 5.108112419666057 -1.289294078404515 -0.861961820600464 0.6733066119204791
Ni 1.3422442002605737 6.801359901169686 10.31148472925504 0.6520070791117545 -0.6668670269427225 -1.9262013257603539
Ni 1.2276619338743848 1.1367941971378142 12.202176851913269 1.1505838341840895 0.2125415283792791 -1.3639871963430317
Ni 4.115559594282981 7.287876732652176 2.0589687122852767 0.07183585099537951 -1.0018707131146811 -0.43531373334763096
Ni 5.35763427725675 8.740904137115345 8.800386336148138 -0.09305773648863327 -1.4888170830369394 -0.47702551126412046
Ni 7.2413040566749 0.6453586278305729 5.35582038449715 -0.061905736365861136 2.2025144400696393 -0.668487593265281
Ni 7.782629420762884 7.558594077461399 5.013854680439043 0.6841152725002089 -0.8340614946457702 1.9032326327793219
Ni 4.9471442417504665 4.979049075723945 7.382920704652436 1.1284780034239856 -0.24338139657827118 0.17157871281367226
Ni 0.54302719817886 7.6446150490141065 7.249793184115358 0.3649588377731521 0.1250484304626169 -0.9083818026259002
Ni 6.285862693653606 2.4887865905313467 12.056062369403264 0.9125076518688156 -0.5067798597084175 0.29405938254911296
Ni 0.7110878698832435 7.494383549236079 2.896669212136085 -0.09718435706249713 -0.17898040459438208 -0.07220711829186918
Ni 7.009898350528028 6.598797914143326 7.464418332382233 -0.23940467131871024 0.358222547490583 -1.3904698160145923
Ni 2.2392510672493464 5.3875894726036355 3.008248670618888 1.2419616118671386 0.629499899148174 0.4521184636097956
Ni 1.7256943878989863 1.6122782605044033 7.74751406037814 -0.505589181834426 -1.73234991759141 -2.0095372069755326
Ni 0.8246980500943981 3.710982247882577 4.1009901452566 0.6546591720226209 -0.3338297204685154 0.32490002207905333
Ni 0.7350265168703112 7.732111915228065 12.217084299037998 -0.8110511497935259 1.9752597738499011 0.8429405423029548
Ni 2.3981101734730865 5.399341967128418 7.545529676571061 -1.285346920831309 -0.18859401642474619 -1.0384500549006115
Ni 6.270493346162671 2.199192370795496 3.6227100814484174 0.14701747853454034 -0.024224419765003443 -1.2344771305646352
Ni 3.758256429346991 7.200516523351295 6.613383761999276 0.7255609412395053 0.76323248764835 -0.32002752447810046
Ni 8.051078260814998 7.390597178983119 0.9631205704902382 0.6755732964674688 0.4645376632097548 -0.8927829197463786
P 0.38639013336178224 6.032263904822727 8.471608024202142 0.1325820198355007 -3.231260894529242 0.6944531640911072
P 8.785937145205267 1.5801274440873834 8.66399180434239 -0.7261756920053687 1.0306351868418833 -1.1888660175937398
P 2.1187470012964065 3.2636221772276173 11.129076619869338 -2.537932073850565 -0.3998620774082404 0.1920503504044628
P 3.6975260971747455 6.503056080840276 4.43668876328091 2.19455481890293 0.6928961040166325 -1.8684409790214338
P 7.053883655617677 4.256361767058568 10.667170787386263 0.4541707181531339 -0.026607575285199338 0.061493588529106996
P 6.406394090989162 8.198412634035755 10.707586613906294 -1.155725783396345 -0.8702307454774756 -1.5659650902738516
P 2.208967895311071 8.88340085561311 6.491870256981728 -0.07986514905775924 -0.44216880859625135 -0.2410892581099848
P 6.846584228937917 4.335048817609376 2.1481874556040292 1.0882865188067645 -0.4974099884577433 0.8675490848802543
Ni 2.8403501651180245 1.954667600993054 1.0619180523697318 -1.4064957591292035 0.30681873909731033 -1.4688910335369734
Ni 0.8230627223678878 3.6434737328216196 8.421751938126626 -0.03729590823698093 0.001419763165662071 0.38233049628238025
Ni 0.25491433938078434 -0.0880015857462634 9.821483146489038 1.1761413709382196 0.9388750861187509 0.8063195486458113
Ni 2.7057339952744743 1.6311460249701581 9.643739876969976 1.03038501850429 0.27322213408878754 2.762750619824984
Ni 5.526159582465602 2.9289402866366143 1.2766980784714288 -1.1535388030473552 0.665748339957247 -0.5042210978423058
Ni 3.8740139451856583 7.065982347655592 10.921438284045141 0.4343814513413487 0.16122205216969654 -0.8362551598629792
Ni 7.491040010096082 6.386915925644988 11.77536633680102 0.8192025752560665 -0.11759994460437165 0.15538281978010013
Ni 7.524548285183019 4.360558108050763 8.432045847865812 0.19018604350221438 0.22270355651394552 1.3586349308921826
Ni 3.0613061726447994 8.538533469767296 12.942751639454581 0.565311023175091 0.18665669019271725 0.7836293061371472
Ni 0.2959023028435708 4.6769279722891985 10.550043969278546 -0.8456828809347822 0.5795749892932729 0.3826860798495861
Ni 8.108310176012425e-05 1.9408470318503452 6.192893173593882 -0.5213204765267538 0.693033143815129 0.022276294899697117
Ni 4.035423980453537 3.1116688003447956 11.845597057570508 -1.0564814584810256 -1.2048227980333124 1.290617168091313
Ni 0.729769780947211 3.33072983201021 13.221354088148457 1.5104390321820889 0.7931099919340728 -0.4999713214270164
Ni 2.5778686769370203 8.334604913610148 8.705981007455 0.9132926096639562 -0.33324659427153575 -0.7499869354923535
Ni 5.833564753206063 8.127196161399924 4.062640571262323 -2.958653768316634 0.638425740882894 -0.7661676590172741
Ni 2.9815531981719756 8.560917872129613 3.791946002605279 -0.07691352262860301 0.32842551873380854 1.4660054844590624
Ni 5.15843405029213 2.921333051808558 5.766483518759999 -0.4486546734309112 -0.44876831619064006 -1.2672206435442432
Ni 6.051031454218891 6.217761998635974 9.704170474979536 -1.6707228888082324 -1.00871858927445 0.03908950980229397
Ni 7.8788449980312745 8.850211446656692 2.9701796988194658 0.1441787235341646 1.454525765954237 0.11623571726699336
Ni 4.312190671281718 0.5943409579938852 2.1030514993062557 1.3786352852735095 -0.6042359823750626 0.5755735814433636
Ni 6.023435868237833 5.692953900108788 0.7953004149528736 -1.0343062079355672 2.694041230273728 0.9212997962391488
Ni 7.496478955236621 0.29811705588153553 11.929548132413116 1.567375854578449 -0.9431359182776338 1.0544574860724614
Ni 9.200016702295088 4.854709505743926 6.391984986074127 -0.9230080371795072 0.4823384388366015 -0.32954034906454216
Ni 7.23065392791562 6.327142191864294 2.996540817352378 -0.6195535865687395 -0.18496978940859757 0.3661880821945629
P 8.395481013156346 2.0227136332454547 4.1056565233152 0.7168215044839783 -0.6849274839888592 -0.6274221906835388
P 1.7164472701139832 3.624569526512377 1.915386937897666 0.1725577888974899 -0.8336627165454545 0.21243097094334384
P 4.700050321982142 1.69692355246545 8.595414632221154 -1.0736980794696283 -0.4302388899278848 2.0603545467377162
P 8.32888354418258 1.844048385086152 13.016289457520578 -0.39031557137038586 1.591925518893355 0.5259410060179007
P 6.174997495303161 7.929954683522768 1.7324707486955233 -0.5347848295617758 0.64526384685065 0.43683196976437033
P 1.7664181479964869 3.45791186578227 6.1265298434645254 0.42660257872687823 0.41520770662637524 1.1900353553114924
P 6.83845769784016 4.005833203541528 6.488883847907911 0.4172116244302815 1.1892033463285003 -1.1715750917237757
P 2.357340861071226 8.688537208023526 10.814032327687766 -0.5571721961180404 1.5835321526233375 0.9864088700336562
