# total energy = -340871.0069170765 ev
CRYSTAL
PRIMVEC
9.24963935653514 0.00000000000000 0.00000000000000
0.00000000000000 9.24963935653514 0.00000000000000
0.00000000000000 0.00000000000000 13.53778216616330
PRIMCOORD
 96 1
Ni 8.825561780425925 0.5235841538733994 6.643409089984767 -0.2726289805894789 -0.8364197104653014 -0.3219725640196132
Ni 0.27882020029615934 1.7214873575721588 10.091644999928976 -2.0893154527464404 0.7752444245075616 -2.070786026483685
Ni 5.302031957137696 2.899595408332718 12.996419281272349 0.4201961609799022 1.8858990265968814 -0.550844968348432
Ni 4.257294454583252 4.854460413577288 11.727523246476316 1.5048198862230986 0.42600299746966636 -0.3067570326214394
Ni 7.851426774192812 3.4547310066187595 6.875406691482523 -1.3040550387637735 1.072048459681347 0.3002745102208893
Ni 8.269010987336115 2.6350834749774035 12.204973899674714 -0.17440641207045446 0.527617108168743 -1.385516071553743
Ni 3.7924260856434535 0.22996545575665867 5.003591422084978 0.21688823538374905 1.3827081697913026 0.6121336399555845
Ni 2.154564716442991 6.513133471068462 10.02673103174044 -0.7582571459209457 -0.13525442446134125 2.3635994524408392
Ni 8.102304739307902 7.513241464288382 8.111757870611504 0.04581165901747594 -0.0995132623059899 -0.17171112462647847
Ni 1.2403858717656064 5.6128660838085125 12.86549618760922 1.1436968772562688 -0.9610115130064739 0.7261337830238398
Ni 1.1061828560278626 4.389527297162807 8.90985096793115 0.04543936327972174 -0.43630592205757124 -0.17511372255012422
Ni 6.18721318279669 6.030034063186001 12.601224744874152 0.0986084911035334 -0.32989284730795443 0.8155775769089695
Ni 6.14802246133547 8.911407682215296 9.224983401956942 0.3445784743445872 0.030608726024792445 0.06495763581830749
Ni 1.6923879925221248 4.328248437195715 3.7372131390901595 2.4133531268251986 -0.021401605604227658 0.14459087137091872
Ni 6.745891392911772 1.1510991041788368 13.383938467028928 0.0023538449441572367 1.0707487670333173 -0.7283732138773198
Ni 8.170724320768517 4.688096402200966 13.375274329952523 -0.018835644649264335 0.12620079889950522 0.9475934398283553
Ni 1.4766771557987173 1.968887458332889 11.863510517623515 0.9510526020215492 -0.6093419361430602 1.7799955444938313
Ni 6.417677194108401 1.7607890747042612 10.756878129128573 0.307797815181128 0.13244755114016543 -0.4172602182800298
Ni 0.9489112400247709 8.061994811498604 1.2704860477814426 -1.761696231964011 2.5585338092613163 -1.9001164557478438
Ni 7.531981233389261 1.665749031510015 8.526487645085245 -0.090261918911051 -0.9675097191363078 -0.1408591722426284
Ni 4.613507311367059 7.017895534051742 5.219099691709022 1.0428384137762943 -0.06729348304033572 -1.416693782708128
Ni 3.2896989432930424 5.318699807048745 1.1088458271651496 -1.4107707323554735 -1.2417744355569968 -0.41102529311391156
Ni 6.834724928175765 9.142805907090281 4.001524355273959 1.2287242872412583 1.3333386182192393 0.2204893224714461
Ni 0.9209819543386369 1.2648881661132034 2.9383347473990096 0.8275154659971362 0.24200174262192517 0.8498488393870137
P 6.454943990607634 3.8576915401231227 11.256273551424622 0.6187681145529665 1.1376169896107764 -0.11387878699904258
P 0.21995827106256086 2.2583364190800954 7.648683931684327 0.8552134461330368 0.3288700624703949 1.0126983998578043
P 5.507466444665112 0.4828737166849969 1.37305622228123 -0.6671812157490316 -0.5484134760888039 1.5024256749593092
P 6.769514971531538 8.992545517631347 11.506221002832136 -0.290904381859899 -0.8286390380786182 0.7258111095770984
P 4.006564483696008 2.005284788743532 9.66946926586678 1.9712668506404245 -0.8629948898506685 0.3380468438736565
P 7.8715539891797395 1.834591946202742 3.765209022178824 0.5957001769899096 -1.370324451414969 1.994693457094481
P 6.436296717899157 6.858126515453765 3.7985530466762385 -0.2883245369478647 -0.2282203725671166 0.8302855725431055
P 9.011821765808167 6.09733443829854 9.656580818549324 -0.269356223375478 0.49256628721219686 -0.191348953462064
Ni 5.373235680009647 6.1883508884232485 1.8983626589811762 0.012028134809127672 0.8410415255080289 0.02903623933134999
Ni 2.1571268665125585 6.47767960386033 7.839391143613313 -0.021582868377098312 0.3981440662758692 -0.884674174596315
Ni 3.408260819075412 0.7115229487777587 2.0715788031067244 -0.5829634461495316 -0.6700878478728653 1.05672956993609
Ni 6.687581667140821 3.690263820234164 4.413506061929403 0.28400456941627217 0.09603481683908621 1.1762025631934583
Ni 4.7867160557812145 3.799909043788869 2.2191401478353328 0.07613422126041726 -0.17553358369636218 0.6633464153839737
Ni 0.40610171099037473 7.357357294171337 11.659442201811894 -0.28643580456558415 -0.02069352379360952 -0.1351071002501996
Ni 9.101071534837974 5.697361538268798 6.7804249210154905 0.5822193688946553 -0.3401662042095045 -0.017222277415557437
Ni 8.393825619244938 0.47256221885989275 1.689812892957621 -0.6110391213398252 0.29349605384647515 -0.08936460390776223
Ni 9.071583684939847 2.5904632152821194 0.9294083756865648 1.229108410053554 -0.2524954430643974 -1.2098261647851745
Ni 3.607211309495367 2.656117154609882 5.88595705755922 -0.9712295911900565 0.609721430969666 -0.674534056569677
Ni 3.422338769999173 4.134671987174383 9.7037872773762 -0.10031390383041433 -0.1811180197626752 -1.5041686257923452
Ni 3.014420429862 7.564475216040491 1.6622905913980608 2.5606403140813576 -0.34434347551564565 -0.6960241081226529
Ni 8.049683541669744 7.573650858166884 2.4526398907457163 0.06458405452897265 0.0015120657691522345 0.16638688420008765
Ni 4.556797773184681 0.3233377889958759 11.215876677006468 -0.13896889719845099 2.5283827395992327 -0.9168515306598081
Ni 6.272069373187348 5.413610355293626 8.406624345061763 -0.04266180053458459 0.8126724874470327 1.733439808221479
Ni 4.33367797542978 4.634513242081816 4.493704133998638 0.28487694471889646 -0.8919678800442509 0.6374330379523215
Ni 0.8792189082046864 6.280986025415012 2.5919709064782905 0.33790466186883744 -1.415858431291026 0.654491278986189
Ni 4.7622970081867795 0.9501599413222135 7.418122799160592 -0.9463832215703379 0.3176009173144788 0.9364178828275098
Ni 4.777688407882666 8.3113373364998 13.043476820907454 2.036680085938912 -0.4878799374801211 2.8530156240598283
Ni 4.6141732853923605 7.258293657907553 11.049199102859898 0.001717239801422849 -1.2033765525050888 -0.8880767725199609
Ni 4.914601567917823 8.426190106946803 3.3055334007085393 -0.9628097425574774 -0.8432634728600121 -2.3001374273314514
Ni 6.67733306686255 5.723205030306241 6.252099402067506 -0.27994222642144045 -0.1039656416503887 -1.9902405635294498
Ni 8.782911693888828 0.2951115898901278 12.553666799756144 1.123910181547645 -0.2770965294425292 0.652733672865134
Ni 3.9072141086157743 1.2298227837531657 13.423590745488239 -1.0091695607689395 0.3449978212701929 -0.28293987559718364
P 2.071512205704194 4.3756435886630936 6.928582867475099 -0.44299130449754676 -0.25680898283808673 -0.9145511646614056
P 1.1094942268758956 4.2581916695895625 1.3171597273880766 -0.5493578422799442 1.701870260945314 0.08879639010911805
P 8.832831996868812 4.982419922827818 4.766585140938591 -0.4282465420882044 0.024630139843854357 0.09129858770568147
P 1.4861950345770023 1.08239278390177 0.37993633150736905 0.4043139425320069 -0.6165901330650413 0.7648142303131731
P 0.20572215130779062 8.465621319028271 3.930234610757072 -1.1590857010075133 0.28950107375446915 -0.0716738714962185
P 6.681689646944739 8.969994897163458 6.977007503789926 0.3892976716288328 -2.3894534373894656 1.9817057865855614
P 6.126702042886542 4.45223985121215 0.7569553267983424 1.162316035019353 0.6693036614086731 -0.26627449912636075
P 1.6472497530293833 0.07695699847942852 10.297973927570933 0.49767918295873004 -0.8159200478500528 2.251424535506781
Ni 2.6417062166734695 8.678020784903644 12.521689871938449 -2.7785549338470923 -0.2930754213692888 -0.944262061462277
Ni 1.9914843269969809 1.1172546741985208 6.458970358568944 -0.5158442839035309 -1.4288563862125907 -0.9679401218055071
Ni 7.009589358013939 8.215168837318236 0.3614842261868628 0.35661817911794064 -1.6814310192543558 -0.17566830950201356
Ni 0.9783343424482158 7.799184811763508 6.038108073278873 0.22905032466757974 0.7184094177963884 -0.13591468375315946
Ni 0.5180112462311092 3.020478943564407 5.486849923762372 0.6660260190986659 -0.19805927560270403 0.3977936249149859
Ni 2.699220473469754 2.8757775872889044 1.5291327848944727 -0.8407021398907393 -0.509450207451729 0.2487858554232941
Ni 4.089857485055052 5.147747974609226 7.154636650797029 1.4643478942509813 -0.7512724870729964 0.03533929873124236
Ni 2.8836860288393744 3.590524960305838 12.91222813994307 -0.5061666516044508 -0.5288180704553795 0.2482893754028498
Ni 6.598849877908469 1.400460128458514 5.9801119102781675 -0.10063966260094927 3.2000471879305987 -2.6671523763026843
Ni 8.929092992442781 3.5783801839833025 3.135688750086086 0.7832356702431543 -0.6819763717803352 -0.4240944675930438
Ni 7.073421118411358 6.98122996410313 10.60690632841394 0.19338243895232501 -0.8267153386933439 -0.5090766261623942
Ni 5.319856011953784 1.8863436777523097 3.4529199272555053 0.43269815010165474 -1.7462097062926376 0.5109339910861073
Ni 7.968351463829646 7.688512878253128 5.406678675646933 -0.546156047513195 -0.875750389744124 0.5517016599217724
Ni 8.534447884615462 8.7615912754399 10.23455007626401 0.34094422002610963 1.1009633429434846 -1.1553529734379586
Ni 2.554343374048686 6.132002086171243 5.5274900636925475 -1.1865885344134728 -0.9149034057945017 -1.3662140287910212
Ni 1.15997875784954 8.703512790649956 8.373131401372579 -0.5420620799494793 -0.8541068433324194 -0.8716656781517891
Ni 7.087045837012344 2.6463217866543873 2.0859286934241505 -2.068463548998096 0.47380340478239696 -2.8979191694407382
Ni 3.735883040967402 8.66795717741018 9.243150618388848 -1.933754712627579 -0.21282872060239477 -0.7980981891772835
Ni 4.980717989207601 7.567157611420183 7.407562486039923 1.0324807246910543 -0.4359724499775524 1.1855274401388098
Ni 2.205974211340667 8.373800150289654 3.6666541160732575 1.0359673976880739 -0.6909490075925907 0.5414709833326997
Ni 5.689869330484143 3.171784542257495 8.78884996228111 -0.212569296293421 -0.18621008957360188 0.1268785416928202
Ni 2.260112349814236 1.5186797675889918 8.625407911940803 0.02308927771929572 1.3015261016943327 0.5584605759121608
Ni 7.581577798995835 5.302161452087059 2.657060617812394 -0.9497230845768483 -0.02029191747981667 -0.1659420833531852
Ni 8.173748952800102 3.9249641663179404 9.54406820683012 -1.651353226032369 0.22515664604012836 0.6575380362323127
P 3.3651852491332606 6.031698998249258 3.242014278117442 -0.7169330903611782 1.117289590907334 -0.06926114828966781
P 3.2816425075147273 2.4200848604755003 3.5872283888805887 -0.942090507732255 0.26102456358133114 1.1479281417287972
P 1.7553040386347538 4.133737773611111 11.126810975797541 -0.4530355761074262 -0.024152943097119694 0.20460890379576374
P 8.702051347649986 6.749896486702829 0.24197148749058872 -0.05327737126690179 0.7622922352222677 -0.18640395075196284
P 5.426763342293356 3.407733589638714 6.587322052523264 2.0460630698157085 0.3613274116681519 -0.20646961115358634
P 4.161745681230788 6.224452230378201 9.21286637455213 1.098766849512798 0.2050385351340146 -0.7313901463267727
P 3.5178505447946753 6.556024048225806 12.908437637782386 -0.6503402329322929 0.5593157248236045 0.09849022035811425
P 3.1012467934108456 8.15847779841434 6.595282292053479 -0.807278570124971 0.9544037778819693 -0.06342474411354883
