# total energy = -340892.13661773765 ev
CRYSTAL
PRIMVEC
9.08377649725429 0.00000000000000 0.00000000000000
0.00000000000000 9.08377649725429 0.00000000000000
0.00000000000000 0.00000000000000 13.29502510592922
PRIMCOORD
 96 1
Ni 6.37326848770799 1.8466227738047947 11.389289947680064 1.0433773169988998 0.36293486536458786 0.7520566735371887
Ni 4.488884454651757 0.38708242960114125 5.959189074105099 0.17354303562889467 -0.5414594133684739 0.7226244843190007
Ni 2.577794118444397 1.5998438154011758 4.7551780902865195 0.0531470163366246 0.3723448458245781 0.7778371249354024
Ni 3.648853131453279 4.564243465176159 4.789811805260771 -0.6742586914211033 -0.8658105049225927 1.0353806719466685
Ni 4.978690771730622 4.60936258345903 2.5482445932231004 1.6627979775342006 0.8212376034082244 0.07327669720696413
Ni 7.469698488710442 6.239491709984646 2.5607811132839404 -0.06344557004915524 -0.3589231731020335 0.2986919962251179
Ni 5.420098727180507 4.232122425784503 11.740810300340273 -0.5690586631429813 2.0892761148680727 -1.194843061112781
Ni 5.746869422165356 7.789492843280302 12.394952127942041 -0.3335566693127868 1.154448202235502 0.3420037716388755
Ni 1.6681356477447693 6.495636042044323 0.523326361044161 0.3788847038256249 0.7753914916083872 -0.053780536155565446
Ni 2.5972061490001646 1.741723321835678 0.3212986279718423 0.3479085671590847 -0.5759055108614857 0.8141544713091978
Ni 0.43828404468333065 0.09484916155877447 4.892821831700829 0.5648749640789368 0.13853232388166464 0.1981405224626007
Ni 8.772439223443632 2.2002269448129175 1.5265876991555107 -0.47597624406399963 1.169319720030696 -0.6380896976997139
Ni 6.759919437921486 0.865516766776981 4.9545906040808765 -0.5511360172262896 0.26342905925776566 -1.3273960274825591
Ni 1.1162962203873195 7.707884194467473 2.6749323917018395 -0.017174969117389777 -0.30314283290761984 0.2910825593089761
Ni 7.704713956440351 4.104667956562241 3.864717273015324 -1.1073003409051059 -0.21551860872973205 -0.7255324019944149
Ni 7.502899692117709 3.7799229437551825 12.63753347318711 1.4215212860037583 0.017481187503898925 0.15921299215946774
Ni 7.812265871171415 8.987697477107657 6.764482218898633 1.1081233510270334 -0.39463785289482356 1.8236731878874397
Ni 6.723111975211158 0.6823778387293057 0.5825653016461178 0.3427684177190419 -0.20675757470765035 -0.9339151710103141
Ni 2.024801051461031 6.295638533038085 9.482144695642273 0.14666806561492157 0.5042756052293251 -1.0615853553664942
Ni 9.047595899889467 4.8661155285497015 1.2296090662266987 -0.1980482198591105 -0.2348841577405374 0.9676750410695787
Ni 6.3025785383467445 1.9854410475311575 7.0817149484723645 -0.07775221647981448 -0.3271299398508366 -0.3017678069369642
Ni 3.583849626232375 4.1568270016961755 0.5703512556539395 -1.7005769960551875 1.4534543872669292 -0.2504043648633236
Ni 6.094650892384407 5.786193090988902 4.770175405423427 0.368845574422068 -0.3069426662696843 -0.14216374998666484
Ni 5.208146968192337 2.9221873399983562 9.03694789698003 -0.36079365065186897 0.14140373189218874 0.7842862229948557
P 0.010375489611978258 5.687543277308213 12.411570897198837 0.9265165645533978 -1.5683806416938795 0.8458111789825304
P 4.062464730562197 5.938037500333875 12.627881052191059 0.7359841934553584 0.8074145814822031 1.1077374284425245
P 2.460822327397782 8.78680975799638 1.308855024750545 -0.08712620149554673 -0.5246598253126319 0.6073202777273411
P 6.383469568809595 7.780508988240689 5.779001465068919 -0.9624603296378585 -0.3778997142045362 0.2246527098205163
P 4.731339535402336 1.0104429718770913 12.802936327458399 -0.38253129943927666 -1.096131211662164 -0.7547671304898163
P 4.018399330362839 6.022998062705468 8.25172989843275 -1.002720462709486 1.0019781852268226 0.056350867985902955
P 4.603612552882614 1.2133382056129924 3.9420946986962493 1.6467054428477124 0.6948282880423388 -0.6000358282507859
P 0.30413119860949095 5.876295070905916 3.624157068059753 -0.4568148406442004 -1.9030426282557031 -1.4683672998230195
Ni 1.2569585007598316 1.1277054437743312 2.8388073547520345 1.4891806370239449 -0.6964054027214716 -1.1519256929239645
Ni 1.8388288934974253 6.41495393844286 4.925248188965649 1.2034883954926048 1.3703491340053173 -0.20000714335769423
Ni 5.866012235815074 5.410842358843434 9.188218211645019 0.7630681941563439 -0.23766274892693906 0.7600450910593038
Ni 8.745260563910241 2.1207166483905344 10.102637489651281 -1.0217527967505888 0.6585880747633819 1.0163758487093915
Ni 2.1933959448232416 5.233272694218192 6.975501074031831 0.30844264785397846 0.11948122078748454 0.7806691950675587
Ni 0.8970011364102473 8.899121571656423 9.274689406062201 -1.096577555170963 -0.6226713062621148 -1.180074901664671
Ni 1.3151945924271338 0.9195870385037709 11.318201220526866 1.2900702944489073 0.4835280882693285 1.1594901355347838
Ni 4.189310586753463 7.060074667521028 1.4972988783221177 -0.22399527874217554 0.026370262463412647 -0.17165378902598177
Ni 5.825044403430183 7.613985195939178 8.020024558889327 -1.4819396391908155 1.019728310121392 0.08156567668863372
Ni 5.58523270166497 3.167040537766588 4.788495566034037 -0.7455816073358064 -0.6622560105332724 -0.13690841512499646
Ni 0.7556766487249063 7.5362553197268705 6.945613632321682 0.17109148876460858 -0.25589007056824314 0.26635985975131543
Ni 5.130489762192685 4.70594129607902 6.9670322691244175 -0.34919720406352117 -0.5897151630510683 -0.7848120135913387
Ni 8.123793989051642 7.346150043418446 9.020421782244368 -0.29631706823503806 1.3429224052529323 0.6763207161564545
Ni 4.650784604673022 0.5662099619101986 10.478939293204887 -1.364423512549502 -1.6009323503776556 -0.13559663829210838
Ni 8.283068927640704 7.275759858684407 4.785650527208549 -0.7502183347768693 -0.19149139257719922 0.32300306216665664
Ni 7.315029024848462 6.105633178272064 7.1114824843316295 0.6976050794565276 -1.2931183372466115 -0.9483652849973732
Ni 2.5009544523371265 5.219883207536301 2.7109622831367464 -1.0119985455773024 1.2799098089761378 -0.13581852449492737
Ni 2.242021400866771 5.244027885691299 11.811659215791703 -0.005182315531887849 -0.8408695187065389 -1.375267140132225
Ni 0.7924995538554229 3.3536394763143527 3.6898881837848765 1.3875130473791137 0.593481572072036 0.9282731422331884
Ni 3.61361716209164 2.8290604624795317 2.8318800667305895 -0.3647408082250751 -0.8685682701733881 -0.21746467671250935
Ni 1.100426862698538 3.288245368700422 8.316237429452276 0.13771754128985314 0.2540931265688205 -1.0327784584371311
Ni 3.609856478586686 2.751966450627965 7.034836302665556 -0.1933374446470025 -0.22430072579773627 -0.05371291614242363
Ni 4.180708250330294 6.835641799509169 5.869487688735353 -0.2779614485459858 0.9192717100655264 1.1123888111716067
Ni 0.8950672003759361 7.320442955691342 11.339287391106701 -0.6158445131482684 0.7450236779498073 0.22266267597368106
P 0.1587807811430005 5.828087468585157 8.246465849903473 1.3951348255904295 -2.3750112938222068 -0.8152872993620605
P 8.616171014903218 1.4421585377139663 8.139852289293328 0.2333309543208046 -0.6171367495971307 -1.0519702008742335
P 1.608010130548408 3.0062486084883284 10.614920703504685 1.732961840143796 0.8771202735084572 0.028985845709388787
P 4.201837114660063 6.3254787391100065 3.7060146123509288 -0.12357004614487749 0.2291721949574247 -0.5803193236584651
P 6.864437371274159 3.6687556859444754 10.191474099490419 0.8600468629659381 0.6763582542626093 0.9198643493442029
P 6.426853685765301 7.912096575807767 10.221507790003537 -0.7537579724990114 -0.4409205380114471 1.0349533546012628
P 2.45869672367759 8.538050536297883 5.72120866169882 -0.43029005488079447 -1.063713971673723 0.45541873162762214
P 6.8869833047507205 4.018290325043854 1.554521220522867 0.5605573105401894 -0.06411817063614764 0.3868736355683724
Ni 5.326980933438265 2.853677497016794 0.30124437441172636 1.4230284666769042 -0.48173294404211864 1.5538217700430983
Ni 1.5142019697859326 0.9028601723056473 6.961621063414511 -0.24843824227588826 1.2310547351466474 0.7822185418325496
Ni 6.747401993791469 0.7079604787172362 9.241172995607537 0.18195671361388663 0.30677245924040714 -1.0947772687374309
Ni 2.4882371651223054 1.5555059019043576 9.14087538485487 1.886254610164087 -0.053011776310340965 0.5722239482448404
Ni 6.449590378550085 2.0497814370615743 2.564224772986182 -0.1349713460032837 0.45472042000901686 1.000523197947851
Ni 4.43828781908993 6.800178735732979 10.669364318448997 -0.7882104977499264 0.00106083716434656 -1.2300589468922816
Ni 7.949013043837079 7.250134524946541 13.393275525103405 1.2776415817672513 0.9456553422653778 0.0115967036986639
Ni 7.847056735480535 3.630703745842412 8.2161660047365 -0.32271664127448935 0.6894724230470642 0.23491578230942126
Ni 3.0218636204328138 8.269588603192993 12.467662309215125 0.8147522527941968 0.01748710104116988 0.20047431280209987
Ni 0.015505098247842488 4.625304611360468 10.333518022281055 0.3615886357493385 0.20870955622769863 -0.04815084867361385
Ni 8.618015021549366 2.2945619646171496 6.064007680462635 0.8084255392452205 0.6315089591584027 -0.25335342018931856
Ni 3.7980541618128854 2.6725651595245665 11.62838766460593 -1.8254007121015081 -0.3984040048054751 -0.9415804008650558
Ni 0.9619174373759638 3.400620768796537 12.804425158440191 -0.2445813304236433 -0.31221034242652684 -0.42481257670599093
Ni 3.284838952482166 8.386315132271893 8.067939663604143 0.008214931710624561 -0.6307232300323138 -0.19269106931225524
Ni 5.677614709504069 8.14802950497246 3.6720730811522273 0.8872776736574333 -0.5394328698567484 -0.5113409967165388
Ni 3.3782292595218686 8.45939411487421 3.7169569296216247 -1.7100898206416288 -0.48612850200665314 -0.3492398843759985
Ni 3.1605728888401927 4.212619557462915 9.223118081273123 0.39871870783241653 -0.6410384959153927 0.6484988088481799
Ni 7.377906926349174 6.097203433603953 11.186912489209337 -1.0643883720329281 0.14176368633476874 0.04068822174798154
Ni 0.603864940975628 0.012633716470267346 0.13093173889785698 -0.23318697254377257 -0.4797537088285609 0.7044670966836835
Ni 4.535293469209274 0.5160002952307654 1.76468892579033 -0.23895421404485298 -0.10262943933746842 -0.3950258323618616
Ni 6.086003137078327 5.769978549790004 0.3921357345137166 -0.5611869737043884 -0.7953545649938754 0.2936847728185136
Ni 8.179304947744338 -0.06284792503799158 11.132057379185861 -0.47314880191753345 -0.47230522297031563 0.8738822261871337
Ni 0.03202303758457972 4.910008336994002 5.672601373208455 -0.033492218220174584 -0.46088643961041276 0.9534743240891643
Ni 8.110913193858343 8.961399943902721 2.580857167907853 -0.22856387194946445 -0.18680658550702023 0.18347186470683238
P 8.449783479250437 1.6890919203194794 3.850850888062877 -0.8293144668790878 0.43585675033529453 -0.8169916836476768
P 1.7918476010152402 3.458057488124622 1.7869977726981023 -0.5136871283512121 -1.4516301895739967 -2.124083195244929
P 4.694059716309744 1.0075543309240103 8.192727136021926 -0.5145481907999268 -0.23694463981399191 -0.11170491927617537
P 8.388068301152222 1.6531928352673535 12.707158803932943 0.1251348195288361 -0.16823833558652962 -0.9994240513464014
P 6.474697937022777 7.828362323274747 1.5548527783681105 -1.4715382413518334 0.28618872155178454 -0.37290534631373845
P 1.7623707460065996 3.307875409894158 5.932838854995988 -0.2636864266842104 0.1221101737698994 0.0924085329404086
P 7.0122849189230445 3.8624672215559586 6.236935535254467 0.5218480668954496 1.8533660869661823 -1.4608586501508
P 2.6918318496550215 8.2937787002309 10.255981630509945 -0.019195856202160487 0.6543640093797053 0.5700405674402763
