# total energy = -340858.91389087046 ev
CRYSTAL
PRIMVEC
9.41783154627112 0.00000000000000 0.00000000000000

0.00000000000000 9.41783154627112 0.00000000000000

0.00000000000000 0.00000000000000 13.78394843697135

PRIMCOORD
 96 1
Ni 0.14383853800522656 5.02991303162335 2.960419938036989 2.362886485534214 -0.32919119325523954 -0.2769648889606714
Ni 0.08410876810168777 6.0405216767006005 10.089009097209694 -1.046392963896772 -1.0704052676509692 0.30599032965874395
Ni 3.928657759930483 2.65208955790518 13.392469774552987 0.13906094269162503 -1.1078999221623178 0.722237276182911
Ni 1.1195352823173772 3.3202093485924573 6.00256499106435 -0.6982203444430233 0.19447721467840054 1.219481171376435
Ni 1.2190911773774997 7.246616246833471 4.072908798948257 -0.27995919570230493 -0.20568182514496836 -0.18055931904572775
Ni 0.2126536897992677 6.8394928159798125 6.828884570762169 0.5095417387242708 -1.0137726067585897 -0.3100596146321112
Ni 1.579765864078617 2.3953029686790615 12.53293067838127 1.6230392095790243 0.1078202395097885 0.5998576508017088
Ni 9.204847081008207 8.717361295358595 5.526026492560502 0.9079958800413911 1.3090378366903455 0.2313136667804597
Ni 2.1216584613602727 3.0808740008332203 10.143965910191799 -0.08932346625718166 -0.8405136780290171 -0.44909227518896205
Ni 2.724296070763563 1.6380810757153852 1.8667045821122739 -1.2535727137435055 0.30562497589952525 -0.874362508257662
Ni 7.358076280703167 7.162712787454924 5.931522522159183 -0.30146647364646145 0.6149202015617862 -0.1565866102802142
Ni 5.6884077986845325 0.6251292742015665 13.128962620885007 0.9314937060530152 0.2499719053115953 0.6762286706632805
Ni 4.127298658483894 0.3631195557161212 5.716768655971833 0.4988865730032698 -0.2264486253786745 0.8896088928937711
Ni 6.645617340082766 0.3846053961276398 7.185627312880218 1.4237887418816964 -2.3214696131503243 -0.6886506984767171
Ni 5.247031715259341 8.031206357661562 12.1903580052924 -1.2232720058774351 -1.0276491076303655 -0.19042592742716236
Ni 2.854309232366532 5.859011813348625 12.927772315388756 -0.09058896323316656 -0.22169876939851496 -0.7468075093231074
Ni 6.837515071399109 7.236162454049749 10.66739767448728 0.4702817647823836 -0.8779556249255588 -0.5775826414535924
Ni 9.738979385268435 8.33618398983751 11.160407959998993 -1.3212413207350728 -0.03238150165449907 1.1632488312462677
Ni 5.262213259374081 6.3849694400086054 13.957074413886197 -0.8593117845721265 -1.654760966162337 -0.7111900172298139
Ni 2.829841706553818 9.0723852832577 7.796049701666414 0.8444330676880811 -0.5309752260076984 3.568445647512919
Ni 3.0966959574788553 2.113059981349877 7.738735605500735 -0.6119642042572556 0.2986696276276147 0.2401783162599412
Ni 7.924502328616894 3.5859522954197653 2.5419254176274135 -0.8753989199419762 -1.1779460282471261 0.4951895837676568
Ni 3.329627179929145 0.31490214283854906 13.58504558972557 1.5453867519018676 -0.1528338281060013 0.797679099361994
Ni 7.619072640536785 9.392770487500469 10.02503753607211 0.7221935674291692 -1.1114524154002665 0.9436604233225361
P 2.366361972981421 6.512185505704579 7.496069170797712 -0.538974185052775 0.5299508985082422 0.7996755609667324
P 6.373197150837746 4.96168084358905 3.744643695226082 0.18771084248884445 -0.05325783088287602 -0.33753725122708966
P 9.214924160538464 7.505408834134305 1.2879628361595608 -0.8167793105265547 0.08763965079685551 3.2840615832700406
P 2.4653057090046593 5.991850324352601 2.828479888142533 0.6805393822234924 -0.36184883138926066 -0.13691895664795775
P 1.0847363955283174 3.243369262716425 1.844843912013555 -0.5971356238848555 -0.0004977655720249493 0.4327822251750289
P 1.003950238322213 4.4501136632115275 11.78604768065901 0.8968563184848038 1.2041635671827584 -0.5392238391697358
P 7.63202215862473 8.426444485368322 12.367454672880005 0.3115637099814634 0.05387258164873948 -2.1391881692071673
P 5.555767062138628 8.335939126222756 8.402432782592303 0.032669208098246964 0.12525026206077783 0.025317395718866077
Ni 5.2733922251707295 1.654298581277161 1.6599455129466387 -1.9884983840273625 0.1911034131101612 0.6499231999995323
Ni 7.514930261615696 3.660588608763013 5.266446574559922 0.22003757964600817 -0.35316158802790787 -2.1852574527614044
Ni 1.550146784524735 0.9217994373554224 6.444271640369458 -1.4256792740361899 0.8950238932617552 -0.8242326814808062
Ni 6.010186841965131 6.030444597170345 8.7527516219556 -0.15455286767963705 0.27595547385955055 0.15860981135783006
Ni 4.276957416255192 0.6326456453913767 9.339410938713065 1.3399676934999827 0.005899139093254357 -0.18896528372123583
Ni 9.177149239047012 3.475754250949186 10.092523831864547 -0.269624132324884 -0.7116803266026711 0.15315110223610398
Ni 6.561600866728178 2.6788361989013723 0.12858070945665934 1.2150187647297075 1.000357361793948 0.21153314171942278
Ni 7.119861654872996 7.956485283836285 0.5336745976572626 0.028341013036538285 0.025913377431652142 1.3972143338272776
Ni 6.49589265749211 1.39643835927866 3.6763860790471727 -0.48003601595567 3.244509274898715 -0.03608106199327334
Ni 2.889833292168517 0.3685093805901074 11.177320501513417 2.7187022233555176 -0.6479179966440455 2.678219946970755
Ni 3.448527300554823 4.5576276257511505 7.969906635274198 1.133704027709615 -0.17800261406214504 2.156823622900743
Ni 7.184524484830692 2.0913236266248028 11.55935671325241 0.6395290012494018 -0.030536478025960313 -0.684563415781221
Ni 0.5678161198190217 5.275803189992922 0.24306104183603028 -0.1061222829820753 -2.7324262578098297 1.20649787174289
Ni 5.115398686666461 9.188488307976382 3.2428531655591746 -1.3773096244835505 -1.0933359083052139 -0.388304454477628
Ni 4.464438184674629 3.897531827362731 11.640874635953375 0.939177447850518 0.9302500634539012 -0.10191981486495351
Ni 6.30964562497778 5.179223329635192 6.482852728223332 -0.8449873975296546 -0.8175192740163728 0.0904408676910765
Ni 0.17395205370428451 9.30855623968781 2.9838251324749243 0.363686913039264 -0.5160234897938726 -1.1204697884075283
Ni 4.448766913330381 2.952009814653327 9.505355952214899 1.4472695986124557 0.47046122778304134 -0.0008757177367339757
Ni 1.1002852350651884 0.09059953745893273 13.594529345881615 -0.2836117048532277 0.771940042724677 0.09827759012667592
Ni 3.725326781371402 1.644956092591167 3.919686333799155 0.17405648493020348 0.7807810380550747 -0.16853169845723232
Ni 2.149224453682757 3.979608227461962 4.018599932762115 -0.9486573623164953 -0.1954966570818504 -1.4972153344029635
Ni 3.711473151475135 6.538319987663886 4.70198037734736 0.6174419395423753 1.2413779714495266 -1.451046292046069
Ni 2.52008923389017 7.874597240363788 1.3253751711445516 0.26679951839189536 -0.6718495677589784 -0.0252744582960726
Ni 4.13148959342872 7.65323111479495 9.884248491853704 -0.5942019951778283 0.6527046193994114 -0.4403916620911706
P 8.39236135376085 7.2581719258835875 8.545510359825526 -0.5857672341469137 -0.31052884095904587 1.19233803530274
P 5.093389214832623 4.144636885974735 0.8571563848435338 -0.9363397212914066 0.10973365448241748 1.197518808172731
P 7.217863607762565 0.7492101438455566 1.7040266143011376 0.7999108169059902 0.04779963598178219 -0.15254972120667923
P 6.389612430857593 3.6024335002589685 8.209871094166726 -1.2300969992190687 0.9297435561311279 -0.8900552364025703
P 7.976366325788032 1.213365135924794 5.070259962852853 1.4227924394066982 0.9563133361998563 2.16470174009724
P 9.567480676627357 1.1678110857492368 11.610660349459014 -1.0009042354363538 -0.1291007461551196 -0.18438923431477922
P 5.217120682934022 1.4404761386090104 11.211532657410201 -1.4712723892849564 0.4552773209537514 -0.9652895715565376
P 2.7136915926784524 7.94097411562476 12.453741785369868 -0.638527556568081 0.7585517943432292 -0.1604383799261366
Ni 2.8602613017713185 5.005991740028164 5.944245070511913 -0.9005011143262427 0.0005332467956506946 -0.42899807554224834
Ni 5.394835160257314 2.072158339854644 6.57381296862246 -0.30506113297625526 2.7443849728336023 0.16381732370069851
Ni 8.147827363103762 4.837826943680274 8.300845461312859 -0.733254453229021 1.195983088254495 -0.6233819591758941
Ni 4.201435826766296 3.902673963272562 3.2270707638051537 2.412210785690639 0.8691552530251097 -1.4226754542128595
Ni 2.44298544873671 8.284564856281127 5.908848151432974 -1.3925732355108402 -2.4524277242291572 -2.7230646140892714
Ni 8.334460526702896 2.5695893553957987 7.0608966128739965 -0.37683013528944137 -1.267847478494965 0.3049834856607844
Ni 8.17560996554699 6.625764551625029 3.4797304593395357 -1.430848734052271 0.6936386386096118 -0.041483978176399525
Ni 1.3502062252468616 0.5549089819720916 9.85137366800673 -1.9307814889318682 1.645255340664747 -2.945399988630521
Ni 8.416913640055594 5.933271413438405 12.190992767124493 -0.9045102354856358 -0.2848039253891159 0.35897510938589144
Ni 1.6431667046371963 7.4715234769849035 9.505341825467895 1.5362071422851284 0.6888404458900201 -1.7857954390050603
Ni 5.129205227406045 6.944689992010611 2.7865356927183282 0.4169622274236367 -1.4943107591616587 -0.4893015004179961
Ni 0.6535315699467483 7.279098347113707 13.307616055992565 1.484805904995017 0.7781718825670018 -2.5299750237870167
Ni 7.092323916044522 5.2573065692476675 1.037932599134382 0.9172528798632847 -0.17400454864634549 -0.01789230689938854
Ni 7.02293333475581 1.7636207674334283 8.935113799043545 -0.5913706963766202 1.2204844158299688 0.7984576293992313
Ni 8.379176389889489 1.022503366055487 13.519075564778342 -1.2273374341960603 -1.0765399197937975 0.30287415262726547
Ni 0.9411163512101018 4.703641682795152 8.192462232940859 1.9841771309441896 -0.42104051125806846 -0.16926034909314078
Ni 2.8182577740096924 5.275445312402127 10.289951713741791 -1.0120846775332053 0.585525807560069 -0.0741372454350465
Ni 0.36417435282583016 2.1882802002359996 3.966937477181583 -0.19029325850404 -0.2140415099635733 -0.095884407304151
Ni 4.539300525969956 6.7329112187425215 7.063570335190482 -0.45030043656445023 1.2360593874500907 -0.4602194954503751
Ni 6.889520336040296 4.343616826456267 10.3271408461241 -0.6837982554804224 0.1569776750710458 1.1372794037656995
Ni 8.852121043955256 3.3437821804281858 12.734575865131085 -0.9434174540737946 0.46980559647691345 0.385363112461117
Ni 2.798885294950127 4.2925250914547375 0.8848683535517365 0.20286543874209578 0.0014339042330491433 1.5037775610015134
Ni 9.315883312467752 9.1950902077434 8.14627153736694 -0.2730493559563491 0.10236358727059144 -0.6580666550422731
Ni 7.500869439430022 8.812867522943943 4.003354347394286 -1.4411300613736213 -1.1704798017770681 -0.6767662883343055
P 4.76809732046344 5.895261046163534 10.7902542260575 1.8527701052533962 -0.4010674105702512 0.7331750061413373
P 5.3255010859566205 8.083108026158046 5.234399578087443 0.5814205271424439 -0.9489337559063334 -0.7077318834778844
P 6.738948048629338 4.429206077644081 12.68942018922107 0.849059767826815 0.5315930620973554 -1.0605258037537286
P 1.869853904911262 0.46402031709112257 4.269991046415445 -0.2074800546959717 -0.5477223635590502 0.08388532596074585
P 3.4389682017480854 2.935613370296154 5.741235240001414 0.10054504600461393 -0.09962407685224133 -0.4367764339360865
P -0.23592420924908858 5.116039099197356 5.242586498868425 0.35670071152941796 0.29151450464007217 -0.13575476113652749
P 0.7006018909675119 2.348449257779042 8.204329642208219 1.2328941023482316 -0.09781736266080573 0.7150811247541039
P 4.87673200493213 8.310068343540877 0.8418420493069464 -1.4082222549020071 1.3200652981491008 1.026217774500478
