# total energy = -381166.050196563 ev
CRYSTAL
PRIMVEC
9.27955037431979 0.00000000000000 0.00000000000000

0.00000000000000 9.27955037431979 0.00000000000000

0.00000000000000 0.00000000000000 13.58155996413997

PRIMCOORD
 96 1
Ni 6.446410904084049 0.5437909360869299 1.8000323495613542 1.1965142781676168 -1.3584544394502607 -2.079921670236366
Ni 1.1625606398328143 4.8722558039154755 11.00598019207546 -0.7993094358765653 0.4760893726030962 -0.08990864933669032
Ni 8.120887224198283 3.8041145899403173 10.617412008233382 0.9747352903504697 -1.2713621765164425 1.0680375387497414
Ni 9.220764500722158 9.197936806608169 13.188170412026071 -0.21244511201073094 -0.13185156942737938 -1.4991500895318308
Ni 4.292617964429221 5.673248039903797 1.01243885647189 0.9052676824769507 0.07218243570152084 2.3216354493042273
Ni 8.415355198718284 6.977646608408284 11.890248041782623 0.3207806005940411 -0.6701043029330976 -0.3021048785614087
Ni 7.340022333142175 7.22146679655668 2.804673599787722 -0.3365854288367816 0.11909349843076263 -0.20697688980730802
Ni 6.795470473918112 3.519250950139007 5.159743700584849 -0.8813330260382242 1.592135063801 -1.437258237123041
Ni 5.721984238882118 1.6752186841504628 13.007073489253564 -1.0973823104604454 -1.9401855558545875 -0.07413236033904007
Ni 5.964811515132058 0.07935778751765013 10.416662853511848 0.16801464961149773 0.5115441138662804 -0.15849976814252703
Ni 4.284999453507439 4.136693678170135 13.116650132820892 -1.2363486365557352 -1.2477283391475866 -2.3799452407887145
Ni 3.2802004509233726 0.494974932974715 6.777537742667997 -0.36999202932168535 -1.1441439920960166 -0.1981405224626007
Ni 2.330800364542767 1.4292827584988204 2.796253335706814 0.62206195481289 -1.4295917217167187 -1.3631356469760136
Ni 2.0441736101554175 5.223199122491466 4.828203922005749 -0.023387268575688756 -0.7785884012791301 1.6820671101764577
Ni 2.4960691581078636 6.947116887418438 10.005372762430943 -0.11300512614483764 -1.3352630889354618 -0.24364056377692878
Ni 5.479936444870216 3.0445369876230255 11.202885756999427 1.2494291238887771 0.5302452898202095 0.9198028999786483
Ni 3.5594963604529783 1.8527921616160266 4.784810888178175 -0.10767034419548553 0.31034526419333003 -0.5493946090551506
Ni 8.734516056993295 0.6779556044891489 5.82723661193842 0.32999312033124456 -0.4243124971411209 -3.624348886438442
Ni 5.38310433589482 1.7524152643676463 3.1935405851543823 -1.5163708242854916 2.0148113108902783 -0.3957490836811314
Ni 4.317320127734684 2.4767027363127845 6.7925594789410555 1.1125027110416517 0.9834821833051643 0.8088749680778133
Ni 2.3136239166545587 4.320048315567819 8.874843274851244 0.6903427414671595 1.4326528771405456 -0.17861787904864077
Ni 4.351543109804761 7.7404813329345235 10.93501668589745 -1.3184393325099035 1.5230945161625704 1.1269458830501753
Ni 2.059484868402605 2.736827094606821 13.6038339552354 -0.13133426347132865 -0.7808419731999972 -0.23648415523780558
Ni 8.768005954577596 5.569307795281525 4.843551370499703 0.508566262184879 1.3337407387536642 0.7030969558090343
P 5.387363649552674 7.061199680685664 6.529226252100427 0.13834926133658107 0.25366195256867285 0.21973881745866675
Ni 1.601724644563963 7.83042801547391 2.13131322868282 0.34003996304428535 -0.1422434541846647 2.3380786824619153
P 4.256316363057707 1.3208419319069216 10.160935146222368 -0.6682919323147071 0.5403579527741791 -1.0172572228730803
Ni 6.722310498147914 2.0828786150942165 9.33823247399458 0.8113586537316156 0.2991015729587107 -0.5160671985476144
P 7.9744559180524535 7.39210844983397 0.554165473493206 0.8209342132351927 1.2989639973941114 0.04073681559772984
P 1.4018802460115813 6.32908954770878 8.455933744893512 -1.3498335305504687 -0.3532155811942949 -2.197216682005809
P 1.04982338138125 0.3112379780983745 7.195972159642544 1.5857566710784818 -1.1863969872279567 0.6021279348931243
Ni 7.159581474586683 5.3861573079938045 0.5590251740653588 -0.10438987367200087 -0.944695806565586 1.130010638018428
Ni 2.2926892508329497 3.6113597679339065 6.616120890495875 1.5395310644520388 -0.573470933278064 -1.4861369651016147
Ni 7.74380341199664 4.585452738069521 3.0223996920627276 -1.255031043456587 -0.6663705469222782 -0.8494978838054982
Ni 4.3105924536563744 5.365677340144385 10.596075537877164 -0.23197495451354241 -1.1759009727926393 0.8386131185721944
Ni 4.626013653098889 8.60939987823764 13.1338163732036 -1.2301587056949395 1.212120617246306 0.3262256828690123
Ni 2.1215928995834687 4.583949450896161 1.6072014352412296 -1.6043012668498886 0.8970144413292229 0.018433009894206962
Ni 0.12380869009684864 0.4140609648461235 1.8279554448289979 -0.8973911079423512 -1.091066652655063 -1.3119668374116824
Ni 4.278689359199507 8.495456278227206 4.840915978171096 0.2646935277924861 -0.2988184945006531 1.5622488177645288
Ni 1.7584562517124458 3.2216557671163994 3.969088293801014 0.5380922966684539 0.013355081150667322 -0.46104173424135436
Ni 7.054462727056901 7.565626763751643 8.290129521267286 -0.21833422380165624 -0.1871202600926971 -0.8286495796015794
Ni 6.996205709313966 8.856282318035472 12.558501876273324 -1.1607137235292395 -1.612765081346526 0.9206117690331886
Ni 1.1335156469154222 2.5870458707475157 9.948316518516606 -2.750216234803399 0.7113674233479426 -0.1584239205992691
Ni 8.515889848324363 5.6001530209867685 9.048972183188715 1.9233617994290295 2.5851814937558317 0.10415333218116257
Ni 2.1058733411163564 8.102792100815243 11.836492533964359 0.24010478270952845 -0.9641310324720621 2.5161144637548407
Ni 0.35801526397610023 5.749470267323432 0.09747518182177671 0.8403452707719528 1.2391423972507885 0.3946651065883332
Ni 0.42744671637434645 4.758154451547344 7.096433205800055 -0.3651339298984356 1.2289034931315996 -0.8542091732382385
Ni 2.0236472445537332 -0.21492737985842933 0.4239622451793047 1.6906576800589463 2.3183122984682654 -0.8789820093075443
Ni 4.834033335600224 6.726235747989465 8.81378012105137 -0.6526287718561535 0.4362519288911842 -1.6649307076064872
Ni 6.347258907495442 7.062582333703137 10.451553963214531 2.652221723134781 -2.0080829910275093 0.9840118305563892
Ni 1.891951864527015 0.039703484567525094 4.8598759556563405 0.01896599957954153 -1.115570551333698 0.6955050023943893
Ni 8.96344256666488 3.694485980890455 12.775644284824848 -0.3625080622398144 0.11909812641645294 0.05824371413324162
Ni 3.927226385798158 1.220084573089975 1.099462480618632 0.7755598988654514 0.4852512416080224 -0.9339177421134754
Ni 4.595400416154967 3.2107430157838586 9.13752414929504 -0.6177288746551749 0.7501316886003339 -1.569019560829459
Ni 3.3077607157683104 0.9303491693009234 12.01818705978603 -0.3404973622966781 0.489147491338635 0.5513213937642182
Ni 7.641273659043201 1.5680769946219617 11.893195227006442 2.006371150542725 1.5609221285333053 -1.777505688192442
P -0.017865918486854593 3.9098736264513456 1.3587127052600105 -0.03873521178666878 0.3425619581351907 0.7243743771305718
Ni 8.156214472772248 0.2991643550041832 7.971981989901726 0.6853018366091423 -0.4829925274808327 2.0952636999100753
P 0.45419316464456977 0.9862306221279313 3.6606378926586727 -1.3343133234276827 1.6098134549173697 2.612069319285611
Ni 2.6468618529665284 1.970401184055332 8.511753952687531 0.5706252362991527 -1.425195649531552 -0.5421111880198599
P 8.378793769934092 3.612844496006361 8.379591811273034 -0.6268940860942107 -1.4703118251439 -0.004720545404120902
P 8.024621167800513 8.522997983971239 10.2967107445832 0.6842551405121828 0.4285730721896877 -0.3756515416003079
P 2.670979404593462 5.558497119003966 12.285485438535158 0.6918352668522859 0.039726886275976744 -0.05815526818449339
Ni 0.4176892690731842 2.3192751628803387 6.9839780456822576 0.4312434199329993 1.4515574273545324 1.8402640023665853
Ni 3.9387979852128505 6.348799312870614 3.7193644556545213 0.03809886375425051 -0.2734481340566645 -0.9734147717668333
Ni 2.6478362057640767 7.332079037954542 6.536071776469488 -0.3914874801913 0.11822395134161576 0.03581366726449961
Ni 9.024140106176912 7.975411711749097 4.080416916493837 2.3792788108493093 1.0436058880699381 0.011841472719618315
Ni 3.4280793669398455 8.828137441512006 8.960216994927471 0.3245884043759055 0.78873757389799 0.08648676813933492
Ni 7.3337771956874125 2.193045438070344 6.921815265153721 -0.012632344052029856 0.6767791438501117 1.3169894874372545
Ni 6.553988732483833 4.667715952833956 9.374291879099275 -3.3472186755445 0.8862548888198737 -0.27718934626665165
Ni 5.310853756069001 6.455968841050474 12.612352963461252 0.4771700072617846 -1.2241500376070142 -0.5379997369546476
Ni 9.36724220462025 7.4916873057434055 6.924585210963895 0.37132540342112824 -0.1949325570482643 0.3084693873268558
Ni 5.787349392271929 7.440334273537385 1.0632202683700165 0.7892867615332407 0.4962218816869132 0.6983447858360295
Ni 4.426039340840168 4.400075158673119 5.026331603724356 -0.03138237096602337 -1.3042237031311539 -0.8705960992366942
Ni 5.987759843401933 4.065603042150921 7.218653236859377 -1.7729139550567012 -1.302426502021415 1.2068174598658377
Ni 4.034739257344772 5.400596288498425 7.016315423100317 -0.585707584553572 -0.29952734764221967 0.5079810791053703
Ni 5.955949544449594 1.4401119938772857 5.294214594152012 -0.3370153172853486 -1.8349145651292138 1.1169088105291474
Ni 7.299981072938166 5.606518792597418 6.678936023421246 1.8265777631287445 1.7184073393683887 1.1042723527120595
Ni 7.849543889406763 2.209433124170061 3.424142053682705 -0.7569631096998706 -2.2234437340231388 -1.9366310057341098
Ni 1.309261052941776 0.15252704283830068 10.350289940942858 -1.332028641158564 0.885525981073649 -0.9615123639022924
Ni 7.419278973559888 8.121323363069568 5.582306589555865 -3.058876397984822 -0.6854393906282712 0.7020158069297135
Ni -0.2778343803332831 3.3099135714733694 4.852256516779512 1.7280934563079016 0.14676191088030852 2.08617947822062
Ni 8.171924751688909 1.9832626409829694 0.6602854845168492 -0.594241333056196 0.6565191080494952 0.4353206753261664
Ni 3.0524617237097513 3.2175263671648855 11.04051775090589 0.04168760954677336 -0.017342862153821744 0.7673935610045751
Ni 4.186292875340571 8.509227131099223 2.509682258622181 -0.166351660086778 0.4777988990950352 -0.9656796079061046
Ni 6.368861700949656 6.009251282250713 4.694384452880375 -1.5393536583339102 -0.09099982551834004 -1.206781721531896
Ni 5.61194732961233 0.4310165594335544 7.801179800401601 -0.10435439244837512 -0.1032156508582416 -0.1551647902320231
Ni 0.2253705859380565 6.097471968405872 2.6665762579035888 0.6199526217793709 -0.9537944264327446 -0.5726317252062203
P 6.973814154071261 5.0890632206956505 12.081504216390899 0.05744384393976558 -0.3908488181660365 -1.990942731802797
Ni 2.7091833138078076 6.909738858194394 0.3877098254251911 -1.0926211416263762 0.2512320029709415 -1.0759526798317598
P 1.8607076181522997 7.107467519243529 4.258199183844589 -0.22446681906195534 2.1330324340184164 -0.6794474347108943
Ni 3.7972384430547623 3.343598339617182 2.351280332392187 0.17476148141702808 -0.32009025939523583 0.6171143809996276
P 5.481588204850821 4.722196193542585 2.423697016171112 1.2059211733038135 0.47098624704857595 2.1928985142464295
P 0.750989378373188 2.0339382660059337 11.91439621592605 0.10409959612509168 -1.3332247183491943 0.6257532876215481
P 6.09485513517817 9.07153077033957 3.83729362258445 0.7690411239103272 -1.1280784539927218 -0.4217971869184349
Ni 5.82080217165442 3.1920261625204787 0.9208933073894785 1.0651543036646751 -0.06914287754424865 2.104738215059414
