# total energy = -340885.74287138984 ev
CRYSTAL
PRIMVEC
9.11790297928468 0.00000000000000 0.00000000000000

0.00000000000000 9.11790297928468 0.00000000000000

0.00000000000000 0.00000000000000 13.34497266194364

PRIMCOORD
 96 1
Ni 6.4176175732585925 1.6667526119157412 11.188944931820597 0.7219829940802598 1.366877116296317 1.7541880965124241
Ni 5.076310262092898 0.6430355283317927 5.928918048406636 -0.24536911643226134 -1.7058937802824106 -0.005419628353674538
Ni 2.832421763544603 1.6552914082331478 4.659903852307115 0.19888665660000587 1.0777241699098856 0.4651277313852699
Ni 3.934931203232873 4.335644790697168 5.048349301700662 0.03593270934086714 0.7894991346543628 -1.112373127442323
Ni 3.823574257667627 2.7913820835323895 2.473531083933681 -0.6719205302062299 -0.7426942584856822 0.38409015928596435
Ni 5.096934957979951 4.652054249880428 2.730701529333481 0.5936312102760228 0.3291089179540784 -0.8199574511442201
Ni 5.02934394533153 4.634319929146423 11.156156953743743 -0.3837078362458811 0.4580679963250111 1.591737314141949
Ni 5.82053171553812 7.96224499653101 12.441597963331379 -0.9708585810038829 1.6539078741334226 0.09347476942139385
Ni 2.1097367962555356 6.734692639338297 13.299145829323104 -0.6521711154934445 -0.17397935183536492 0.3118033367960953
Ni 2.725286406925293 1.2311721645610434 0.21647724568984425 0.28833610691209055 1.5782737324378753 -0.960129881732469
Ni 8.40637803660987 0.10157525955833556 6.712801466767462 0.48463160574615244 -0.16462182187986488 1.3164888936517523
Ni 8.850729906353315 2.64588771029202 1.2701375217110538 -0.30831692090939156 -0.010482387588562592 0.3596765063282903
Ni 7.373948797004667 0.8212804962479832 4.854394187447869 -0.8963253856819983 -0.6724488919058742 -1.6055773053488347
Ni 0.46097471813941643 7.439114447537282 2.516301341876648 2.138256658531833 0.5737365282346248 -1.7918385598753461
Ni 7.698126709280665 3.824969296779351 3.553686161594413 0.17019417376131982 0.46931554421437244 0.41985934646577366
Ni 7.7729026292495975 4.04111829797232 12.644641802986566 -0.12846439812270136 -0.399423447208925 -0.3679713993472308
Ni 8.612214689859313 7.433826063976499 9.377552294146634 -2.198053061864176 -3.8082228716796993 -0.10379337773858255
Ni 7.0295017870465655 1.0079841424906193 0.29856207645588717 -1.1023643370560692 -0.2729915061352202 -0.43958202170568167
Ni 2.011682870716466 6.88212912585185 9.062023624363324 0.561998156751774 0.08809679293893215 -0.14448031393498342
Ni 0.4379264837170936 5.076209965163296 1.0904883967804484 -0.7372864572065496 -0.13305227460369987 -0.705527676737714
Ni 6.5412289800405485 2.1937673874558388 7.0609448744764975 0.94298473741175 0.13414036546155608 -0.175857028474052
Ni 3.552590189690954 4.592824353999659 0.37546885028370836 -0.29104502120282133 0.36325342504627117 -0.07598638282864333
Ni 5.9777243579310495 5.826896011616442 4.63424151518328 1.0229565872507027 0.31210132765248827 0.5721018208446792
Ni 5.18256118215118 2.8695407453996857 9.633428909154581 0.11008332451235235 -0.5107879524265462 -1.5813551995766766
P 0.0029815541799586833 6.184855753362613 12.268966888102039 1.8351374797732976 -1.652664488644625 -0.35842129376495047
P 4.187041212639166 6.381291848937628 12.457838771604598 -0.18786793689199902 0.073008531147242 1.185793549316003
P 2.0900330085402734 8.430421946006051 1.3363654079071696 1.1469470087624505 0.07766171364853722 0.2933962950438173
P 6.874406262272569 7.781765230665254 5.708125299373139 -1.3279902094231324 0.20950479843548434 0.15367612150163856
P 4.8383421197603536 1.1299269730801222 12.626585620287567 0.004002693401489881 -1.0246563435506288 0.37765983027958827
P 4.191919290578853 6.270099025620819 8.30131973822357 0.36007811264208306 0.6450483884057342 -2.7514686191532616
P 4.664609601885942 0.859613070951238 3.779042420924758 -0.0017979724406872262 1.7674354484406338 -0.4014317358882054
P 0.14414401185183132 5.477543570010579 3.3288496227174553 0.325551025399491 -0.5848465221048572 0.07734572507001519
Ni 0.94376675383787 0.24714895855211647 4.7735101844662315 -1.2653452808984011 -0.4614291994877601 -0.2511620689649546
Ni 1.7292649527652724 6.4571436814241 4.485912385996278 1.3115071241664444 -0.2690430630104334 0.47456522264908585
Ni 6.104034663909544 5.6209043540212535 9.042072741485136 0.3387364137415134 0.5553564830655403 1.1025155179219528
Ni 9.067280095264689 2.8026426933557804 10.184148408110753 -0.7960397639863581 -0.5718647651332087 -0.0017959155581581973
Ni 2.595502180021526 5.349127028510463 7.0423552944700765 -0.27762180581838 1.8399773243641022 -1.1857048462569386
Ni 0.2310923319132564 0.20759549667853613 9.167341782976317 3.109932336120373 3.1452526086882218 -0.0976093604150577
Ni 1.6437025539128802 1.3460395026623262 11.174065426419146 -0.7027714541488155 -0.15451867200759195 0.6047869697825262
Ni 4.552213215413921 7.022079814256087 1.6707909310175872 -0.5133479998442385 -0.6480779192606775 -1.1349741526712904
Ni 6.554869362466293 8.008208343996367 7.869917113881892 -1.1277218419842514 0.06865359661265595 -0.034505747086353476
Ni 5.648221590483505 2.661260494229055 4.769759991089421 -0.4614510538646311 0.45459932105012035 -0.5498373530195241
Ni 0.6348139154753133 7.132616148579142 6.445594945875673 0.05706460622347591 1.2103419280793284 1.4482666724184026
Ni 5.074769336538117 4.254167212250345 7.267111595803352 1.4620943223301142 1.1239973419448126 -0.435171808453128
Ni 1.0617706504648585 7.944519793699697 11.261101278346404 -0.6348897027051775 -1.2990164478986015 0.29709379850006257
Ni 4.684933406984192 0.36994157767242103 10.143740598755027 -0.2607749094643702 -0.480657965810385 -0.23184999889990393
Ni 8.37569629405464 7.183585224621861 4.359255599715525 -0.8261311840550999 0.6665574661221036 1.4915673920885668
Ni 7.335680959410519 5.9343687306353194 7.0632936462097 0.29487545069250504 0.2721810944187829 -1.0315952367623071
Ni 2.3829821040995776 5.802496504015312 2.20042619179108 0.8292725578975589 -0.020924408857492995 0.8553196326935979
Ni 2.6363230303691556 5.24596707746443 11.329107155567266 0.2724286916532147 1.365251407767436 1.2319808465053428
Ni 1.6189565660094922 3.762812554134769 3.4496217146014327 -1.022481447386497 -0.2691957865382138 0.6145430207280256
Ni 1.7887592678240811 1.259027357282064 2.299832302299225 -1.441297440189421 0.3942084786668888 1.7964932850385384
Ni 1.4456981790750125 3.5465085485960537 7.899009605998082 -1.8327363265309726 -0.2262557926415781 0.9350030047578543
Ni 3.588496490488133 2.629311363199773 6.827768190008077 -0.22422616380605898 -0.24455253406823688 -0.1955812463758567
Ni 4.276542545454072 7.181570168127149 5.8852925311912525 -0.028256937963164242 -0.30488064153433303 -0.7155488084191419
Ni 0.5595237457946074 0.0940301950815288 13.313144545324604 0.2075888123596941 0.45559819462827994 -0.21774364140550886
P 0.40559075361371294 5.69062895589937 8.130237794661435 -0.9068936481161478 -0.08793969853577759 -0.8853927979298947
P 8.647683331327322 1.9478393160740481 8.024812044796688 0.8493780703981822 -0.5131173718906712 -0.0474057429774732
P 2.1762154247756538 3.5926177825044667 10.24138513046327 -2.552437980776223 -3.32356452646067 0.9449835130093337
P 3.9143247431512016 6.2897845775307 3.798072395631155 0.12575599805260276 0.11784342807374543 -0.2891832854037342
P 6.898030748144962 3.9598869028981545 10.487279465605104 1.4342878416408071 -0.0777946396819757 -0.5562885079615065
P 6.245280094495904 7.844687877135882 10.112379572449314 1.8976178576957063 0.31986451653767495 0.05658098171883804
P 2.41366384665481 8.488028855207823 6.231981633421073 -0.9172503087601236 0.03807006739884411 -1.6003733925503922
P 6.931165206524075 4.255361657502867 1.4676404119009163 -0.07754164313090517 -1.086364104973071 -0.6103852898059101
Ni 5.215048269439232 2.994100414061507 0.43030482885768245 0.8716078283306602 -0.2014803854691111 -0.6251105118312267
Ni 1.5863782996945308 1.274655442494447 7.099538221196715 -0.6782343882393996 -0.9041340830931396 -0.8721099647780594
Ni 7.117498665917457 0.7657324094738417 9.133605543019597 -1.4333043946816153 0.6301994963183597 -0.2413898200695391
Ni 2.8786130585772356 1.765590677086237 9.069096381480737 0.2295123519056628 -0.06431383158672149 0.09287878770860779
Ni 6.201815052367882 2.033702605715243 2.4648699881674947 1.0302194394607032 0.043696155336369905 0.4770831039749332
Ni 4.329718153948014 6.841992118206045 10.32266940937304 -0.4800218748882829 1.4622125930755334 0.5034906474341845
Ni 8.084962848849248 7.486937847151603 0.14386044507814105 -0.606522207306078 0.6887517428309557 0.7414886682133552
Ni 7.7627635214572 3.904276814385714 8.321911609660937 0.5656756056033613 0.673618229623627 0.41613716041918014
Ni 3.227482251340475 8.543638943720262 12.156069016982014 1.2316810558767368 -0.1943239769299879 -0.6060234132927885
Ni 0.5695288204174473 5.125437521792033 10.272052284374196 -1.5163278868626981 0.6235531946464358 0.0981850304128696
Ni 8.71940475389477 2.6455229941843803 5.888909603188775 0.4703337010662416 -0.14275278972091543 -0.4324554379632294
Ni 3.6345874885911638 2.6482583649916815 11.62597968465451 0.2750820701156617 0.5361043197041476 0.2716704733309515
Ni 1.0257731706407702 3.4067766898564003 12.512606365908388 1.1254420448111393 0.4006840590889035 0.08672176696827646
Ni 3.7972691084040777 8.357405781256482 7.824664051036165 0.09039870159923141 1.3403610722836594 2.2082793675778745
Ni 5.608193997669993 8.076975566091928 3.517921188288945 0.6504423057277959 -0.22911177403313446 1.314598875717891
Ni 2.890384270951323 8.576417803894426 3.5651364237937773 0.6576920453116737 -1.2561484448904818 -0.28022376221760126
Ni 3.5084868943745624 4.462538642447886 9.022882291691378 0.7545231327998102 -0.47195812404354204 0.1956532372643727
Ni 7.150304879799693 6.200593253407288 11.430849272744846 0.9963970915946195 -0.044131957322207864 -2.7661748150151846
Ni 8.45235961988061 0.24693924679022336 2.1115612885840056 -0.9216988314497804 0.7036993652797235 0.8001977520187896
Ni 4.476434326148978 0.42753663360069327 1.6424725488398635 0.36684962703796176 -0.4724386632243863 -0.4801416882955989
Ni 6.161267739100983 5.7524027466309295 13.296143303966957 -1.6122223214691782 -0.9690765494027955 2.853749159791743
Ni 8.032443729349058 9.080947831398506 11.329294072572432 -0.1176883905531199 -1.029349378150924 0.09789783818975398
Ni 9.081458433949201 5.007141852278933 5.743022248342424 0.7414452165699296 -0.8590400189679785 -0.8098962102534761
Ni 7.46831908985657 6.274712684382468 2.2248339055046316 -1.2062194212705226 -0.5509449842614059 0.21056614982046315
P 8.80451125761261 1.9165010845250632 3.643444619265206 0.6611401517612743 -0.9002434897894819 -0.7898688592889558
P 2.011400215733045 3.260115225071582 1.3138642476463072 -0.2746994899652624 0.20238258556840633 -1.122176743796306
P 4.880238882625522 1.3501516767759694 7.998001763724057 -0.4499697926979089 -1.0045302622247152 1.5228188939036806
P 8.603242673611364 1.8317319432067882 12.31691520298323 0.2945530343560798 0.2192510791889708 0.01405416410022096
P 6.457380746894065 8.217947459597559 1.4815050947328587 0.34956024382989476 0.31300404197241577 -0.2960854118402062
P 2.0233446682582614 3.730726654565122 5.699757800073605 -1.4296086909975831 -0.9178694304013612 -0.12095703400206265
P 6.796894971496333 4.140439611985438 5.846459383630262 1.1294172274088032 0.19420339219172358 0.37888007583993455
P 2.422225557281664 8.866604174938356 9.936413168415603 1.0751687504778837 0.08157570399096274 -0.5785771441563778
