# total energy = -340872.74451006146 ev
CRYSTAL
PRIMVEC
9.23258606406904 0.00000000000000 0.00000000000000

0.00000000000000 9.23258606406904 0.00000000000000

0.00000000000000 0.00000000000000 13.51282294886640

PRIMCOORD
 96 1
Ni 4.003304674535809 6.492012852360491 7.5993276676370085 -0.4826297448247752 0.2782221584065402 1.114946544596454
Ni 8.410608846191902 7.372173738586345 12.35503085715113 -0.99107542227139 0.8741714752927783 0.22673916003589983
Ni 7.647997244607382 3.4953647245022252 6.0355297970033135 0.3856988985339809 1.989209036941142 -1.3768627667541191
Ni 4.754375543650831 0.74088178723235 8.878005741430837 -0.6378528990985596 0.27828952130936585 -0.46554296454581756
Ni 9.181779054975804 6.621582963942055 2.7050645975768814 -0.3604192980315858 0.1413692791098275 -0.8701916647094239
Ni 3.7532031530427936 4.431364290708506 4.602845726326303 0.12321600523956842 0.7348932743840246 0.592558031816502
Ni 0.7288452648959609 8.911162727445006 2.11685100551985 0.46428955175469067 0.820972779782612 0.6589014922387427
Ni 0.2769969676985346 4.701574384456378 0.4909870756651878 -0.1548032931275463 0.9597527008987083 -1.0283075671499708
Ni 6.645236849211542 5.861436462813019 0.3676794271508732 2.7296864902811633 2.952270490498109 -1.0744501271443045
Ni 1.327054977788774 7.094882251395189 0.6037354155992093 -0.8756400894185048 0.8591269222548301 -0.07735549526202806
Ni 2.3318096117553435 0.3598585035709428 9.656046840697778 -0.08286382667476697 0.3378552966881407 0.4850026159323261
Ni 2.0647939927550296 3.2983967352987853 3.4093391814159792 0.2032127947791855 0.47004008108522277 -1.1546163523822501
Ni 6.988098162001405 3.6926096912849338 0.38426946089042796 2.586424107913681 -2.7774033367411524 0.5357158260164774
Ni 2.3396665424205785 1.2587984696711665 7.476050486656414 1.61275813936799 0.056917539122650365 0.3535343979862944
Ni 5.45452870111042 4.757911624079485 6.453359707915046 0.586679718658854 0.6554135336901422 -0.3889276898839238
Ni 5.253110605466742 7.030937360928187 11.76052064145874 -0.3062613239319435 -0.5731814270621032 -0.6736172011823625
Ni 8.933117816894981 8.443587643296743 4.173651425337206 0.38878807898226586 1.146681928026522 1.4837954614526316
Ni 3.542450912977783 5.491154369675624 2.2748030096490046 0.5044910636742408 -0.6917298516226732 0.5220234161310493
Ni 3.4559785127303178 3.4333494445041235 6.904458319131255 0.8435084989912828 -0.18740102455790952 1.3612559134547977
Ni 8.00239005728077 6.200660136728497 9.946396897492823 2.2003711684743914 0.4679461746706715 1.8811589408087344
Ni 6.313703919413737 8.71756463212266 10.60556568254813 0.8993852555542446 0.30709256158398723 0.2790968477020096
Ni 7.780078619574308 6.340035254616148 6.329433476140367 0.06966558281693809 -1.3649014806271849 -0.7036281457221559
Ni 6.750968423804108 2.8316248861304 3.0221429907712865 -0.7983583848172057 -1.203292734542031 -0.2662318188138834
Ni 7.3410783890205265 0.3579852118764937 2.654161658059011 -0.15442791206599857 -0.2191520917172613 -0.9771205027531946
P 7.048220761874509 5.148579267051003 4.537173419023267 0.29562467015370375 0.03188913539911282 -0.6669904398944643
P 2.377843285429683 8.228172947314055 7.734334849099603 0.17852969021020865 0.028319415769983484 0.2356495751516522
P 8.537159902159445 8.614778252456311 10.160196814188378 0.4590565854905255 -0.13913319069045715 0.005693450840351485
P 8.269507234726815 1.9802235052185382 1.493897038953833 -1.2014428258174856 0.39107378969264905 -0.33955299610553774
P 1.4515471670837579 5.314451906688625 2.2323183420236856 0.892553834454708 -1.295146423420234 -0.1350209682942965
P 1.6872089241109358 0.719353243254447 3.9666485384368864 -2.688968700846827 0.480901706390075 -2.7099537877389266
P 5.2830057188557324 8.721793156499485 2.328894884362847 -0.2740860247509796 -1.4380997591877296 -1.5642064557115318
P 4.62129704939854 4.44983869524568 8.672597322128503 -0.08030969279434556 0.8999850939217726 -0.702866327855467
Ni 7.123429407231743 7.22393533816212 3.3729221692938243 -1.0618478649992618 -0.14181048041230415 0.24994028074271146
Ni 2.0081243800368 5.140574615010159 6.3641747739079495 -0.26388671562047455 1.3713012135059415 0.2273402839550085
Ni 3.5991574560399155 1.336370657038154 11.4364559504566 0.13561129358012775 -0.8302446920028411 -0.6235881616494292
Ni 0.36777359952782435 5.3344681530837255 4.6844497839888355 -1.8564197861908416 -0.8595380416503197 0.18642657645978217
Ni 7.296881999955332 1.2043446775870805 9.021376722528727 0.7272514415680508 -1.1836502777207552 1.9259480720989668
Ni 6.340672303048464 8.460889509415018 13.39472067319077 0.328798328692195 -0.6742761749226001 1.7755231105447744
Ni 6.3224564109186066 5.977046904399477 8.63104514568672 -2.0217298923869826 0.16457708468485852 -1.8972761580855715
Ni 5.7123855948229405 7.963622428769227 6.37857945454708 -1.542910522447233 0.05979460356012928 0.3465541100137193
Ni 6.029340271365272 2.523431933678912 7.705497790063415 -2.0817744071743887 0.7934946289670011 -1.379350051952347
Ni 3.4507805668260554 2.9329986801424823 0.7628377999409233 -0.4981908324878259 1.4679777776940848 -0.36379567070298635
Ni 2.657165941535471 5.315356700114234 0.03234544170691539 1.0734000886132353 -1.765297061941392 -0.14777158309174548
Ni 0.8468414066985132 3.277087926867101 7.697470979816229 -0.4306574655225422 0.44358060134211347 -0.20193289962549738
Ni 3.438824367987654 5.098640209508986 10.944130149824948 0.8342178177179763 -0.20828583842671872 0.5228081168158738
Ni 1.089038911337818 6.041490354509161 11.808788600939176 0.1917202207585537 -1.1370063526099707 -0.2681742872522349
Ni 3.0810339636752455 8.803353821007931 0.05204962669603991 0.06768943292717375 0.40261444334239693 0.08267279370988341
Ni 3.274696687099421 7.33227973458578 9.941992030723863 1.8870593654535692 0.48865332531103584 0.5947817789406983
Ni 4.6310466601887725 6.8163443650973266 0.48547152880336464 -1.6369067115897358 0.727174051362896 1.2301592199155718
Ni 7.240387806370637 1.1389595037078846 5.043337019515145 0.9523646359647533 -0.2268306913084416 0.1406190312073643
Ni 2.896280685717523 8.836203361909114 5.042567021844779 2.074484558381195 -3.300517157722903 1.8231121731776474
Ni 3.2496117510037172 1.0628829952689445 2.2706677343905337 -0.7422024064509283 0.5343009479468218 -0.11429864814528057
Ni 7.592952567020857 3.7992922222329866 8.921030515335728 0.726806126500516 0.33002088824538645 0.09549642783711294
Ni 3.050944965980767 7.9795855699210385 2.4219981278579876 0.9095303144080465 -0.17548010475060744 -0.8963624095675208
Ni 2.0432266719160292 3.2659718933524795 11.72906245126408 0.12258377097220824 0.10638556394579098 0.1263488944415953
Ni 8.93433651824376 2.793854376904222 12.534913022748128 0.317141461179557 1.9860828326073345 0.39838446442144937
P 5.0875057108224135 4.460271517398108 0.295413206944063 -3.212088692476165 0.695354335749138 1.2116835297088875
P 5.301323169431322 7.950096690314974 8.864790217865364 0.17021834213103587 -1.4722072423944 -0.5784308483865006
P 8.173368316962897 5.201103448666189 12.300114512509667 0.003269157669575015 -0.5593506918265979 -1.419449233966078
P 0.08347827261557826 5.68303520400651 8.000793743165588 -0.06666767653087874 -0.5153339199260157 0.40004411151205943
P 7.667948862900652 8.527004057586286 5.986802054741295 1.843994415943295 -0.11148817527967897 -0.48677642000329713
P 2.227462925059118 1.4862247600081098 13.027671831662031 -1.483985723086567 0.676497350943635 1.4504816777918503
P 6.931936341511833 2.746518908607323 10.864214732137356 0.9786279405366564 0.14462275305011868 -0.5202357281030072
P 4.647434500295461 1.1378608259767884 6.589433253057822 -0.19556067755056644 -0.2524211381830363 0.1520306154784156
Ni 1.2152668267962148 8.37345692022609 11.568260347844259 0.8517925933769459 0.9796808072812031 0.01259917682124927
Ni 6.028444710525639 4.962690381018283 10.747410517184253 0.3533467074555205 -0.6398226212304207 0.35539124868937505
Ni 4.799042794600781 2.849628428782819 10.049121418833137 -0.20256821921665114 -0.03753964881667083 -2.438522427001975
Ni 0.06252030245096733 1.4877758344520104 10.651725842650334 0.34001296646109186 -0.725264493045009 -0.5394796639342838
Ni 1.8447630037845417 6.942433791766089 4.045373875792226 1.2506213444246657 -0.34931007549230164 0.7667700684879634
Ni 0.27038643614000535 0.508684096463217 13.51593067817143 0.3452644446680183 -0.16144522392409616 -0.2890380180751216
Ni 7.822354630756578 7.906158813657095 8.031616731445128 -1.1460196118521746 0.031012646331430457 1.3123159932209851
Ni 0.48187820634166134 1.2767281516357807 6.00478805548036 0.21696305448574246 -0.4662320201930422 -0.8370897399491325
Ni 5.434595547989102 1.8285598153973648 0.971999265442338 1.0080963823094187 -1.428324682078837 0.12751823215934813
Ni 4.883585584379346 7.016239084055033 3.8445328167720216 -0.4569655072894518 0.12137560959671999 -0.5424487738649367
Ni 5.530078952148752 2.650463084117186 5.067957556536276 -0.7011514020468893 1.8437771577261666 2.069437739985907
Ni 8.563685121667342 4.224951366052027 2.620001089949293 0.11354300092617865 0.8586134729535213 -0.010958555894032738
Ni 0.44366268647145973 4.360698077651267 10.235950182118174 -0.5270404097296665 -0.8734058007713474 -0.2496327768046217
Ni 2.2366401155188638 5.247515658365528 8.95513661118819 0.6840787628353187 -1.0923876854593317 -0.9413731699502562
Ni 5.134850411705288 3.1221466690245903 12.1568109292894 -0.03942606720610629 -0.4654768871945725 2.3867000430140446
Ni 0.9775369705105025 2.626938455051358 1.2634166091761614 1.37780044807704 -0.8195974967016402 -0.1610785846132968
Ni 5.022332886420656 0.8151450157856823 3.88966631331374 0.0886349248305893 -0.7727769368036755 0.5272401844452984
Ni 9.177199692331907 2.323463354033402 3.7556322464129734 -0.5122467963602597 -1.9084941382885776 0.27171546763627397
Ni 7.516377498939234 1.066308284665892 12.368124510581726 -0.40903808748055365 -0.1697005219543529 -0.8736336005114373
Ni 6.127242613050529 5.013432673540178 2.509263607240757 -0.6081635995642429 0.5182192118936108 0.5513956986455794
Ni 3.0613593229612426 1.8252637822040758 5.215706629903796 0.12830730371954677 2.3523411059182004 -0.3658705509541441
Ni 0.4631988383958283 9.19100240836543 8.175419797566676 -1.0654126995323845 1.5243633555726652 0.1707976116732736
Ni 0.8417163982234578 7.6944925475805 6.223100860200789 -0.2771950026936065 -0.5912861070826139 0.24295870721855575
Ni 1.1314811090676489 7.22978879767065 9.363210448499505 -2.30608078939908 -0.09841462992517244 -0.11182781800728482
P 8.19828706651104 7.596027018150731 1.0750690854981384 -0.01793832964597556 1.189329073273087 -0.21673088387027836
P 4.358103720992124 2.9358423166229675 3.23571301607605 0.42436983274161755 -0.8245802946282121 -1.623252611141411
P 1.0489233252738381 3.3542538804511626 5.367401710517286 0.7172912450315453 0.4369810937477249 0.5982561106425439
P 5.453069952526276 0.7849969295409597 12.313208165940264 -1.4606272508662845 0.1924360158786557 0.18424139588300528
P 8.163591008414738 1.9778599632087845 7.264425767216709 0.18143169434835205 -1.016153191175624 1.7198466429180765
P 3.1180474008514243 7.027678258078801 12.278318223538472 -0.42216151223638904 -0.03303816140189149 -0.7329479777321958
P 3.7907151498616543 6.408716461688632 5.5093536431507255 -0.7449714845556331 0.2333019008550821 0.011493602461896336
P 1.7112321128194459 2.516055097484408 9.602050061619485 0.23071177153040265 -0.05982828501154212 0.021666686340156234
