# total energy = -381170.6355902596 ev
CRYSTAL
PRIMVEC
9.25482491525361 0.00000000000000 0.00000000000000
0.00000000000000 9.25482491525361 0.00000000000000
0.00000000000000 0.00000000000000 13.54537175551082
PRIMCOORD
 96 1
Ni 3.0507696517190404 2.721057268817209 10.397386428532055 -0.5071729813817781 0.9883374545149366 0.5708844034978104
Ni 7.99318844214584 0.08299356551143718 1.7798073592867265 0.3936760032021865 -0.6467370889620668 0.3310192476029138
Ni 0.02144990708616106 5.462067939575033 10.20832054128501 -1.4877310490616122 -1.195009154377 1.6799485211715584
Ni 5.108765008646009 3.8552082649287764 13.338696492694401 -0.788023835660417 0.47333623533799124 -0.5623434559063348
Ni 0.5132346301848554 7.96950534587217 11.515191553350714 0.39813866695923045 -2.9933752309582187 0.2308272140623444
Ni 7.802761170193108 3.7562371701454107 9.801918053939346 -1.3528730887077411 -0.4929028446160092 -0.6310821560336294
Ni 0.5894545895365819 2.8525590722375234 10.502444421486267 -1.1612989066087485 1.0122266024277082 -0.8525037605113576
Ni 8.125486160485865 5.656558079548142 8.058994872803884 0.47461638760199554 -0.4167174584026823 0.11037463050052602
Ni 5.600011100950203 0.46558153807343317 7.082807074745566 -0.9067607220827093 -0.591114100281124 -0.34193640873604986
Ni 5.926743430315448 5.03724372376796 7.999543730231472 -0.7078522111058325 1.958395908215027 1.699600748184847
Ni 5.622130131858398 0.38508214780457284 1.8764804811100482 -1.3522799352084325 -0.9200013891426994 0.31295621945361585
Ni 5.876600790373773 6.7132276837084905 5.610438511880856 -0.04848354942268424 -0.8656151010823351 -0.5118019955133573
Ni 3.6356282953355343 5.161230609574277 2.8260791679552932 -2.1955632055627863 -0.08180350373105266 0.34649008954500327
Ni 3.7979671744822534 5.074457373676687 10.568044469554666 -0.6137050982077625 -1.612647839042371 -0.39739227571150915
Ni 5.702573067696907 5.672948373999361 1.9277503586938232 1.4055159117144376 -0.10908573648577341 -0.8192056605798601
Ni 5.6187058467387185 -0.0554873011757685 4.906255563115598 0.11790719143214533 -1.0571815698718439 -0.6596098311596769
Ni 3.1544421974234784 8.782884119691662 4.763893222971113 -1.0261218723525618 -1.0320215256664484 -0.6182073569534902
Ni 6.346949488623278 1.7840710570019591 0.1821988073583916 0.0764394112056619 0.6813806471778652 1.0032071725379175
Ni 7.012269577727577 1.1889488128510763 11.744893524661233 -1.333178181381975 0.9721233066489194 -1.8891154766516496
Ni 4.1224783459320316 7.842047900822935 6.728960885609717 -0.23889790688562082 -0.2898175765536235 0.05851316574454439
Ni 6.0846492484558805 4.837395040323786 11.33475301364033 0.9087708105342026 1.111891045599582 0.34256170102487454
Ni 4.465138228516108 1.0798159206044478 11.19626566857587 0.8387295895454007 -2.6445480086396067 -1.2914491770743046
Ni 2.194698371799336 8.992070921205446 12.588201475909184 1.0891077291564792 0.6311729159752226 0.40548585135292103
Ni 9.063582951258848 8.604284513638792 7.7910806560051435 -0.5477686434159534 0.6563702411764567 -0.44969005667396106
P 7.020672958507761 7.389931207129559 1.2052928331790567 -1.0162763470170497 0.24569950318848652 -0.12413080374435397
Ni 1.7950472790342267 5.676067249905663 11.82298295859181 -0.061044931027462605 0.1721862644906841 0.37916675384241794
P 3.881982472634806 6.278408257281815 4.672475916065267 -0.4605622235017746 0.8884274709911603 0.10016118030263395
Ni 1.6645449966758727 7.330746603507002 6.66100363370353 -0.012715904904771648 -0.8377749389416151 -0.7603009158238518
P 2.883266580418859 4.007015153626321 12.659355344248715 0.39851481935172656 -0.5240656433720587 -0.626834950721501
P 1.002565899269423 5.444372714848476 7.4467437991948895 0.370773130462084 0.4247716961657265 -1.0267145116312382
P 1.3593486442660125 5.52133583661942 1.771043965827743 1.3569151199875984 0.3941958802613985 0.01181679012926997
Ni 1.7729837770739179 4.391062612035272 9.06732560234641 0.827533206608949 -1.0467097238062426 0.6333907495621479
Ni 6.838565773913382 4.296209914220169 6.05022963010832 -0.059635195164129545 0.399825310633034 -0.27564411326671884
Ni 8.722505643689543 0.22724944277885795 10.550029027895295 -2.653198228115437 2.130009845142009 -1.8107371965520622
Ni 2.398397062296987 3.615758186816749 6.73687190971864 -0.03196832537648043 1.5549340292706706 -0.00027947891363177673
Ni 1.5270923410070356 0.8709308263741806 10.40816829924672 2.564658691212131 -1.7640914716690652 -0.16134469379048985
Ni 6.204971223701676 2.803850930116254 7.738525283277792 1.0062529013427768 -0.6532028991920685 0.388712231439008
Ni 1.3176556592277608 2.214170522858266 12.554785080553442 0.7119004130332771 0.399879303799421 0.9887346899533553
Ni 2.1289150782029114 9.03396751238595 8.194109759766693 1.2192019495731197 -0.5570991767882599 1.2707867636289472
Ni 9.028562694791646 3.7371907410202785 6.890530688828205 0.05573508877877498 -0.9984028091707388 0.14606231371012265
Ni 0.4116138791048302 7.619312036024801 4.375845829349392 0.23959493295264547 0.4723227064718124 1.0001097645595165
Ni 8.165254141997377 3.640144649763651 4.349730565158285 0.2579073581085881 -1.286630929750055 -0.45084551043464294
Ni 8.505748395613873 6.135236119980649 2.241298264865841 -0.23020912086237127 -0.8467478318641868 0.4840698197054115
Ni 3.1297133059646085 0.9544037918023729 1.9978612082955496 0.7311618323660505 -0.8000979932161318 -0.38417757679344805
Ni 8.566497064601904 6.095264532326885 5.803798637764471 0.9149720542489082 -0.8990571827908646 -0.07291365744059057
Ni 1.554153448277146 6.7380953975370765 9.432725514572548 1.491807790234147 2.225414227485948 -0.7662049400131127
Ni 5.184959979971186 2.375185962080353 5.617265796023525 0.6739812693900006 0.13360583311432475 0.07206339362515331
Ni 8.262744464837098 7.425062521492534 9.495562997483585 0.01849420214944557 0.3751337214236249 1.6497545140866814
Ni 4.362492968347573 7.511428545105622 2.5567026888622033 -0.4644283913254001 0.856455546070254 0.46384038003241407
Ni 6.536969548291509 0.883706186317977 8.985592543952 2.0060615897221066 -0.38227958843978677 2.2598832077970954
Ni 0.19799031465489964 4.583276065145027 13.70723841788846 1.6066006044070267 -0.3654280641000868 0.5496447773927436
Ni 3.14888930263481 1.163479535420384 6.556691579615929 0.9647789504687061 0.72935743216746 -0.35068150191853154
Ni 4.514947694770464 4.702126523271826 6.097218225810031 -0.7481912770445114 0.1278221365530121 -0.5208332524776901
Ni 6.445698467615097 8.459964778081302 10.778552860028155 0.09062290179489554 0.001861992909403245 -0.39590000743669884
Ni 7.6737581694276935 8.15848886517985 5.631921736335751 0.9538188519127767 2.162698079403649 0.8159146485334143
Ni 1.287281324733745 0.6011128921453912 3.2908610891791583 -1.4459663064200001 1.4477002583919711 1.5041336587893515
P 0.852932043399177 0.901095076348692 1.0144657528015393 1.5928205199037988 0.5908374495809695 1.481046437952585
Ni 2.4078647479116664 3.2287584393451563 1.1345656122557881 -3.4023271864828697 0.745549211435974 -0.6235783914574163
P 4.200385459817049 1.24927175990531 4.0588023759079075 -0.5244893611730387 0.737541253529833 -1.5029581504240115
Ni 7.005060069326956 7.75683873029082 3.3809919754589637 -0.6249323343821496 -0.4072141468979374 0.13774813741747244
P 6.549139642703341 3.3649524388618954 1.7507934840159343 -0.1700432500057523 0.5123547826930338 -0.11893717535855647
P 8.482925998032446 1.991175522969993 8.65691485044579 -0.12641240068967907 -0.13426326419266554 -0.08788056316306801
P 8.71754505767833 1.2559629981256555 4.5076965396589275 0.3688160067357132 -0.02998523350818062 -0.7018718251526815
Ni 5.456857473298332 2.9278563255718657 10.315830137288419 0.419537958570613 -0.20772302394471323 -0.5782958654705331
Ni 0.8979151185997146 7.94440626142739 2.2517960124638186 0.9652790300335764 -0.07303578484075164 -0.9229283329815073
Ni 1.3693623645349111 2.0220403631703414 8.107622497950718 -0.3986480024954812 -0.3147984148686772 0.6493734981436493
Ni 0.7657256817080702 4.011920210689645 3.096567151488582 0.9601792469131658 -0.5878598550098844 -0.6414385595672889
Ni 5.1264047044246785 8.97196018724582 13.13863124635347 -0.4385378967118835 -0.27582691870148623 -0.2521262326504367
Ni 3.7803367335282316 1.7977774523053223 -0.4542869500732817 -0.6159118760510941 0.9836102242425964 1.6498265049751972
Ni 4.6134930676200305 7.10466049218637 10.99927487498293 -0.6304920878581142 -0.4511923522511003 1.9408969800993152
Ni 6.694847601957997 1.5975585758752369 3.47495621010788 1.0624680150817638 0.9296250282753926 0.6256080202929355
Ni 7.6961548450753225 1.333685015517717 6.383256165716521 0.4389958101849085 0.4004344049719426 0.3537300589368682
Ni 1.1440166391861015 2.594553070706696 5.17735251411071 -1.4081469215793814 -0.5567011700188929 -0.48979952310033714
Ni 6.605566308580859 7.607826798636904 7.814934041052334 0.38160827340437503 -0.25621788622130715 -0.8170924708915992
Ni 8.697971103548275 0.7085068028407018 13.103982108354645 0.3215154218775366 0.09752168579725785 -0.9549398528910973
Ni 4.148789812405672 3.5502710476090535 8.230763492784227 -1.4469813779480756 0.7710177880207237 0.9437123596063941
Ni 1.0687564051503498 0.3287156382872652 6.055377163577416 -1.2004038430300101 0.0015740293553392246 -1.1922508749055725
Ni 4.808223833033982 8.192278229968897 9.056611291851675 -1.4653022877444506 1.2414605038610038 -1.2013021864745634
Ni 8.551855932009115 2.395555831130118 1.8022253210310455 0.057529204564720285 0.7156616798479223 -0.06412382706310246
Ni 3.23391337667397 3.1954318157884987 4.512505346545914 0.31654805056993224 0.1345964791623682 -1.3262413450528256
Ni 7.523820755309 7.92493411036846 12.741968536467128 0.5800164477060656 -0.21907084485736467 0.12257040123576955
Ni 3.4443310698659095 5.8742130456146455 8.154096525402013 0.3200110694178682 0.5192450820549638 -0.5089318730544139
Ni 1.791743306634969 5.38139363312033 4.6958554540904895 0.31213680887611406 0.4623979911589327 1.0526240324081484
Ni 5.544713523679714 4.095630099628821 3.6881605310012664 1.0393139455628035 -0.49764601572794936 1.1870734444696909
Ni 5.4071498101151025 6.610961871350515 13.124557434511589 0.4209754623480879 -0.1600804823660856 0.7071510712737498
Ni 4.235581557952559 1.429676056764497 8.778064207015099 -0.6966020921133099 -1.4986813774255288 -0.11774726881551334
Ni 0.6653645122626078 6.982089594551163 0.2395972298239268 0.014357297162936563 -0.23497723167497597 -1.6699405021162532
Ni 4.341317929553451 3.001515474943552 1.8642900260839916 2.9475334900337558 -0.9989129160379376 1.707652671955046
P 7.2744772696484965 5.60957133481136 4.13979042091817 -0.5688180078870849 0.3383368643102495 -0.43658514386088676
Ni 8.086838012756733 3.3433516781339754 12.390493433406041 -0.18187315276114485 -1.8971360329632811 -1.6379318104201406
P 2.9610811460573987 8.250046845420343 10.343584430924649 -1.4936831528799888 1.0381219821372316 -0.2099346868840513
Ni 7.163817331334983 4.998503027792352 0.04287667711070267 -0.9969871597701345 0.7969735886545372 1.876551266833394
P 3.0432917534036332 8.196313333515329 0.8900762821230445 0.5009509117314663 -0.5381396049666215 -0.07316511132976432
P 8.36602830790633 5.855823709039505 12.114126785256483 1.653872392909797 0.5709201418317522 -0.15817066693788243
P 6.348883746974663 6.382099312635549 9.803326638250738 -0.17169261268371722 0.0463230514362557 -1.1670586919106611
Ni 3.383563891228582 5.880367504005419 0.5075771558776672 -0.8244622809931091 -0.012010651307630928 -0.038568347191501325
