# total energy = -340893.89065741905 ev
CRYSTAL
PRIMVEC
9.03104372257003 0.00000000000000 0.00000000000000
0.00000000000000 9.03104372257003 0.00000000000000
0.00000000000000 0.00000000000000 13.21784535987687
PRIMCOORD
 96 1
Ni 6.205943471540242 1.8793150062940904 11.503159860967376 1.1514091582988621 1.7474032123801067 -0.9109765599362698
Ni 4.620914050171783 0.3506907735885544 5.998244822801669 -0.5547309336663996 -0.2872349034281118 -0.03665416088792397
Ni 2.6438831527313313 1.4987468313488348 4.7680469084867 0.43041861003885873 -0.6751148687738115 1.5026560458025604
Ni 3.421383753523618 4.389394217877133 5.053855955941908 -0.2055033905855751 0.2539113495753176 -0.7003376478963423
Ni 5.113792282630547 4.4654265734742875 2.808937213855014 0.3551639631699174 0.7989667078251659 -0.28691582952579625
Ni 7.300876221861499 6.105599546722569 2.5197704244101367 0.7102034849468285 0.11835404916157681 0.6727170579655962
Ni 5.099216178350488 4.505452158461411 11.400074111329735 0.06271563386166619 -0.26577107712738096 0.08597871815466482
Ni 5.567873152024173 7.746522096585006 12.26433594744948 0.3741019377250009 0.2806665061819747 0.7625364900225899
Ni 1.8784209329832318 6.439928778722413 0.4442487722872462 0.06079501980018562 -1.1147313432618544 -1.1727380016836253
Ni 2.73768860202313 1.346375064674028 0.5266678818787363 0.12278868789416271 1.06756676976091 -0.21055355141497287
Ni 0.6330788617492858 -0.15916672383733182 4.663387951063692 -0.09684214323172999 0.2061420526108385 0.2926103088074122
Ni 8.486218749102 2.2769608845810994 1.5806692335454033 0.29531896598782686 0.7429166589091334 0.7073086798975367
Ni 6.728578992476571 0.8186938997096522 4.627461556741203 0.5975896807031386 -0.38961494575893546 1.3744556999745234
Ni 0.6756990655466076 7.3966143144717185 2.1944532707628777 -0.5667063608607208 -0.594621342103434 1.4180248428147257
Ni 7.904420861908756 4.023691140605344 3.7896886744404403 -0.8196728300242657 -0.6628347658548778 -0.12907837755761642
Ni 7.528873947173979 3.910848251522739 12.608634548417573 -0.02802348179611948 -0.72642200368822 -0.6797379693681197
Ni 8.046524332074005 9.040074587570025 6.8678729049952745 0.12314709967484598 -1.0865679934537609 -0.7037587577627493
Ni 6.634141370136692 1.0943999187521587 0.5323736951898519 1.4536207376414643 -1.0060847511960287 0.07483787104649692
Ni 1.8157364597441474 6.525263109169914 9.060066608663437 -0.5272638385943822 0.32218185181694187 0.1579148421733345
Ni 0.015249820128442303 4.661517621945724 1.2085378594789769 0.30515909200670027 1.1305796231480207 1.173149121079115
Ni 6.530781076775313 1.9544803817110188 6.927671056717688 -1.9960707970579818 0.2856469901157016 1.024516732648971
Ni 3.0684325097359935 4.050955861064758 0.4354543420840737 0.6143105930022452 0.5249426466603734 -0.59062224824637
Ni 6.0251329487452985 5.78556645665292 4.881099317779527 -0.15856893081756562 -0.9247545875569687 -1.1179601346117973
Ni 5.137300088975646 3.162535983464745 9.157507956086059 0.41618935381335426 -1.5697644094152836 -0.08149060047632417
P 0.08843017217439378 5.553134488960324 12.322177072035903 1.3097199503590347 -0.21126394721843614 -0.03219869621973164
P 4.021225665717825 5.95593709311097 12.626782430419293 -0.3422068887886171 0.274536739135153 -0.24837782135159803
P 2.4898496740444243 8.33608668122611 1.4459396104338516 0.6551003733250976 0.36531699244351923 0.743579489304113
P 6.350250516330234 7.935018037435917 5.817464102450421 0.24867478376672658 -0.9615761272606923 -0.10043757389247218
P 4.7393019999904205 0.9867227865767366 12.767196192337453 -1.107750541068647 0.4856073393958605 -1.0225007306602067
P 3.9547391231467053 6.313349672409344 8.334578496954258 0.07390070394420821 -0.7438124312505253 -2.2250676427798064
P 4.671424676713521 1.0670990741185682 3.768354640276388 -0.44524976151442025 -1.0697120982386867 0.1268705712730202
P 0.3508045647372091 5.692104187015795 3.6198255826295647 0.16214327843238527 -0.6601405068521663 -0.591787986419697
Ni 1.4752751491779112 1.0132379304219972 2.7181969007420586 -0.31329020575426686 0.22456297832018746 -1.1402135466933587
Ni 2.0614350304029188 6.546422844193566 4.747876072731119 -0.6007372251931848 -0.22913671373379893 -0.036826424799730126
Ni 6.039970953288132 5.482457542184776 9.092846587415186 -0.4098065902154619 1.6390718375618545 0.14397303528126174
Ni 8.426270682056755 2.2743238198662437 10.243935269597552 0.9454684230655522 0.7695023798174618 0.7476521167115898
Ni 2.38627263563799 5.141607896746146 7.119528351975684 -0.3375971579307476 -0.07667081049017764 -0.4871178625031159
Ni 0.6007675941574695 9.222501667159351 9.287889131731163 -0.05125108486549238 -0.054755498474325044 -0.3433813687126925
Ni 1.4607442001155735 1.1779461025779432 11.421553545294845 -0.5157380973429698 -0.21367127110834816 0.4351543249516312
Ni 4.077055576906994 6.590160188077284 1.5020630305382012 0.08437846354708049 1.2518220496009862 0.8510145775603409
Ni 5.68152883502574 7.87035576566069 7.9444672182960305 -0.5198166382877176 0.4212300015610552 0.0032005092151686817
Ni 5.173875815328952 2.869469589417557 4.887840088680789 0.33672709662096845 0.2938526658549455 1.1479129722201455
Ni 0.6014151199795763 7.135228821176973 6.786755168778479 0.12803399545350208 0.8346618472339303 -0.4874654756505218
Ni 4.92456482725257 4.697434082120316 7.061078535054394 0.24862079060033954 -0.5915182776980781 0.10978456232501092
Ni 8.175884999798635 7.371372547766166 8.77647739171135 0.013181788797596653 -0.4514728596059966 0.5627900565254501
Ni 4.771714415269929 0.30070755998978815 10.549677636363134 -0.5085616341991887 -0.6849938184504203 -1.2232768909734415
Ni 8.15891566897941 7.044557143994953 4.78586425429471 -0.22901098678921203 0.5061093160039541 -0.1123608076926194
Ni 7.237830506880654 5.989415171528675 6.946677790960445 0.004621815042727524 0.5047425175634146 0.04779346533419511
Ni 2.4165898488152853 5.061222578160771 2.5227317035882226 -0.9975060083880821 0.6120693623765523 0.8742876891556686
Ni 2.260488261156796 5.493312856524694 11.378237951144634 -0.3354040069341708 -1.003112298831266 0.23708887870134007
Ni 1.2517116662455476 3.3205250592239355 3.9345430004692004 -0.7993508306374622 0.4044867206644453 -0.42990336096533704
Ni 3.581838304170328 2.788271476913219 2.9712259694455154 -0.7988481799694306 -0.36671284434978135 -1.1976532768680663
Ni 1.2632172157206367 3.137899296676642 8.291250259343085 -0.8527526432973702 1.192279671260979 0.03246711938976989
Ni 3.577982048577029 2.645653237265961 7.110605680954187 0.13739718183595695 0.5446912900422104 -0.18531791677663567
Ni 4.1687838861836655 6.716685108129089 6.014806853557059 -0.47202625827731615 1.6723550250950168 0.4523650324029629
Ni 0.6421776381198919 7.3463114019314935 10.998079785576277 0.016576930522074675 0.014443429118839642 0.800780363995137
P 0.16998230158565736 5.438711167257513 7.935241104211454 0.7561457560048978 0.2552637498381539 1.4112322453729245
P 8.522758351281128 1.7842181177754965 7.980948118692123 0.14849611996259587 -0.3001616387921089 0.49685103063047975
P 1.7450143577508799 3.146623284740171 10.40293311292061 -0.15551574581353864 0.8415449475070087 1.0546215224541513
P 4.034880603556392 6.1290983220241255 3.7069977304382755 0.11497099162195683 0.6754249438150626 0.8891484083175849
P 6.926521404874533 3.923979388835753 10.241781365712301 -0.3826182027261281 -0.4654231511385017 1.9175709037788655
P 6.393942704996231 7.677407520342575 10.011142963267549 -0.3007967012729465 0.5589686258968309 0.8897824423571579
P 2.2189454608542762 8.361689689673424 6.066713679430702 1.2139286169893224 0.3709518221317934 -1.5791005992145448
P 6.904440503409389 4.004418893682392 1.6335405748695493 0.357118772903443 0.13785535241929808 0.005028563562842953
Ni 5.232478256886136 3.200863732265591 0.45437799072622576 0.09144205526208123 -0.5868152157954538 -0.24644769420842072
Ni 1.4153632063068426 1.0911938982940295 7.120241804415663 0.24068970867872097 -0.19971609447983668 -0.9426327533889701
Ni 7.106383668097355 0.694717540145972 9.189534745806238 -2.275766454686255 -0.45937694494442183 -0.6832164148350233
Ni 2.923863564683226 1.5659107021857561 9.431936985571442 0.11484526467736995 -0.6814135572983296 -1.8062267102762184
Ni 6.1542859024684144 2.1776916539451654 2.7798057766950492 1.2410915505573592 0.5784964115171134 -1.7126341843300377
Ni 4.200428662761933 6.74338087284523 10.364098722576944 0.02702769354175345 0.9615869258939698 0.968803498247067
Ni 8.101776256476356 7.269348848849304 -0.04909817133145175 0.036472126784104934 0.1451220612840404 0.7243602360631848
Ni 7.692516456191731 3.9053935012221475 8.209854366985132 0.15550237607709994 -1.2923439209744323 -1.0390300957737977
Ni 3.121246052381458 8.325935788282626 12.322019028773882 0.3947831202234362 -0.569560028259432 -0.2255770214069986
Ni 9.046757559792606 4.780853831336484 10.115445194470569 0.6737845799981622 0.07953630496343077 0.3689083093392034
Ni 8.440846786336813 2.45307526473315 5.799091347464454 1.1842467736541735 0.2073738681354106 -0.5600875699926225
Ni 3.609175272978095 2.536856255691079 11.429748314206694 0.557759178969762 0.5934193513755328 1.3855870340009946
Ni 1.029204815407835 3.3663666362534115 12.633180021665881 -0.45190891870215066 -0.26013727588037133 -0.8629645508333654
Ni 3.0643053228363737 8.374983385770232 8.038604106885895 1.1460296391545037 0.4058128956750366 0.10574921591337272
Ni 5.730576432513346 7.8712949941892685 3.615212525587276 -0.39747018013729607 -0.168722988532432 -0.656122901052341
Ni 3.243598630315922 8.461013106570622 3.6249940488498105 -0.07971576796408851 -0.9689130272417377 -0.286417549733139
Ni 3.2256358847068545 4.526530614093168 9.313412666995289 0.20527276263200778 -1.068103101880354 0.6564203776881018
Ni 7.228853649597891 6.157004246575166 11.254149606641008 -0.08621731652803216 -1.0289382587554343 -0.33014301564554754
Ni 0.9099679474960598 8.621151570693293 0.050921539022990604 -1.009106825851804 1.812140761767808 -0.3904274143579018
Ni 4.732104258285831 0.17674474699142403 1.5471089726314484 -0.6630458534244194 -1.013917616976886 1.118477440567848
Ni 6.041677820517953 5.741440777896809 0.4975590223276316 -0.011937117757218152 -1.228560507969884 -1.5736951119282576
Ni 7.865758964496781 8.915130100138425 11.259000180128504 0.27146478507804855 0.39516055816751305 1.0410350420189685
Ni 0.28939437174218674 4.7515119708619435 5.863449273072246 -0.4195911804060516 0.33823247752190133 -0.6962861035347879
Ni 7.996113047011253 8.946729721498972 2.625249400586943 -0.8483750830549646 -0.5013494327214655 -0.7101430640225382
P 8.564265027409473 1.6531415517775032 3.7375045955299955 0.09863343080419787 0.2193007014799836 0.2564346302178035
P 1.6252085340958309 3.0933491588739614 1.7425479797590064 0.5957647116792579 -0.8006255835848276 -0.8174591102023986
P 4.7337388771673 1.125421553325888 8.101798834085217 0.8533414259213046 -0.34816619169584556 1.0379900845450576
P 8.56942175327311 1.6050060896878446 12.74409117053442 -0.05503600582922135 -1.0495554207851536 -1.6364945637529817
P 6.475149848544113 7.693247970718796 1.245620227375102 -0.6423261043785646 1.6163481707120937 1.4286540403937975
P 1.7500175558742703 3.0652445513649527 6.021720117390011 0.2793765837259576 0.3482016729194713 0.4498741476603091
P 6.75923938530854 4.036858402092534 6.025857238437529 0.46888282755232796 -0.30437721953535324 -0.7333251585659565
P 2.480908940935838 8.506520534988969 10.168805115250445 -0.2948343130419245 -0.11311851179425035 1.2031916901877922
