# total energy = -340869.4555766262 ev
CRYSTAL
PRIMVEC
9.26386151736692 0.00000000000000 0.00000000000000

0.00000000000000 9.26386151736692 0.00000000000000

0.00000000000000 0.00000000000000 13.55859773613866

PRIMCOORD
 96 1
Ni 5.82353193240066 8.874705116983742 3.604431368302285 0.16128607263841255 -1.0866201868479353 -0.09815160607177291
Ni 7.960148927303675 6.7126588225186 3.6908131703776954 -0.1286261205115462 0.6442125227680002 -0.9654109276257502
Ni 3.3391310525572644 5.37875541852933 3.4741870352371644 -0.15537922023567435 -2.099417317067133 -1.308692794646101
Ni 4.226182837720044 6.153538467301067 7.3992925244584775 1.147852037075223 -1.0008422718501666 0.1553887333173711
Ni 4.836180319784641 3.159226864033953 4.243840683947864 0.49087115889796107 0.4336075492898016 -1.8037291406653455
Ni 0.8725603267638598 2.169012718243182 7.490745364268062 -2.437313751405854 0.586407438834074 0.7108840559536208
Ni 5.088175877776975 8.00290164769683 13.454603490103045 -0.5004881131624348 -0.8293802871200169 -1.690704217026166
Ni 5.014231736026559 0.6881418585769329 1.457983563674195 0.05854941829911852 -1.7915436543427468 -0.013885499732840602
Ni 2.941961522456341 8.661942012049916 11.404813889009116 -0.7903823085902647 0.8696810436215926 0.08727558258921744
Ni 7.256855097009507 4.556374649848591 4.74378719804225 -0.931389319264667 -1.2522827912874883 0.2798249841172858
Ni 6.330959940967312 6.768575489971057 5.566007701920648 -0.8296510242829 -1.6916023033604028 -1.2057152279405945
Ni 9.073609485252744 7.741910880278332 11.061646186207827 0.5327199766129471 -0.014231055997717425 -0.49545877826864354
Ni 3.2237126032878547 5.262771873714094 11.558229918611485 -1.3646363998912563 -0.0843478674194612 0.797271322400614
Ni 3.238117907775689 2.253147107541262 0.1642816126466013 0.8177563297278433 -0.18985539963567302 0.5894297706001655
Ni 5.136570289766975 5.1249626714240435 10.29136907962444 3.392104994534229 -1.8660835345328506 -1.1383109303540073
Ni 7.681380809845206 1.1415485857349943 6.5193535320839695 -0.14873446122564707 0.4916592020168952 1.2091183400848724
Ni 4.493269225944328 7.033864689082388 11.031790613665454 0.899132259003174 1.9522232037454117 1.7215137462078547
Ni 3.545622523318573 3.730899751457926 6.844827259597947 -0.030655777212643977 -0.39025052246040537 -0.8197461064643624
Ni 4.015198394176355 1.0556818543538111 4.267555242763561 0.828051026785632 -0.32315501436348865 0.1383081236860005
Ni 7.735796731749733 2.3492133503315165 1.360659288504874 0.7779906197941311 -0.24143044349948742 0.26255694106545746
Ni 2.6442488084206217 8.491375795824828 7.438829758557276 0.08551771935784627 0.28691197287105424 -1.02589021595773
Ni 0.47644224493262705 8.630926604059388 3.589394268466495 -0.5412784077059194 -0.25875067994548984 1.029940988988336
Ni 1.028566532015617 2.787579272109225 0.8453097520491237 -0.031606314051371376 -2.193113972691345 1.019016114545716
Ni 2.2170365757769024 2.914503437246089 4.235908965811219 0.6376778069732759 -0.4631189284853573 -0.5216994571327274
P 8.214664255598704 8.013879323464089 5.313410919323002 -0.5415257478300352 1.3683225904935918 0.855685757783765
P 3.280481545989752 3.4529653815260826 2.1686162249749636 -0.10053116204754299 -0.6651626426571061 1.4028105969681326
P 3.0500337296300253 3.176253841299959 11.828533645902409 -2.2323636622205876 -0.07612393684777212 -0.5968808275615721
P 6.562686170201201 3.8662632943365374 2.7370337915005285 2.484959892528907 2.0734615164333197 1.770215325178616
P 3.6749460285598414 0.09917519467843275 9.30256767269823 0.9049321535144028 -0.17345536101109482 0.537404783683126
P 0.07853623784984955 8.366221028216696 13.176150343932413 0.5550374091632247 0.9274573312001125 0.509993738660025
P 2.550841293854167 7.355987677925468 3.326371009855307 -1.401662085185986 1.3229017391566313 0.8896387176904419
P 1.7043189023468712 6.805399339063753 11.090634661322511 0.3252358081519173 -0.6339533069338372 0.09491947228772041
Ni 1.3993525848294965 9.221534824199203 9.33887737748284 -1.0437048755416476 0.5538490452820785 0.3661621140526339
Ni 2.8378449841034317 7.173026415137857 9.334294545244815 -0.343372369851628 -1.1414219651791633 -0.2439994897782443
Ni 3.2655204098174995 4.604889492036881 9.24427853033945 -1.052967531790496 -0.6782806680963027 -0.9184379013103214
Ni 8.715737255240178 5.396829212134323 6.93340552321295 -0.8328934424795977 -0.1911520069599095 -0.429535436102957
Ni 7.808008531417046 8.909463124982684 1.8982439451096282 1.321526970296292 -0.2702715361008958 1.68589831099709
Ni 4.695100974417932 8.169271334704563 6.2620386648717545 0.6434558471076337 1.077484543095254 -1.1897075396584285
Ni 5.3342796199144775 5.413448579498423 1.2003898542336304 0.2367512928562632 -0.3794002100094627 -1.1959625194292047
Ni 7.450812563287188 4.434341803534607 13.55629289676733 -0.32961465394590334 -0.2703581822774312 -0.09689305107432344
Ni 2.605868630611555 4.635312012897362 0.5175089425497146 1.2410203309997916 -0.6052693087355834 -0.050453785775177624
Ni 1.8554865927857693 1.8311782204538862 10.624923673443716 -0.16956039683206284 0.05929606665715595 0.9470406526486788
Ni 3.5374703252804416 7.069030306983238 1.486076223390824 0.19570517354823067 0.2610055374179376 0.01273955905385548
Ni 2.3952454776627388 9.038564297550186 5.088582561292742 0.34189064309977896 -1.051957345358427 -0.7360461570415453
Ni 6.828781325254939 7.97183992039927 11.554474349197099 -0.013798082225356882 -0.8829312237632794 0.05771715220581028
Ni 6.675696015504799 3.1215044203847806 10.834024773963366 0.2921652508501936 0.5715590609673319 1.5797258915033698
Ni 1.471740397863542 0.7623861494369344 12.804752876265672 -0.9068748790630705 0.29643739586298623 -0.00350338516756816
Ni 7.3717825616243475 0.37905312273345765 13.418903347399016 0.24145409764857126 -0.6623760810509044 -1.5297014799561268
Ni 1.6353216625877762 4.5296391458280825 5.954108838090291 -1.572304659338634 0.6481421968397095 -1.3152066845052188
Ni 5.577215121450798 6.302760746844502 3.3230091545507188 0.0878733640742164 0.07720431439614446 0.4924999527506357
Ni 5.181685294818906 0.17076168370077519 11.610606864620339 -1.4081134972382845 2.245110677473611 1.1223315242066156
Ni 0.4856671981216854 0.28055882186843706 6.264017425668283 -0.09100419639371425 -1.7453291034598972 -0.05946884478959436
Ni 5.813035977426566 2.8670446752581937 6.514838326034213 0.6724046689315001 -0.13505542107665772 -0.5236020734720789
Ni 9.148415166114008 2.730754746238886 12.556603673529512 -2.185751361678687 -0.9898605760276823 -1.335127591798862
Ni 1.031744036478207 4.327362732006945 8.364231150786479 0.8306005326803632 0.07749742015653105 0.38854613817478895
Ni 8.433041260545153 0.896535200085092 10.754259221704814 0.8967267348854749 0.761568726792682 -0.03017832335559319
P 6.090544209733689 0.8623886069390093 5.260939481927797 -2.955519593563026 0.12190242863446747 0.6448447570353605
P 4.9693575913712085 3.39294482347034 8.393910709962121 0.14571187234923938 0.07766454186201463 2.5097658958289935
P 8.497332458709508 0.07885028275154575 8.335716985375832 0.23950288745947135 0.6892785618687032 0.9635947003526181
P 3.2505407459224327 0.06641910712953589 0.24499948985779174 0.16999388482505562 -1.206985867122902 0.3701987460158528
P 0.1838413296212728 1.4544077131711053 2.753357641685746 0.268174544362551 0.3336086055966448 -0.3987346486720165
P 6.036313565057299 7.755658450606273 1.678431968031241 0.3279241536173578 -0.9472946776410137 1.4462141607647478
P 7.458103222214471 6.673732076886521 9.50059104774743 -0.5058655754242644 1.6313631560636874 -0.12218396443062828
P 6.383106216827133 1.9625305113432803 12.584303545522486 -0.5660921243154896 1.1089579311131867 0.026894767508314973
Ni 7.422289134015134 1.7007615795665958 3.791593792237956 0.15370337519514818 0.5164374374028395 -0.6343991362220042
Ni 3.180144663090886 6.611191748528083 5.35712430214406 -0.1890789264809647 0.260240634227455 0.04178813968037964
Ni 5.318188292650575 7.549898824896115 8.945162341300575 -0.04049256079740768 -0.11104440287404102 -0.6721298180035585
Ni -0.02718665407102793 2.78936719736077 5.204061225661297 -0.29442036543295746 0.22561635928536627 -0.34890615518566365
Ni 0.9979679977884028 4.336246775096226 2.4727626907578215 0.6210054885239177 0.3052033149810744 2.4796225394763938
Ni 6.5585544880136935 5.331991446146957 7.94905360049655 -0.8413300032827252 -1.2737430180437934 0.27887136195476486
Ni 7.575643095746077 5.708678578677075 11.498951395854439 -0.4047762268804061 -0.24145461186920353 0.7427400241219531
Ni 1.8460374541506623 6.509048412654859 13.228391111178585 -1.4181099463293643 2.1325701496700176 0.26362831975276535
Ni 4.854198530221194 3.7504557628880346 12.581483626110204 2.4548013666676565 -0.20034267232024205 0.970453118035348
Ni 5.134661934317139 0.7037811094041757 7.538132794523125 0.09696169952872978 0.647585295894975 0.8991764819775482
Ni 0.7416036027565431 7.000292455343538 5.75464863813687 0.9684065199189645 -0.18746350236472875 -0.738049303514503
Ni 2.8807922455861337 1.9931012539862736 8.472238510930314 1.4562170376137307 -0.1666223972496614 -0.4074362902110725
Ni 2.5567238458475914 1.2438864626977657 2.2831861045394954 -0.41630351079371525 0.2642307292234546 0.5404340574277532
Ni 6.398104408445014 0.10828064405534124 9.82335324302759 1.0968094686761112 1.439479413144076 -2.3050757451733337
Ni 1.3915987328318646 8.515026433996816 1.4996079457479818 0.9250543781855746 0.4436371656116618 -1.7564421826539236
Ni 4.390570058386684 2.2884516833632156 10.398549176944632 0.8320382935681541 -0.3413419696851605 -0.8443358799885845
Ni 7.428060519671676 2.4225646049518863 8.905585272597728 0.48063148344782386 -0.5942377335117701 -1.9141850180257678
Ni 5.393040292818873 2.8333149558754243 1.6350039121415174 -3.0048143260330957 -0.17445397747893826 -2.583386349528622
Ni 0.3667609050325523 7.411441152307576 8.328138220358792 -0.48511394469920976 -1.3253023781783237 -0.14524316024293696
Ni 7.212768380573747 7.557828690260479 7.3845685431382435 1.483633996174103 1.9863705390510824 1.6316835155175833
Ni 8.333630763786983 4.736000922529693 9.621980982079771 -0.41188095624598736 -0.4065888546091127 -1.4134225681560237
Ni 0.3201933265120074 6.498728471047496 1.894814463616769 -0.2383528330154282 0.19623070703439752 -0.16485065006121932
Ni 0.7095043229814003 4.76595098645842 11.845591193911059 0.39658906308392344 1.2014734219451049 -0.7991793380566042
Ni 7.7961785804003485 7.067427658959832 13.579070879194783 -1.2641255495586876 -0.7863166231613232 1.032032838520358
P 2.4200540985105983 1.7440701316441694 6.175303909676738 0.5796220404811244 -0.1752780160421304 -1.1125394778168582
P 5.038771704893617 4.7669700112131865 5.512451466354687 -0.26236050878393524 2.8408807884695073 0.42681058097262625
P 7.903444831631627 3.338436262951742 6.90932596825782 1.1433402652477986 0.9103432972276452 0.14252653264272228
P 2.1163569300059777 6.112397658792725 7.341682423140828 -0.9009739401976031 0.42517715913426135 1.1167455454784059
P 0.29420819526546316 4.792927350875511 0.4739011677486958 -0.6529527308544755 0.7274558442693729 -0.3734493917426665
P 5.645563890911404 5.790209822919797 12.535628438531857 0.16654320727229383 0.7013897433099404 0.14820712796726732
P 0.28201046895090887 3.2134667725717487 10.257634728310967 -0.17784886209310016 -1.5073778767582622 0.31405253784158815
P -0.021399519850095246 5.115550588234564 4.317084477775914 2.0386814326396565 -0.7988641208090306 0.3719054442943143
