# total energy = -340861.6785008033 ev
CRYSTAL
PRIMVEC
9.31210701725286 0.00000000000000 0.00000000000000

0.00000000000000 9.31210701725286 0.00000000000000

0.00000000000000 0.00000000000000 13.62920990195307

PRIMCOORD
 96 1
Ni 2.262851318509019 4.144623281347302 11.028211945089733 -0.9596760820245019 0.21622051989276309 -0.4106771657458733
Ni 8.849248742690477 6.387770181397282 4.541048058179973 -1.6833133238787332 -0.38768070485070005 1.3803782361065453
Ni 1.2531395540885726 4.682322965024932 4.9751114403857954 0.3770772183032409 -1.0827776731733934 -0.043406906230725247
Ni 9.264978448590933 0.08370373639072276 10.184699873169949 0.07629234410483635 0.3548659723135243 -0.5355559033998455
Ni 1.5462753710413648 0.42127972168570516 2.637660832521688 -2.69451791279983 -2.5707910293621143 4.7644027676254845
Ni 4.148674047901973 3.9523841439803773 9.286398157163466 -0.9037741286505596 -0.7288936051571641 1.1275542060581354
Ni 2.4155233131384874 6.279014083484653 0.8311055517340667 -0.8237333732468846 -1.7766225142565404 0.837356363346958
Ni 1.5126586646911129 0.8352391960412349 12.036513856507014 0.5895729810462491 -0.12931003395244828 -0.04743891020825378
Ni 3.5917727995445032 3.733018838857695 1.2712804697785798 -0.35670456818415985 0.4261168973397113 0.2565567576179646
Ni 5.018052359497406 9.286191428387573 8.87390999571745 0.28960571765313353 0.4336147483786532 -0.4034369392436923
Ni 9.09337494038527 6.3982928623324025 2.193048695481082 2.861572255380588 1.9732417149786081 -0.8598787128191901
Ni 0.6114422591866729 7.580287918771135 8.706543496206901 -0.6146096122999027 0.6257872261832771 1.478859457603595
Ni 8.326643984495883 4.771505013976833 0.847514415517939 -1.0638301855366132 -0.6163600193321062 -0.8507086162841477
Ni 5.508223048933573 8.722585462974099 0.9043303740926737 -1.962178515185911 0.1621360793435337 -0.1664357351601521
Ni 8.953078735988345 8.380393466228197 12.511723714801265 0.46388280323457526 -1.0300800856693615 -0.816020320873343
Ni 3.6910026119733907 2.390808981101488 11.559600813838397 0.3845190192932668 -0.26992340873285775 0.4513450757788807
Ni 1.579994510568861 6.537639231813058 12.186313066120125 0.00941486555599669 1.105294880439303 -0.12167540022532594
Ni 3.0289956116560064 7.633432113547004 5.80987292533679 1.2659299497572778 -0.15180487262085468 -0.006870244757272039
Ni 7.590084255358521 2.164841392100044 8.804360662000517 -0.5942868415821506 0.8605371723387953 1.688451416436247
Ni 2.972256943569557 7.621577801307705 8.197410563241368 0.3499147989558361 0.7861083638052592 1.0758763180678697
Ni 5.608905550057928 7.866635209704721 5.719756872050559 0.25484131758875467 1.3696683058882089 1.5092303565859684
Ni 0.980183073052954 9.136536556433308 5.218038238696125 1.0814399281985763 1.0031796617340916 0.13128104163589002
Ni 0.6041685723916088 3.064567860480927 0.24094145709319043 1.029567664809317 0.026356635616657836 -1.4329842923380354
Ni 5.5148532691334005 2.818988974090666 0.24545224173475885 -0.6045411723203072 -0.5929665801088304 0.03787980576490896
P 4.0090948757457605 0.05912256748414106 6.886007949146806 -0.5254252427237467 0.11677539182054728 -0.821376957199566
P 7.2139961890517 7.269878143292106 0.6935713182799365 0.5865473068460478 -1.5412639879827457 1.1128117576416383
P 5.969386524995491 7.4550773277502245 8.028449831008615 0.05473827208314443 0.3514793152294785 -1.279038462114778
P 0.3019664880419732 2.6622382765854606 10.385430720930446 1.7775550533731388 -0.5879143623969036 -1.05566230501384
P 2.8277423546915625 5.749797729304274 7.039841163521946 -0.594015590198635 -1.3010365636524237 0.3369327848738713
P 1.9177632564792035 2.0759759547868986 5.057991055305051 0.07676002776987424 -0.6943963427112427 -0.4759729016298899
P 0.17179347518891608 6.326468580869939 10.46325386173663 -1.2020845731665426 -0.6185079189130445 1.0348973045523466
P 7.586927451077984 2.2344866405193056 4.586638271739408 -0.43580481405143656 0.15557179586245468 -0.4905289450671939
Ni 1.6846625934987312 6.86421482508268 4.056434834214674 0.5780212716529077 1.8363140165799021 -1.4765228390506184
Ni 7.6597015674567155 9.266226270931911 0.5221270471043541 1.5721915307995376 1.263078853461728 1.6069178785371294
Ni 7.378466623278333 3.2858328354361444 6.39883203332899 -0.9985992414522608 2.9011309915098167 0.42603667892107916
Ni 4.692184486361475 6.485370375097279 1.308392941104977 0.730065256867762 -0.9757164233168164 0.7250333508708093
Ni 1.3214717954176998 8.34191584001234 0.6423091003332603 0.1076790859462339 -0.1848062672475398 -0.15344986442344538
Ni 4.685954686763602 4.765871189228385 12.686818331929562 -2.3464751340557264 -0.8354645456408837 -0.029988318831974156
Ni 5.288308329496578 2.3709928173581813 7.616561369254829 -0.5670310911899913 1.3054861147833452 0.6128406933249381
Ni 2.041344228771224 0.5302695534845924 8.147514431394853 0.19875218790467064 -0.023974508537726452 0.07936609793415364
Ni 5.665895645033978 5.519025093079359 10.586475386697593 -0.6894348849409093 1.1640322463795114 1.2184542727738177
Ni 7.760737928647916 2.3756581829763186 1.0228995703853294 -0.27456836370403676 -0.6567852172266881 -1.4668614047014543
Ni 0.9775291225516183 7.032438038439273 6.525665724603875 -0.8833947936632593 -1.6506369166916348 -0.7809273338249518
Ni 1.4770491674381037 5.403238354364947 8.934110905194764 1.694512535028662 -0.1589751651170488 -0.2726174106252531
Ni 6.140533739957063 6.401291360793561 12.769602032146489 0.44138385080111087 0.8310872425087946 -0.10802541354205913
Ni 5.742217674188178 0.554415846993236 4.126311022888086 1.2410889794541982 0.9224843034655532 0.5373477051929456
Ni 4.514258057487718 7.243860116271993 3.7873801260213695 -0.8814117017949594 0.30319528341211005 -1.182516678336944
Ni 3.5733348276404873 0.11993248876071029 4.5605103618564335 -1.2260585674836368 1.5264683177308098 -0.12976974719768616
Ni 6.300301560137472 0.666606249975664 6.5676577400099205 -0.8428307561979679 -0.8551044313589983 -0.4284180346690622
Ni 8.385757239873001 4.324188641056972 3.4587391074142166 0.0009348531094435511 -1.4209800687883076 0.5654912575066972
Ni 3.5941566989421943 7.7460527358738585 13.101009677749946 0.7240303635275918 1.0640525859600642 -1.119099904643195
Ni 8.255341181026663 4.292788216178011 10.441105946394957 -1.36499146923783 -0.06244721069162794 0.16857180766654842
Ni 3.3124095888775904 3.2893993724256587 6.0800590545332955 -0.30568591104444776 1.5028643051586248 1.5653210289319492
Ni 7.998038351895414 0.8383429213117444 3.011292364996044 0.27765934392453473 -0.1776128348228941 -0.3662564735386531
Ni 4.613227130919983 6.019932641912158 8.602007645196746 -0.026239650422819328 -0.04862958808224528 -1.985338498242142
Ni 9.042642581328158 4.172783092982527 8.224124204656041 -1.276637308872453 -0.9122795950184094 0.24365290507210297
P 0.2416836320228622 0.9657679313825412 0.3247429706076466 0.2448587524547461 -0.8005677337636986 -0.3555578561742263
P 6.926093776245402 0.6905970312970361 10.421534691066336 0.10686121803062887 -0.04630711059665573 -0.16609223577780427
P 1.4314291551361966 4.92145787335581 2.3723551786155337 -0.3652540004160677 -0.6615929230279767 1.100460435165137
P 5.08807940430458 4.342989785134855 2.755213146727516 0.3181781299741875 0.9370169498640896 -0.6618454053584151
P 8.837729666303977 8.530905052028507 7.153931236336909 1.8340987540961382 1.3412974680549998 -2.5203886656501626
P 3.096052094323088 8.274431000422236 2.2082590910911932 1.123278204390601 -0.6794145245904298 -0.3114804062390377
P 9.174436832013786 8.360223442418045 3.395049882646374 1.4601806502471693 -0.6440711120941295 -1.3818581630861813
P 2.005064259812614 8.480088884008195 10.30850712966261 -2.6294345500369363 -1.1875460132307354 -0.51075581363703
Ni 0.127396142539028 4.795865485946988 12.355532674928094 -0.09967344203293801 -0.23024948718200344 0.1615167005919799
Ni 1.7505736870020783 2.996682600288867 8.157572438189565 0.5776381772818762 -0.23263315692283162 0.7719073897145287
Ni 4.342077198646677 2.703220859590297 4.206260117727446 -0.7707961589282208 -1.669692647771505 -1.0789151048941936
Ni 7.025304964460244 5.979471536900566 2.583552834669018 -3.100525440984176 -2.525046733247464 -1.0272665274799664
Ni 5.874375097047673 4.184590844686715 4.778141752651577 1.5300244105131844 0.5079134590922284 0.015033754404670885
Ni 3.67392420769462 0.07865098712046052 10.777815905736873 1.7881755092014626 1.2958228806619683 1.1721196513733363
Ni 4.280840782868489 1.0574363129093778 2.2635255150574287 -0.001316404818578378 -0.345929846166159 -0.3041211376604891
Ni 3.2661004806560383 6.381261018588743 10.455143947730969 0.1894288536212157 0.9009849959411967 0.794959900658618
Ni 6.170639781959935 0.7417428479059347 12.619135144459884 2.353586548289527 0.1845391296290822 -2.7869228461958135
Ni 8.462684555983646 1.468137481017829 11.846018876785353 -0.5504844996852197 1.1476347788580945 1.2128919481946918
Ni 4.606438604900776 5.752749667230321 5.8769834182246 -0.34895860569015386 -0.6404466279676647 0.19927309340514712
Ni 5.881610604203947 3.3035351508854043 11.086735744092346 0.48303443646236166 -1.264956530100415 -0.175007278879247
Ni 8.359422601214133 1.5018379963312811 6.80488739124405 3.388128269274668 -3.4503466517849417 -0.7086801063237667
Ni 2.3231472114779614 1.2758610952228149 0.9881644799817078 2.0930314681454467 2.0076433323869294 -5.471126778664145
Ni 0.23579465554200368 2.653736322874164 2.3685390771578234 -0.48401685498028896 0.17147715423880144 1.4355438255350954
Ni 8.004473017847776 8.539090394101047 5.0674353942469965 -2.3397013056670026 0.8957995950855153 1.7158035831969547
Ni 7.4210415765839715 8.919070921143161 8.50348182805874 -0.5405716114468819 0.848883390149951 1.646766635102951
Ni 7.37160360040295 6.18247546998519 9.165766329165388 1.8456602336814922 0.22706723279927993 -0.5247423577241093
Ni 7.126006089798644 5.77274276100705 6.881252256090553 -1.9187829218090955 0.2163259351223758 -1.1025702824192882
Ni 2.325223811343919 2.520042402356002 2.9314382536483117 1.3858983945938261 1.790604173247613 1.8223287580444034
Ni 6.2258978250298505 2.5039045208864765 2.6482645287879016 -0.22215102644458515 0.3405714100677231 0.9958548459379042
Ni 3.2531473397881157 5.2306850112430165 3.6383035359131846 0.585054010129973 -1.6612416887906745 -0.5101744872122633
Ni 7.168785909458772 7.728499414136954 10.856783504496088 0.8205819721020966 1.021927117544924 0.5087457251855367
Ni 6.592925211204041 8.110528604723958 2.886202831366423 0.6631558966397224 1.2092895755554143 0.3077947298573344
P 8.95819108274355 4.988803031340581 6.363914425627732 1.2318957429907043 -0.21782257427256035 -1.37347765233197
P 6.308226163213389 4.2668446860140765 8.859681096187481 0.5879634704672841 -1.1974882120451118 -0.5442588304904821
P 3.683217690502806 1.9134610630349331 9.083391430446737 -0.9498979195918157 -1.0012117393744435 0.6550144984795107
P 4.349042654699304 0.9282000980227569 13.269234753527941 -4.2148204680395605 0.5795096832729763 1.4859942688761634
P 5.130114255402927 7.873516856794149 11.38288402766683 -0.6965653253381037 -1.3472434012257892 0.3617696414118931
P 6.5151691175684165 6.353464379127385 4.60535095080058 0.501108263244937 -0.3454652478249147 0.4218059286691832
P 7.24860929085333 3.3350286968345877 12.716502535484326 1.2830882067041192 1.0230026099972898 0.2286985977551158
P 2.318975387532002 4.179087389436577 13.210139191154164 0.4443462758635444 0.9585566237080784 -1.1544286618514763
