# total energy = -340860.1270931409 ev
CRYSTAL
PRIMVEC
9.38668656114530 0.00000000000000 0.00000000000000

0.00000000000000 9.38668656114530 0.00000000000000

0.00000000000000 0.00000000000000 13.73836460305663

PRIMCOORD
 96 1
Ni 5.4106175768211 6.1512177638283685 11.559844424419044 0.9218371567998576 1.9759508863796553 0.4305440798731295
Ni 0.9236114772145215 5.137061368884967 9.519367427351636 -0.23570125432519407 1.012445917527366 -0.9077860780234301
Ni 7.6233787586354635 6.509610845364567 12.741248108073354 0.6155385518720754 -0.9837102401555704 -0.09766695312587051
Ni 0.27532841436849403 2.849873148923344 12.081985437897165 -1.5172933360997611 -0.0324231535257119 -0.01148743181430925
Ni 4.5031596485973235 0.09764688481958601 4.000721290317979 0.606606282379452 -1.9699735857502976 -1.9325496365758845
Ni 3.1734979432483623 6.177002991951778 10.466243807334221 -0.5833005177739761 0.668203743476275 -0.08858710231178936
Ni 1.8721370980348517 8.300074383187626 0.7441586799019122 2.527333729509428 -0.3276989249804292 -0.033041246725685036
Ni 7.014595811721771 6.567085527490393 7.4291578872760535 -0.4092754003023403 0.1970678582237122 -0.34668935004000295
Ni 1.8349939791108125 3.893813500486905 6.833009420542234 -3.071123333672975 0.6038875978967083 2.974383777457381
Ni 7.224040950097329 5.203293829619874 1.0373114734781035 1.8198193613589884 1.1026067920841784 2.529654921443437
Ni 4.0707056096917364 2.2712496260942956 7.353569715994879 -0.9907802596284744 -0.4666883910041705 -1.4900434992448723
Ni 5.191175617203665 1.7067342932432181 5.252795460137389 1.633842470842115 1.868393156502634 1.097089461810375
Ni 6.518077636688672 1.2963389678760424 12.880898538144718 0.5597309579841522 -0.6790828522826241 -0.5972364111287779
Ni 7.879738556698246 8.524350486410286 8.492548392168526 0.39724675127258036 0.18653019191718198 -0.08551309137215594
Ni 8.533277225378383 4.725549027810953 7.371086211881699 0.927332375586474 -1.6737866153352206 0.2367592632760632
Ni 5.672327786252774 7.5792801049318665 9.533202464749193 -1.0770633963974354 0.7278181127047981 -0.22176278986723097
Ni 1.6509116679611207 1.0326669409424414 13.496857606973354 -1.3089912997231261 -1.2707877920702115 0.23866676471142123
Ni 2.176293904326396 0.7064504824438252 2.3984298430015 1.5460477825246342 -0.280851111388955 -0.14741677085548804
Ni 4.732485789217288 2.378267240158731 9.376420392942105 0.7327433179205574 -0.15792152704155382 0.546564081584891
Ni 5.9639345925439535 8.567735751931364 6.705929641181779 -0.28445656935202623 -1.3223219553937613 -1.4825453910956146
Ni 0.15113034779795098 8.190653777350496 13.103144301053183 -0.5767195221223487 -0.6354239779420928 -2.999816101487556
Ni 3.888960583508455 4.655655759297333 12.515993912105712 -1.2582341237749168 1.2254957530016313 0.14063702892949326
Ni 4.315876477312909 7.500807404854796 13.771336526203454 -0.48281306448017497 0.020813851421557703 -2.1881196048005473
Ni 2.434333919292743 1.6932831713280936 9.171800950153822 1.6034605161161484 1.289172465224986 0.29830350253744753
P 8.670135116182651 5.781795325522964 10.897463496950317 0.4763038026067475 -0.03999530944601499 0.1151622816971565
P 9.398983171551583 1.513518736019963 3.5524797831995185 0.2268008665117707 1.3079785421878956 2.0912057277906175
P 6.410947382384892 2.705111667991696 10.691195751992952 0.9740955998839419 0.04272453545171997 0.6491467268448239
P 4.152895437667194 7.628513276212276 5.563831769046934 -0.6798035324987324 0.3422629388375331 -0.12834792714949508
P 7.513404338288221 7.737117240314156 5.042158212562096 -0.2900875423855585 1.254968822760084 2.718486764910602
P 3.316879581248033 2.7496327225928376 1.2965004188857703 -1.2128065875697371 -0.26503908405736293 0.9315788095676537
P 0.6809252655395696 4.594773709931319 0.6698583620239158 0.22057776842019428 -3.949333240701185 -0.13474611736635503
P 9.226784405652799 6.669785265713267 7.613788380923891 -0.3581608410147122 1.4802763925557798 1.102349938878366
Ni 0.3434363350884948 6.525718399590913 0.8222493418338704 -0.4973307984803757 0.5977709434760092 1.1751700081638856
Ni 0.9756803665204445 5.172655684518012 12.280380568792971 -0.2275104909842856 0.9784659610374956 -0.08709072027192098
Ni 4.248527000871165 6.224368212596383 8.136917812502267 0.3188877544467024 -0.714971081538801 -0.21399420166540564
Ni 3.929088668775138 0.34753550113199444 13.189077539649544 0.5442169215089531 0.0728493798615584 0.024161941958184194
Ni 0.6350187359944836 0.6107353777290073 8.882594319629353 -1.466305017977352 -1.5758970046755827 -0.09365088998794194
Ni 4.6892319373087785 4.40765011231931 10.327595875393028 -0.14035960689839053 -0.9470673921215562 -0.6600937127746309
Ni 2.694786312718397 5.457250635909961 1.3266222962239662 -0.6668965946290772 -0.7214577177044091 -0.10853989128463243
Ni 5.688698167704258 6.276924270937474 4.987796155716839 -0.0747774501222067 -0.5974696101855065 0.9022090981562849
Ni -0.04795752056982773 9.290660808048068 2.3179230479355897 -0.8155279546179569 -2.266268028277516 -1.579336369374435
Ni 8.62345512366073 6.756124009171267 3.6559576777425344 2.22766548541397 1.1988825212894771 -1.6200204773573585
Ni 7.5181352283407135 0.5539778384603454 4.461739955252816 -1.8276013192972524 0.8888375619453854 -0.884049910748755
Ni 4.906533732378655 6.190951608257344 1.7112915295933877 0.7026089604290222 -0.7510634563859839 1.1524530261823442
Ni 8.382301757909532 3.801532984403451 10.146496653248656 0.1782630668123833 -0.4214889116493967 0.8758252088461175
Ni 6.680824009169084 5.355564659841193 9.535784742236181 0.5818815259392625 0.9811234532650007 0.018899408007664226
Ni 3.5317596111719913 8.989423261292885 10.613065665977224 -0.44811962686304757 0.011896751437585963 0.179888004010316
Ni 7.732029656170402 3.605557741316241 13.303531286848077 0.3462201237130682 -0.0439154704360276 -2.1441408852267525
Ni 6.779956806479364 8.221451496124761 0.3896526252917799 -0.5241754294770457 1.3437050490552278 -0.6820594184124447
Ni 7.733390725729156 5.161804674794436 4.818663081665561 0.309557478184712 0.13270311879439728 0.29497855192927264
Ni 8.541058788579805 0.43264552731247335 6.555370942598505 -0.06906214490498429 1.5545496493480582 1.8851361802889275
Ni 0.19364359013276666 8.910941174529203 4.801242329982184 0.7884290415186357 -0.8137006716012309 -0.8282631427964381
Ni 4.739976365133735 2.767673934261274 13.563337876234819 1.7852431660460157 -0.35616463652028985 0.46103659203503183
Ni 5.487973261191331 0.2772414211000379 1.6802159648954034 0.48718625384720615 1.7561519051070142 -0.046281656675359
Ni 1.154346559494961 7.789203964324642 10.215861451306017 -0.1969339037490092 0.00685918901367851 0.04828814558242651
Ni 2.4783950262498924 8.736611630769472 4.716339749575832 -0.4281041029730692 -0.1773431261012752 0.7109277647073627
P 6.409867913424502 1.1181608826053548 7.2651771655061514 0.1065107766697456 2.1057031500758443 0.4421466971090643
P 2.5058698579634786 7.606839416824962 12.037761002592964 -0.18550406464551278 0.03892830163408134 1.2730344220125431
P 6.184812715213038 2.044016716588827 3.188028534123877 -2.1211770773417276 -1.4351154797484253 0.8680293669507826
P 5.745825542425437 5.014912416001844 13.415100505250711 -0.6511290473821754 -0.27769045427278627 -0.7948868813288376
P 2.9031613688201774 8.10250340337636 8.641197838694902 -0.1817065452762935 -0.1504866680300634 -0.09977397216654431
P 5.978164809447882 4.783708938059462 6.828612696533131 -0.44467743395071807 -0.5389469313592653 -0.02708322937003723
P 1.8299721017733444 4.5149962604151685 4.646576017337459 -0.09187142949001598 1.1800324784625096 0.678954811345192
P 3.001852991859689 1.6046165295902937 4.856717647859634 0.12577990931200272 -0.3400420199268144 0.18263754173099514
Ni 0.2644529992597269 2.445579169854027 1.6748439641473045 -0.6101888575243879 0.24907870407336458 -2.205584594354531
Ni 1.9330003740276416 6.413894801981089 7.329115520033063 1.7524137782208207 0.3926326495393367 1.6189347004923473
Ni 3.5096821242603564 5.868650336744631 4.005776959727251 -0.5550592635400956 0.027492034772681685 0.03555707116900328
Ni 2.007211518382823 0.20403746821833363 7.1529208416435095 0.8636914016970608 -0.27809668857226943 -1.0837436366310886
Ni 1.8279070307186847 7.269791660644655 2.828386084599609 -0.25434458045799424 0.18788362062128286 0.6780400128404064
Ni 2.3219846672326407 3.034903515420857 13.0029226480959 0.8808992809349151 1.8305596305946281 2.885807730889185
Ni 7.028046933636896 2.3964492521263487 1.2738146746816719 -0.6730248190140022 -1.562736813144541 -1.1343935975774722
Ni 9.179710172293168 0.56245213913374 11.367219289783689 0.2854664986737793 -0.564769291739008 0.12463731106712729
Ni 2.187820755486042 3.6392465595670314 10.812093459550685 0.3929895186581232 0.6508727083969952 -1.3174075488112795
Ni 7.692183171502082 7.617211705531321 10.626419166351582 0.9102283689163356 1.083688872133753 0.11849263162197012
Ni 6.375315520005399 7.7250084145845594 3.258396768980069 -0.7460917142030054 0.79213657227721 -1.6926914226595235
Ni 8.145907442270664 1.573771877382967 9.496260220918654 -1.730522120354052 -0.09725403395816799 -0.43524996998923104
Ni 4.400816604465708 3.804386537133526 3.0124665184119785 0.5513198511023214 -0.19065964070452326 0.03937335959129993
Ni 7.259118997966709 3.327120456341823 5.863795542428858 -0.8656621522701866 -2.81959205429406 0.5983581834380469
Ni 4.582805684500904 0.2755837322443429 8.432443560453994 -0.21331157377608423 -1.3816380766555754 -0.3078893464536697
Ni 7.773593904488735 3.4256149589624805 3.105887516918802 0.924419058594421 0.5628993284098048 1.570340850744044
Ni 6.845522812464811 3.3201461481890404 8.411217446018075 -1.1601928180287633 -0.968829466388996 -1.1256371915410808
Ni 0.30698876964241156 2.842542146679302 5.426351540920284 -0.47594101995069 -0.26523628766983354 -3.1029664463255013
Ni 3.825393941771383 2.031973597665516 11.475820437879582 1.394613920089953 -0.4505202658847402 -0.18796975257718596
Ni 0.3152274644818427 4.78410317889717 3.0221376216284153 1.2531083725125776 0.0986282885978753 -0.49204589593235265
Ni 3.628855497487448 3.8677466717651323 5.88410082290813 3.971182989586425 1.1885356308375143 -2.8965377157121788
Ni 0.6365562752615437 6.603083470647756 5.585387356182937 -0.5136063957119477 -0.3550948004948788 -1.7350246362100956
Ni 2.074880142169378 2.932616791408915 3.1609366792240636 -0.050562543438900015 0.11206050284338119 0.8037695285304479
Ni 5.8488819747395695 0.5145171466117814 10.4565989868403 0.8207514078004253 -0.2000395392575265 0.729713015734666
P 9.489752431090492 2.4764425954345772 7.409800662144602 -0.5683264129626471 -0.7967982394189375 2.661023637697127
P 6.269095774302992 5.104930740611785 3.016793780940152 -0.287755294707956 -0.22239091036953312 1.3728302485559583
P 2.953530329180651 4.141190239461918 8.81211719920846 0.5353314460938651 0.18965871024383466 -0.38300849618601135
P 1.803867726305123 1.5023861256980244 11.2757357033936 -0.9968418924415219 -0.9090052951425119 -0.44483632812608553
P 6.082939005412028 8.299586275483797 11.974468452104967 -0.5293795993858045 0.17991885724825143 0.24291628401639456
P 8.01761020965662 7.3193627526431015 1.757549121217766 -0.1649144134196192 0.06282053487064665 -0.305878486671228
P 8.894317352539192 0.5378486948547916 0.18502379581688463 -1.4102549690613195 2.164858577390078 0.02801962514137755
P 3.9143515707941576 8.343365781842584 1.9989183807610418 -1.6268228449911724 -0.6819946266127803 0.8313626076573682
