# total energy = -340860.8079701294 ev
CRYSTAL
PRIMVEC
9.28031305166745 0.00000000000000 0.00000000000000
0.00000000000000 9.28031305166745 0.00000000000000
0.00000000000000 0.00000000000000 13.58267621953473
PRIMCOORD
 96 1
Ni 2.360577535219308 1.6352282713583015 2.8535709624129666 0.3018166578970286 0.6301650435359986 -1.187409230542555
Ni 0.43327182896278915 4.896423061703701 9.031556063370846 -0.1899045077060536 0.1792035763487817 -1.5661172995809995
Ni 6.247580952217768 2.2116934738052585 8.567408633066378 -0.17990882994592242 -1.5967257684954759 -0.17784963342404855
Ni 7.405578408008152 4.402487682740827 12.608133010613027 0.9082481052615132 1.4534785556366452 -1.600166932966541
Ni 6.335632561935183 9.054040405700459 10.031403993250777 -0.08250901443850951 1.1007376000859237 -1.5703087119545278
Ni 4.5860058722604204 2.7137120053886923 3.9972182702157837 0.31416592349100086 1.7083674386338839 -0.14310991595001804
Ni 5.639646208397312 7.053659658841402 5.262825595365179 -0.43035330401856203 2.0587180395755578 0.4126777411156699
Ni 6.898669151475195 1.4299199069212871 2.7521492057604875 0.1317124727463538 0.8001632992364284 1.0058888331351385
Ni 4.95061080929434 5.0177074722640835 8.89438468499056 0.127078059298136 0.4830524341844906 -0.901903393990408
Ni 6.241381703135639 5.450968164851276 1.3447294177009075 0.17749533540842335 -0.15963156775412507 0.6846058389833822
Ni 3.866920819672522 0.5710761246894841 12.098130625758104 1.1238111940759357 0.6593676332418837 -2.7276959422136957
Ni 0.20273400561159174 5.923261853904684 4.982247396301789 -0.40268232046585495 0.6313238397307902 -0.10518691565199949
Ni 0.24692314397905044 1.5387222965004381 10.881271856751692 -1.3692664424641 -0.10653828747357136 2.3970772724833105
Ni 3.4287694021358064 0.41210900320397853 8.731079945210164 2.2680552020849265 1.3414751312834443 -0.48921896800651876
Ni 0.1740531982937509 3.524273103189972 1.67948422797934 1.9715959518450688 1.533150871957308 4.30622807051928
Ni 5.764197289132708 5.254513219013589 3.808826988341362 -0.4400378782961777 -0.9284793447067236 -0.6191828334928821
Ni 2.363380189744462 3.242829050923944 0.9100163561296533 -2.0485948350986263 1.450462651628457 -0.37765751628674316
Ni 2.099717217181066 0.3297332329156489 10.488175430785073 -0.3943825423509079 -2.0199206070923856 0.4985474444962962
Ni 2.3568190084554432 -0.09317527052316907 6.016229245416715 2.4466658820447154 0.4551238260950226 -0.6473217578209433
Ni 7.5080980256881995 3.123261498268043 0.8961376480423435 -2.4179520590497905 -1.295410732825214 0.6296791050385155
Ni 4.299327723463973 9.404390781970683 4.473834729063286 0.17556675092714277 -1.8983745333560726 0.5435263231998316
Ni 7.442783182813919 3.0997730260721346 5.19025261969579 -0.41695425700383676 -0.37611793971376517 -0.1411047125945312
Ni 5.372818649101871 6.705898489897395 7.591113209542036 1.6717078784293211 1.8811892798260377 -1.1304461828939498
Ni 8.352188894348357 4.450160650607434 3.4030035411303854 -0.567758456274319 0.706715269287912 0.10172878190006997
P 7.017484998778323 2.863208567460557 10.60987652739903 1.003777957439723 0.8899382512087318 0.33785889623256654
P 0.9080786267758384 7.189885373327273 6.746786620931751 -1.3994280536491446 1.030256977566858 -0.3579196715381836
P 6.386562919663807 3.5905902198679507 2.7156525188364067 -0.07282521149184232 -0.615755810089204 0.09371773867013537
P 6.958517889994126 7.177551837353996 0.25167373620231615 -0.2523442621985138 0.8313122140354069 -0.3196140910897657
P 3.4787902891907043 4.358805249463016 12.937539576511174 -0.5160587139071823 -0.127302002383484 -0.5360840079891734
P 1.1327086028730193 1.1203008243957655 -0.10081482418246258 -0.46728000184158236 2.0450400278678327 0.35135898760153034
P 7.392233317918181 9.313629320858084 7.993649569889405 0.1497006817936583 0.2017264400416461 0.8793401639779113
P 2.990506620843124 4.87337076421866 3.974915822020917 0.8003756723575506 -0.02319777827270198 0.7849266847923321
Ni 5.498251359572 7.023684247860451 11.052657893090048 -1.0951549637918236 -0.44851789074273074 -0.5751598909447126
Ni 8.591537446859094 9.159102829141737 3.2667694743628166 -1.0380211948933091 -2.0184044275581754 0.42014499602699257
Ni 1.9248389990618642 6.284395953877652 13.686990741257205 -1.4012468520254382 -1.1130585835451217 -1.0802451365595265
Ni 1.3622107432937294 9.031322199483316 7.999489670858543 -1.7287264619062102 -0.018829474001677247 -0.3432070479183573
Ni 0.25341379488929083 3.1805210294607558 13.297833808157897 0.6013740874462352 -0.9149944228464112 -4.854060477293634
Ni 7.6425512003916065 7.312756717410176 11.336101852806971 1.6548692096054274 -2.4751470202035435 0.08216782904900687
Ni 2.388882489860763 6.834078173014696 5.008597917026034 -0.5049363787417757 0.5756365734708151 -0.7708241839526789
Ni 3.917220116117336 6.779658417599126 3.397896584888027 -0.39670990493250385 -0.005473364409745413 -0.4475416428723905
Ni 4.510547647280203 3.5208579480070035 1.355428690555377 1.5232199859968412 -0.1699172659508493 1.3340757534955798
Ni 8.631220065235114 5.584678914514907 0.8621076683129176 0.6482694664461932 1.248794575628572 0.4000988760093948
Ni 2.6485363672093696 2.8517845021610064 6.851210558838823 1.5456790863313057 -2.332736958534028 -0.49533073733121147
Ni 0.4029484062444442 2.0170017874370387 6.391694932751258 -0.2477954664855668 0.4632695951306086 0.18763190962179296
Ni 7.93282083031797 7.855868474945202 6.456511422817588 -0.23365388487786212 -0.8032442521545972 -0.10204528469922426
Ni 1.9753424623926161 8.552420927575904 13.23979473067342 0.8978827028667892 1.180691195092431 0.8417110407712278
Ni 5.595759608233561 3.1817089095243976 12.948948793309931 -1.0498670384883015 -1.7013488412242053 -0.6054359162204347
Ni 3.8010769989574014 7.262123329697462 9.29774884925728 1.2699557830872192 0.1305246230858397 0.4470076247457915
Ni 3.5590371556774767 1.4844231851538319 0.4903160568939667 -1.8656711295857804 -1.125877589686661 -0.21346069775943882
Ni 9.45905182552418 1.4217810724227444 1.9746770639507174 0.40245503494639717 -0.5597332719769973 -0.7309448312592379
Ni 1.663394021304798 5.171658584574604 2.2425542266461416 -0.19794511862234299 1.035431836899578 1.1396643590581081
Ni 0.005871654033327266 8.3387974026934 1.1393338183217192 3.321480904458763 -2.3789692500286903 -0.4671568460001567
Ni 7.353023995505018 4.24859225230829 8.101455253852656 0.08033283272279713 1.0841326445393908 0.06658591545034984
Ni 7.3227052129431724 5.302715164721035 5.778192929163783 -0.410714446741712 0.7853964253398991 0.6250925141090977
Ni 5.616018531506445 7.957070288179649 2.5233217440946736 -0.2183409086698756 -0.5991948204067294 -2.917033521672686
Ni 3.81105333542939 5.769004491265257 1.2521963448371445 0.40323047965984105 0.2713884233141584 0.6387836384429451
P 3.354007200630378 8.376614678156983 1.8571864453435893 0.2559098680625851 0.02196750541002668 0.038652936485507626
P 4.591954552891624 1.9629161232893682 10.079676469337004 0.15037199682907007 -1.7486681951354595 1.9791809632811783
P 6.853074973719961 5.926927577538577 9.651306501699334 -0.5531661602824409 -0.04968631148153378 -0.2257508279807015
P 3.511791082208741 7.774981266861624 11.332936338043627 -1.7166286502014112 0.7195193630311156 0.5680667315433572
P 8.46104696580549 -0.15644473241286713 11.770896581132602 0.8764731268427616 1.640890121717516 0.45704932525250963
P 5.160215958649058 3.625623401432373 7.237949970402361 0.32749992159574565 -0.70875492542576 -0.541853563483099
P 5.605049201543756 1.151334191058396 0.4666141374991226 2.022797157309232 0.42118912102079076 -0.9755261616828813
P 1.5711198691736568 1.8130205077586237 8.505811483578777 0.4025033716858294 0.3663158660216788 0.4666616515312931
Ni 5.139270292214382 1.5757043437942726 6.042823838372787 -0.7159879528390896 0.8267287084297825 1.7046442241460256
Ni 2.0690365024123287 4.8235540440497005 6.254441887616596 -0.0804511034682163 1.9621510043820856 0.30360897391076097
Ni 8.88487886038753 2.4314141643269216 8.912245575384969 -0.8080321604615439 0.4281904920392884 -0.7425489911570695
Ni 7.420844522888543 6.82740562796971 3.7972813509415473 2.101587328135258 0.18434346867850832 -0.4931512131813895
Ni 3.355928225420798 3.3253588744080274 9.057390598692447 -0.6976827267719984 -1.8550079934449795 0.04023442204001458
Ni -0.004581690526716723 3.7819317132441816 10.955515288760576 -0.9825740696685981 0.7369280454258663 0.7195137066041608
Ni 6.414431699594393 -0.13783770485348487 12.370191353552665 -1.2498950077816022 -0.43662782417336415 1.1837644347011163
Ni 1.9207556613430967 5.277918168392522 10.98100923659518 0.8563509021715898 -0.2509867197293549 0.5454862751396798
Ni 0.3261176229719405 9.02468677569032 5.2471919800901 -1.1052848531369739 -0.2536778934082728 0.6413920226000696
Ni 8.464285795041514 7.042671768252718 8.780616399926608 -0.535933084233606 -1.1828416657765306 -0.9128287826536603
Ni 7.343984970645748 0.8931865085092345 5.952743552234183 0.5983916077791436 -0.8621657090811539 -0.4077918737782783
Ni 2.98763900412699 6.971955783214069 7.152786394089674 0.5672275234715135 -0.6357960165695308 0.8433357208588445
Ni 5.018589101998817 4.1796673676781 10.85034428565723 0.13941678336914698 -1.2070185201330503 2.1856976256226166
Ni 1.784938280629102 8.680786216953148 3.374344078532438 0.1432515837342049 -1.01264157847794 -0.2807189566864649
Ni 1.3152616398409038 3.5076242216729994 4.3745994141529465 -0.3055090191469512 -0.60671401160191 -0.2434819267118774
Ni 1.5623963749562906 7.199360572897412 9.303929537713412 -1.1023921049702112 -1.0480096735645887 0.39175821735418337
Ni 4.520895196272078 5.058967743849626 5.764393103736949 -0.8049676626036072 -0.647497107056543 0.5085521211174919
Ni 2.220584013656574 2.533042871959239 11.230278443699921 1.5509585895626903 1.5770830545638839 0.904714638186958
Ni 0.8664833358910965 7.51747114181537 11.630954101291351 -0.4968546301749056 0.02147179672053076 -1.3613271330123653
Ni 5.1287000157105735 5.725851035828285 12.913036766104673 0.8168782979982642 -0.28185821249723075 -0.5177283883001212
Ni 4.635859713681369 0.9746091906527518 2.4108703354450243 0.011775909589005526 -0.7213661864318673 -0.3736689639526403
Ni 7.643748360768245 0.23796764193675424 0.8258949589665507 -2.9890555205369425 1.389931169902303 -0.8719351297630918
Ni 4.139780582416142 7.907643341156571 13.423500382515556 1.6136605965776016 -0.9460055265159449 0.7670929990450209
Ni 8.960903184460578 9.015703432709032 9.635509552915504 -0.6701058455949943 0.3065423455074721 -0.2925683998258832
P 9.307968329929793 4.438634501864914 6.71363177471796 -1.9963019392321812 -1.4701282483781843 0.49394902649233635
P 0.11399286863848396 6.87099525811755 2.698361439660027 -0.012485276951204303 -0.43088989324832244 0.8730975255023093
P 9.300544079532036 5.681556101892658 12.361580151122565 0.29045058215193204 -0.7541788620865141 -0.7261391823404785
P 6.5725960740056415 8.76584028557247 4.081010216267486 0.4042069846404974 1.9528184141272498 2.738089369632878
P 4.331270560800329 8.727104259122164 7.050087666368779 0.9609750033415838 -0.40169141730749525 -1.022077269969543
P 9.019749649175811 1.9233077474173266 4.224293608787726 -0.41743196797120363 -0.5090285465332781 -0.26546460163055574
P 2.8130206347717097 1.7289037507520195 4.869389509942863 -0.0805349214312742 0.310571264161207 1.260373538715423
P 2.6133268596979997 5.195360503969448 8.686746033959949 -0.6529108218729466 2.1212668088420563 -0.36973774721903424
