# total energy = -340870.39134836174 ev
CRYSTAL
PRIMVEC
9.22328235370477 0.00000000000000 0.00000000000000
0.00000000000000 9.22328235370477 0.00000000000000
0.00000000000000 0.00000000000000 13.49920602831408
PRIMCOORD
 96 1
Ni 0.36035088072390276 2.099671040369282 8.18969841469938 -0.23565934534366514 1.6097185812107182 0.07761543379163408
Ni 2.043123095293731 3.6553436549514062 3.000427878342269 -1.9468840509206857 -1.037671267753058 2.2387582528930214
Ni 4.061776822085515 7.650823522347139 11.580536773797478 0.13493560766934182 -0.37966837606918485 0.25917748307026334
Ni 4.576260743837155 1.4605160089151112 8.192411904414145 1.0537350060841402 -1.0253533696176536 0.23252697036227052
Ni 9.087036181845503 7.767175231224658 1.1158253395668043 0.6214798570571749 0.9232106401086164 -0.7839820614908757
Ni 8.215924818519692 1.9325174914206262 4.341506990379898 0.3348525053060749 0.22577011125441118 -0.4385342971674576
Ni 6.0226928003578175 3.200349905396359 8.143855011306211 -0.23869401840493087 -1.7950586094745407 0.8266628881888537
Ni 5.4323750497999175 3.954427036938829 10.234072187101617 -0.12107710451969471 0.015868334490824285 2.044041411399989
Ni 4.803863686363556 2.248986760941471 5.809221771294922 0.43049702868527795 -0.260786479428596 1.3994663630862478
Ni 6.609450363866432 3.9398634738538028 0.9100907998742197 -0.30198326538188 0.43102076239923187 -2.5798695946246153
Ni 8.711796156163933 7.927531220962633 4.062585703961739 -2.7000023329531695 -0.5247423577241093 -0.1751260638452984
Ni 5.38339941966598 0.5828791732126973 1.8608793338286655 -1.128944915758075 -0.3845910101817828 0.30021537484817973
Ni 8.530881469708717 5.360903833621408 10.922248042774031 0.4324418111164746 -0.8542287136222643 1.1520349648083192
Ni 2.5491769368302255 6.270614634256171 3.3698341778355694 -0.09956468436921562 -1.5375526005694293 0.7733191824603907
Ni 0.38154967324741373 5.755438966316199 2.178245106409589 -0.6310263630950294 -1.0453025590460707 -0.11815041779120297
Ni 6.174886185073469 5.394015417836255 2.6423883522156477 0.5115068328704417 -0.21359439512382572 -0.5721779254982532
Ni 1.7305829441226146 -0.014350505259019658 11.194662303380609 -0.9998701377448844 0.44753855754859695 -1.3271404598283272
Ni 6.1114853410921715 6.3956085588465905 11.054149283637013 0.7701374422982994 -0.8236248726934783 2.092611606999209
Ni 2.7700561064060354 7.226183595536119 7.770210613499062 -0.6824664240428763 -0.1533519053930004 -0.25776697587598185
Ni 4.235469678334541 8.74800676330251 4.422164595939463 -0.5917033971256905 -0.05897339321041457 -0.4141399274834932
Ni 0.986734432884954 2.273456129443418 10.953957688047192 -0.3706263204715746 0.6115733965767403 -1.0749298949942
Ni 6.3711853067572 7.88455072446091 5.884169242651865 0.8734433388775023 2.3118475166795283 -0.607669947757276
Ni 5.213737137874305 6.280760245018381 13.444412752113998 0.2655605037784717 -0.07838110831306501 1.1119946610569815
Ni 5.208276954627734 6.279837916767271 4.614001493544322 -1.3252877228903046 1.3369535892640072 -0.20127058345115015
P 0.981633957656316 5.356439764886036 12.750486179795915 1.2415918872325455 -0.7851313446039705 0.3156083123644822
P 5.001933678289417 1.680177705199456 11.147941765820635 0.294461503083538 -0.30799656145549537 -1.0032092294204464
P 3.8441442479536128 3.571577803185601 8.775726416561367 -0.27823038593665633 -0.5754134017164155 -0.05666248568905081
P 3.243505644265793 6.926832738355875 5.30726675650636 0.2612449071222533 0.7555772850959375 2.2538915089900344
P 6.509479204728625 0.6290638380587767 6.902778417566927 -1.0034971929745105 0.35861284095046625 -0.21621434924517602
P 1.8504856167669077 1.899184548425513 13.1902227754211 1.1476401781747332 0.6541138410421121 -0.9631355013280123
P 8.733553879607616 0.7854538163169792 10.56488366092722 -0.12104573706112702 -0.5780966049755335 -1.9719749324510423
P 8.120906562090346 4.380441232844002 3.52942186814037 -3.1547165823145993 -0.489687423002505 -0.2191459210696742
Ni 2.4626533235936017 1.198796144380153 9.080524544392667 -0.5898231493838423 0.3154301349154051 0.16718906838640882
Ni 5.149662994269697 6.426073060980752 6.9880126159085005 -0.39091078175222355 0.08809036518102893 2.1601532014946088
Ni 8.569739158927979 8.96754855691421 6.412649495614097 0.24555423585987385 0.31809842577618763 -0.23668675816691495
Ni 0.38655145935318297 9.070259030957812 8.573278132427488 0.41960917812818055 -1.5042190194143061 0.6953419944539637
Ni 0.3992325504776936 5.209937145479732 4.537204754043904 0.4337191351670014 1.186724802881021 -0.6074999978383151
Ni 8.236077690806445 7.747252941000684 10.182734474316586 -0.713699413915229 0.3612546494486875 -0.07700222568766737
Ni 4.182269784810519 8.688461251410851 6.784363460391675 0.3438097144993627 1.237270377039056 0.024407739420403127
Ni 1.9752858524245944 4.279372503087374 1.0168235474209137 0.48266214072460745 0.6944642198347007 -3.4992593183252443
Ni 3.6104816088174188 0.6323731518237593 12.388302632837055 -0.2277570597774529 1.7373388861655692 0.2556820683224952
Ni 7.62466629314566 0.2982505195766701 2.6026064900887733 0.7118032253337806 -0.6303532482874048 -0.39200272926482166
Ni 5.792092291015309 9.114060399603025 13.055379307437079 1.5812945215420702 0.214618722623282 -0.8413564856452864
Ni 3.6485092026106813 2.4315062985536184 1.5071461583064767 -0.24441112339436616 0.34152503223024405 0.6122940767928488
Ni 0.7886174022182865 6.19796283791624 9.01080114025001 -0.20704142449665633 0.8274427037776717 -0.6182418097358513
Ni 2.636567538622893 1.7618959882477974 4.61369159125195 -0.10283384203879065 -1.1496988604759748 -0.6518553840252387
Ni 0.48588160035646866 1.134463748865234 1.1685732922477823 -0.327480638322036 -0.23564211895248446 1.0137458672857123
Ni 7.282039794423338 1.0587867158616628 8.946922530234637 0.2759935261863376 0.2599444431432749 -0.9978525930942234
Ni 7.10018433315199 2.1271564222523582 11.588380253244914 -0.4078250410090589 0.7072518585176722 -0.40031896244000087
Ni 2.800253133347375 2.673230086604513 7.037932710171575 -1.204674702491222 -0.096162343555886 0.3840536496210741
Ni 7.869710462900551 3.361416087887689 9.518128717101288 1.5718719426765895 -0.7250099538320416 1.340752137074491
Ni 2.420401466410255 6.804255313783363 0.9426185503061141 -0.010683962076407405 -1.1192713972240529 -0.38118147027960153
Ni 3.8003059861783566 5.286886991469835 12.015373961752767 -0.2793526724665576 -0.8712311617175318 -0.41974133283067067
Ni 1.502232915712814 8.250170866483405 4.98028940122062 1.5490474885829064 0.578573544611952 1.100484346424537
Ni 3.6934727048522915 5.698097818944693 9.336213304493617 0.8860129480123966 0.5810729139950379 0.27918349387854496
Ni 0.7787733927941899 2.492831903969919 5.748528883058883 -1.6601057754140185 2.297049018214115 -0.7453167837101938
P 4.552870499389006 2.0948195937684435 3.7483512357933333 1.0711915109976906 -0.8862520606063964 -2.5726504511683563
P 4.376585900754362 4.793865648121525 1.5040812615280386 -0.904076490382327 -0.5381218643548088 -0.6204017935016477
P 7.6938501352614175 7.643371110078171 12.49491916702411 -2.4950033928078383 -0.08061308296737729 0.1339110230595694
P 1.5283348052192256 0.8759803341634205 6.738304232187747 0.6056575453129376 -2.7398163796263137 0.7820195384478661
P 0.7786119853502457 1.736817883100118 3.2731391286457048 1.5129772252229106 -0.0513421019174019 -0.047531212811743946
P 2.240160079578349 7.290838805938927 10.476923060275366 -0.13640447890538443 -0.9994993846690271 -1.6003337975617082
P 7.594792081092209 1.7681862669203672 0.7765081546094639 -0.8845353350256058 -0.1664017965984231 -0.21120275496319754
P 1.1521540047215229 7.729368996211662 2.790488444152874 0.37095053658021276 0.8912140325973619 -0.19081647799736168
Ni 8.457344238247721 0.5186297872403784 12.632665202014376 0.47046174200367363 -0.9778203570336967 1.109982001502327
Ni 6.840530483899517 7.546757225774403 1.0983426075670153 -0.7971571654202529 -0.02005563309929449 0.49591720596230077
Ni 3.187418863315797 2.99676439052886 11.363645751579465 0.9197262811044417 -1.014133332532118 -0.10754461725089867
Ni 7.264450994674672 5.483582714301542 8.915686039354297 -1.1993661457941152 1.345033023838032 -0.4397460580873717
Ni 5.008602111544943 2.554710906336885 13.109768082076782 0.8622125031586892 0.653573652267926 0.1384492772495551
Ni 1.1571345772775166 5.954901673901237 6.531780179512212 0.6396398157956532 1.2962453129113676 0.21216434754551847
Ni 4.364355828144645 4.350603913920595 6.760361712313041 -0.5683672935029115 0.36805727419281775 -0.5861971225954807
Ni 6.151883318490787 0.8121054134610524 4.627176952611428 1.1729658014237154 -0.4327380022006548 -0.5099975953147668
Ni 7.650187115853873 6.034535495102069 5.494487401214415 0.47517328854673 -0.27233227528466647 0.4945465508670192
Ni 1.7722168413777177 8.829918735283583 0.03227503249109035 0.6883298248021887 0.6576912739807254 0.46436668484952925
Ni 0.4846807289735235 7.390247344843557 12.148988888506311 1.1103697238590489 -1.1738556602278363 -0.27349852767862576
Ni 6.016199609470003 9.068276025217926 10.414367991300336 -0.08600237230374866 -0.40752884992487876 0.9338305817163078
Ni 6.134193062634498 4.288549669185918 4.75120796650769 1.642303457125275 -2.6185261306545486 0.39576348185883453
Ni 3.8815907749486764 4.184944536738738 4.125168442784302 1.4974680738437178 0.24154100093542274 -0.24098358577005596
Ni 8.177057906017918 5.51729381187961 13.473260412823963 -0.28462394816782594 0.9280864801436791 0.0058322904110609235
Ni 1.947505325501163 4.856814551259778 10.690088798687146 -0.4752689335843299 0.9499033189084543 1.9411214374052956
Ni 9.231491232534344 3.2031168901496883 12.853133935518445 -0.3755589818865016 0.6185976504133733 1.0031873750435756
Ni 2.7116635048282647 0.050301938159034255 2.52370315286282 -0.531180400039969 0.3765447428385386 -0.16040572691598826
Ni 4.373099499965167 7.364043999229523 2.448499274252068 1.1524496837482345 0.25958988801733357 -1.524423262276323
Ni 6.730856431560033 2.5391881218707044 2.6281199341709764 -1.845979564694124 -0.10929013918709565 1.6959405257244407
Ni 3.9684003099431444 8.608061897761598 9.368718919047485 -0.48194120339818286 -0.7809826125429196 -0.5460740293223498
Ni 7.661540976625036 2.479946978301913 6.454240043441399 -0.7931097348237567 -0.24742677029223836 0.8715854597331569
Ni 8.929677758923635 3.2859050739693174 1.9730713422936796 0.9293463206927092 0.1395831337436822 -0.9640515853843784
Ni 8.745110652594024 4.479868218313654 7.321928646627341 0.9772881386793105 -0.41958706664099354 0.21608990785216978
P 6.749976296205543 4.295033636791221 12.064996143990733 0.25175856489837284 0.5768817587318259 0.42857512907221673
P 5.66090954385994 7.0058485996284645 9.174897171046236 -1.2285764488094844 1.1943064718830205 -1.4688295841714187
P 6.62806294797383 4.556744278043668 6.8852292779330595 0.43077573626796134 1.7546904900701394 -2.3666179275521886
P 0.8914809827515743 3.9651721610642596 9.230122497409695 -2.168818590479091 -0.906855852899677 -1.233289023793805
P 8.263526179559477 6.941202612508168 7.582463319359623 1.7158886867115934 0.7784552181353754 -0.5704087494129725
P 2.102539481230234 4.349700032234508 5.272695126670007 1.4378256795907367 -1.6870031140254949 2.019485576437496
P 3.990905119270227 8.259495605102126 0.288971897370504 -0.11238163362822581 -0.6645993139544684 1.4275574648955092
P 6.46984675977843 7.439176858564939 3.225068302526105 0.8565648179546087 1.9776267314201814 1.2028826435878057
