# total energy = -340891.6900144374 ev
CRYSTAL
PRIMVEC
9.08253626579911 0.00000000000000 0.00000000000000

0.00000000000000 9.08253626579911 0.00000000000000

0.00000000000000 0.00000000000000 13.29320990183539

PRIMCOORD
 96 1
Ni 6.335968164053755 1.9366419443214367 11.658756709701224 0.579813330556324 0.7135253502312099 -1.1951914455911352
Ni 4.7296580609858685 0.43079922357992495 6.126428604613993 0.018163301172588072 -0.32555411072328444 0.09023980742386395
Ni 2.755051115387559 1.292826366447973 4.755725848106621 0.7643786854376513 2.043014769907688 0.2812558030265414
Ni 3.5701179131355256 4.1791746250074135 4.714769059408553 -1.1913507316888063 0.9090867991127248 1.2966530898727475
Ni 5.026302775508336 4.604709610611244 2.7273548295278234 1.2561839261141077 0.14860384918505376 -0.0461934678369269
Ni 7.326600386366779 6.240256397676799 2.6038741170016064 0.2865851856592549 -0.7407751870860985 -0.4134508718362686
Ni 5.041634096598136 4.419689265871731 11.58778395540033 -0.18213797638675727 -0.527637162773401 0.1394617776744695
Ni 5.469149075091525 7.962877459202011 12.663656688116122 0.4376536943347172 0.0659379974537058 -0.4521768276515567
Ni 1.9165059615867897 6.437420093303195 0.2345283412610678 -0.9301351351425916 0.22963190820266258 0.8759864170143301
Ni 2.7699192271316355 1.6358192631512738 0.3159623607463394 0.12742515822490957 0.6392685484991636 -0.31175654271855985
Ni 0.6436393766713653 9.229037499394268 4.358577421113015 0.22360010018628587 -0.4542352528424822 0.9913338181390993
Ni 8.700733616793354 2.5931004125722703 1.4367300698524614 0.0837562565820493 -0.48578757372746656 0.31077772374505835
Ni 6.856778954297391 0.5838989948774356 4.68359688694866 -0.5261014428551648 0.3467765104371705 0.7103184132581379
Ni 0.7407580279042518 7.351105069009122 2.674407276550873 -0.2300643677543909 0.4791795814926458 -0.09245558412826013
Ni 7.639584583496207 3.83927887314512 3.8476665953171754 0.4448751517838209 0.2119748572425317 -0.5284532309167931
Ni 7.537333391061991 4.084162213917136 12.682665528109512 0.5797295125932661 -0.9957502020392399 0.2544723642851101
Ni 8.44508747063543 -0.2596043154298037 6.821436989472375 -0.7659138911352551 0.3739769821113624 -0.05231809267742602
Ni 6.835543984683676 0.798502068243479 0.5107091934924073 -0.02030605854720374 0.00424334865738624 -0.18610827388841497
Ni 1.926115284876486 6.312916687201913 9.12517688154707 -0.289794693735488 0.9186464177767019 0.4126157775294829
Ni 8.989140470990913 4.888148317512523 1.1159594144467977 0.8677079790556218 1.1618072137037347 1.0268222408536962
Ni 6.765617538551945 1.923572174743107 7.064650051838933 -1.5140912842226957 -0.530208523045003 -0.018431724342626323
Ni 3.5336424477939183 4.874015891199888 0.8898142540896898 0.9776270100759678 -1.8560423482467647 -1.0831553682277861
Ni 6.2492753561141035 5.747183672959374 4.709239611375692 -0.7602111843235231 -0.6755774102325268 1.2276410814794083
Ni 5.054304234584078 2.906048279556937 9.475266872029737 1.953628825843687 -1.4603930233682914 -0.2487894549677199
P 0.007484918074705812 5.906473192670806 12.425016682721552 -0.17755447078113293 -0.7917953868877073 -0.3390027800290226
P 4.017541810958797 6.139231347628318 12.493158410491825 -0.29723315229140423 -0.06374921733250312 1.6120958231936429
P 2.062871032298941 8.40018341170891 1.3685093240173318 2.232552638302942 -0.23846724710610548 -0.06494400897155267
P 6.294470056198724 7.820672190065173 6.040846590850457 0.8935521938122352 0.2783139467893981 -1.2554856144955022
P 4.674236425150587 0.9767177768689643 12.610802685261936 -0.692425335027801 0.44652425735146967 1.0151494325014583
P 4.019639876818835 6.251019203062706 8.256984513112815 -0.29560615821094255 -0.5893163849507528 -0.7915963835030239
P 4.85245395028331 0.9998328314741413 3.608840397930697 -0.6929621813678775 -0.05049363787417755 1.684178757202822
P 0.07058129699107674 5.648356596669029 3.7269242674524365 0.1171955100771014 -0.9267392220871653 0.5895308149544041
Ni 1.7293330557700957 1.253580727568221 2.433374931123688 -0.33940052968807355 0.09823156738008888 0.5411223417440294
Ni 1.8577692000419255 6.35535029628458 4.894028351442342 0.38409041639628044 0.7091747865719981 -0.6253012876857941
Ni 5.900188077626883 5.341993568422576 9.17748593222982 0.6920985478160017 1.0115966821531932 0.9705132818493223
Ni 8.704857088223903 2.4659539884395114 10.387008184990869 -0.36010665188717333 -0.3238373851424939 -0.4352196309719279
Ni 2.519686272543333 5.193185295475142 6.912295956762674 0.16955242641226284 -1.420081468233438 0.4532566909792968
Ni 0.7251079097941613 8.906107925136089 8.87292487916359 0.38428299202306077 -0.04223911117486919 0.6173190408112659
Ni 1.3607909847625268 0.8682150747747306 11.532830070178868 -0.23649469676076693 0.7939535708812907 -0.7003163077401036
Ni 4.174206477711134 7.029283564166202 1.5692370068449355 -0.08284557184232183 0.6531761597191913 -0.04725353367032507
Ni 5.792750757027811 7.707985163547911 8.162722319511884 -0.9071461304465861 0.4415571431541815 -0.09384295139409
Ni 5.395271725716865 2.8126434773724025 4.922395836726566 0.32330953766348186 -0.7374774901714332 -0.07472037163202616
Ni 1.101729804996923 7.051735593629463 6.8703028506852535 -1.508887628534569 1.3013330118469202 1.196664687702552
Ni 5.088563561095169 4.610277205296105 7.142734431977097 0.7769290112988362 0.016600327560842378 -1.0709871082963685
Ni 8.231938511313508 7.279634591724983 9.295143830804218 0.06279096718429186 -0.25317035764423496 -0.4694669821905721
Ni 4.676089262533477 0.35143057282440476 10.466541229651439 -0.06769637490570922 -0.8065396350764173 -0.6779726499375808
Ni 8.120450379573413 7.493183182639293 4.836216192081686 0.3398972668188339 -1.201445396920647 -0.30245943368735
Ni 7.3904960284679255 6.058869067413541 6.960470636971443 -0.10561706121088262 -0.03421315554659914 0.2608628411924862
Ni 2.2895620530811063 5.458758653689435 2.8315869231052186 -0.595341250988594 -0.7461847881374439 -1.4017281625372309
Ni 2.0100379192779925 5.196091707056146 11.357825038096772 0.3373822137064641 -0.37650643340143547 0.013496234714221919
Ni 1.122528812873487 3.268777527402497 3.8576492108443072 0.021439400820698562 0.42305677035714884 -0.5319699858207999
Ni 3.5085383177629916 2.878346544175487 2.822015746467523 0.10236512993248821 -1.3691949657962161 -0.8297870356401322
Ni 1.0069081271666493 3.5842412569119695 8.133397534913168 0.03402649345708979 -0.9348276555222544 0.217905878014986
Ni 3.732232101602246 2.806912397036109 6.948440817786942 -0.3347301207955977 -1.1351847260201997 0.2934741994696043
Ni 4.218620079683359 6.7828016970246345 6.00569899229992 0.27496431359087486 0.8909713204589365 -0.12630004348153084
Ni 0.9517771324894689 7.57568894139506 11.401439376884223 -0.39812632566405626 -0.5458130623514793 -0.6854777000653743
P 0.07191733806471977 5.547585857633886 8.142131301714087 0.054435910351377216 0.4001107030839367 -0.7055371898194108
P 8.782013233163385 1.6228403189348504 8.055313154775005 -0.677411121007156 -0.10673677663762263 0.2763534806289176
P 1.6784708531025159 3.124292541681807 10.249384147108586 0.7762754368752373 0.9971447683939213 0.9395163192471755
P 4.060111658084323 6.141093267547399 3.852292330999068 -0.25385298553355634 0.914435722129464 0.27033375679739896
P 6.9836529023444305 3.9149818122940983 10.621353967274503 -2.2648402946920543 -0.6944940446313717 -1.2755687583986226
P 6.419473001790492 7.782725353860682 10.253146133598749 -0.5684734800634726 0.7927754914127895 1.4107383364556414
P 2.439024268634266 8.503261114936475 5.81498208086164 -0.17266963188500586 -0.22713176748862818 -0.6011545152362615
P 6.86287333608131 4.05496186006423 1.7535470972543399 0.8053157899716452 0.9609030124530676 -1.4768365136362953
Ni 5.359831669500991 2.9380097244117964 0.5185737615798818 -1.0010513025371792 0.34668626471620934 -0.44234132961837364
Ni 1.7016404029248366 1.1885770160518156 7.037983725583215 -0.9635929005804049 0.3062623523732081 -1.1161235956236908
Ni 7.04401543786742 0.6169784999373628 9.241133621092962 0.060081281562612665 0.1720649084214714 0.31049284551478784
Ni 2.574780937075751 1.4574745825118816 9.127915266208547 1.397760950359367 0.18289593759870434 0.999511211743569
Ni 6.412969905877994 2.0613814963636763 2.513532854274175 0.34806077646623285 -0.3103817738582203 1.0709827374209944
Ni 4.206295078072662 6.633439389369571 10.457688481626422 0.20359254671610744 1.9397916628502785 -0.37064946040002617
Ni 8.413026117882476 7.443147490765062 0.6085907777653075 0.19050254630136867 -0.8104870497599396 -0.11914980558999479
Ni 7.4755448973570715 3.796581870512925 8.356577247204033 0.8785680616985773 -0.09434251673832784 -0.2152113619019584
Ni 3.0486804278947357 8.193719199023299 12.42243815069703 0.5743664485091398 1.1039208829099116 -0.027471723057707523
Ni 8.670352533235665 5.0966197706962655 10.211644392729244 2.068882638813385 -0.4137552904505648 0.4439870927519127
Ni 8.620471244476676 2.213913609149272 5.726887837587772 1.0182998052049816 -0.11908244268716908 -0.17824532620057046
Ni 3.4289480531244196 2.4919572895533117 11.346605381140478 0.3844079476366993 0.24494025642495876 0.3777701306052075
Ni 1.0111133414229152 3.220912561677828 12.551608163893064 -0.004990511236055922 0.02743649894439791 0.38950901630869045
Ni 3.199296125544106 8.362772445139667 7.8969246226536844 0.3911761195984682 0.0021193603358479625 0.6856162825257676
Ni 5.583044078922142 7.6764505978940125 3.556266137191182 -0.16216641836083684 1.7543963558684883 0.009151841702597143
Ni 3.1115769910149123 8.428829730854186 3.5334417237441054 0.007274679284542311 -1.1487208128334216 -0.3593543471021811
Ni 3.5702995638593387 4.478171716403257 9.47668919719719 -2.1384780305140203 0.0626986645808017 -0.27239526731211794
Ni 6.911256006368846 6.081938709337765 11.44969398341147 0.36552113803452535 1.0413590010172904 -0.1213208450993846
Ni 0.5392383479208243 0.4828503302348595 0.5168598870007082 -1.1897610186041832 -0.16921741167034726 -0.7116656713146517
Ni 4.471405226941231 0.4512222144581964 1.5897081351650175 0.10798453300179467 -0.5098932085264186 -0.6409726756744638
Ni 6.081956874410147 5.733641611499131 0.29948028232118634 -0.8037062793926805 0.10815911090644598 1.6662322000267302
Ni 7.94239634009212 8.593305378730472 11.895189658801469 -0.5918990580762645 0.9474106343935877 -1.1561075922157962
Ni 0.0005504016931527389 4.583193082375619 5.7425733775890055 0.7301146220484587 1.375915058128869 0.854407919512606
Ni 7.91512148391163 8.85739828354569 2.687767687287303 0.5419918888331762 0.611466695795547 -0.24622040868896305
P 8.518347207549127 1.755381769564849 3.5550963065298276 -0.07109717305714208 -0.36203909302319587 -0.5025146566741604
P 1.9067785653266147 3.624703955641268 1.5359776675684338 -1.3038334096712707 -1.2503457221657757 -0.6663924012991491
P 4.9550956917737246 1.1076062059122667 8.28474074371141 -0.2420215401162671 -0.09995883448384076 -0.8059876192276894
P 8.348667266435605 1.8026382053647452 12.515038240175073 0.6017394412054541 -0.7898048388202397 -0.013363565791099565
P 6.4571746095178355 7.978136120002286 1.4323168655174299 -1.6640932993068565 -1.5012182849147693 -0.19201538340146931
P 1.787888166591147 3.181103805554256 5.973795675676681 0.8235834779325817 -0.17525847565810462 -0.23612985722218044
P 6.945815056574228 3.971184546241774 5.989601105155631 -0.27524224984260987 -0.16053248230183967 0.7257884838692791
P 2.5395225315836893 8.502589007258369 10.169411507696388 -0.2260326208871785 -0.020419187086300316 0.09150170485542305
