# total energy = -381160.2416149705 ev
CRYSTAL
PRIMVEC
9.34065403154979 0.00000000000000 0.00000000000000
0.00000000000000 9.34065403154979 0.00000000000000
0.00000000000000 0.00000000000000 13.67099134296024
PRIMCOORD
 96 1
Ni 1.3341629757088145 4.2068344150325565 3.2583302304635318 -0.5564389174964417 0.9057397370173628 0.16905183262676046
Ni 7.52003911970877 8.190128298156301 4.0919873376453095 -0.47685530423484324 -0.5123524687001886 -0.801578177306084
Ni 4.151201479713784 3.3175107461775486 3.1368503546595847 -0.4209340675871912 -1.2639993083934682 0.3993583982989445
Ni 0.4711295116469931 5.520886962645113 1.0205337039473312 -0.4801735699747988 0.9968773736651477 0.35915765771034275
Ni 9.278463941474335 3.356451932769887 10.74084700892498 -0.9924874721275683 -3.0855860460655244 -0.9058369247168593
Ni 1.0287609520045466 5.8867510397943805 5.4601119972905785 -0.17163450575227213 0.1356945973225534 -0.29238276617763836
Ni 1.0620043396471786 4.074262512584714 12.825180326221348 -0.05768218520281678 0.1969462450441834 0.08580671135317482
Ni 0.2526105153371349 7.736490095219505 1.7201113271230972 -0.2733375766207293 -0.2529988650633772 -0.3704977653135103
Ni 5.801713725633515 7.646390146582015 13.120829773067602 2.679681104897314 -1.6519119267493165 1.5404414920814502
Ni 7.410828192954723 3.0789597832651645 6.264595439784458 -0.038355459849746844 -0.5107455292243849 -0.7419712642767287
Ni 5.937368043906609 0.4328122807429178 3.0300661298188722 -1.0185813410011426 -0.5781171738008237 0.5505204951294776
Ni 9.31889963270922 0.9700082382444585 0.6281318946734548 -0.08333382433265002 0.44575883994035487 -0.7793515046973998
Ni 4.4958435909388985 3.0790438491513084 13.51620844877635 -0.99185909451495 -1.502123313227542 -0.18587995992769277
Ni 2.5413677820333493 8.387664449284815 5.164299088999047 1.6071400218502643 -2.754233069272276 -0.048615447014858204
Ni 8.860366927068087 0.8156417877812874 10.775912758166116 -0.546464322782233 -1.350949132212151 -2.1870631385115753
Ni 2.8079220256854382 1.0171131564467042 4.109226448697077 0.5801540017251944 2.134908053774575 -0.19766769659124023
Ni 9.167618400267505 5.306761809984339 11.371584946068875 -0.7484355318448336 4.006618961796532 0.21974293122372476
Ni 2.8267154215654537 6.784929648656473 8.296719171458884 -0.0036026297495937954 -0.12020421499643813 2.0891992388835505
Ni 4.293823925882748 7.681613752876021 1.1207570534072668 -0.7108840559536208 0.310065271059066 1.751268608872784
Ni 2.051814764405371 6.740944508895543 10.914851250391205 0.6128494350756865 -0.2995227196565293 0.7008991768267671
Ni 4.828716478103964 6.640037423561642 4.055144061944945 -0.0647383207186498 0.8493729281918597 0.07312217390697084
Ni 0.6789786788744747 8.432331456788907 12.527125660965998 -0.13622758700788795 -0.39165228790393836 -0.24232775850277624
Ni 4.169723996627337 1.2959129975136539 1.8363968652287956 -0.4173612626342683 0.051358814087950254 -0.7338092972912265
Ni 5.005684509089439 0.2868281331936263 12.94559443340208 -0.17324735876534678 2.402428766603211 -0.34944145886384337
P 3.3785052169014556 8.660869238596232 3.052062435960944 1.4262798837346662 -1.5664047489144313 -0.28645483072897765
Ni 0.45939578207220416 6.3517848406305895 9.402798321145546 -0.5589498568437534 -0.17415572951222913 -1.7580660914105914
P 0.20033274294087702 8.474579234902878 8.90688338406733 -0.9839861195247764 0.7261911186243365 0.706877248787073
Ni 1.1340488040719099 1.6379023629982503 11.999903653822647 0.6841422690834024 -0.7834891810148571 0.858113393388651
P 7.211302482520821 4.693547873839698 9.211186012793926 -0.7925618327400866 0.4373446477347307 0.23876498085218234
P 8.657525284458536 2.545356241298144 12.808461489598265 -0.9524176006898757 -0.709720631773139 0.39815615046072717
P 2.938672500600178 5.495443021105767 4.371436354166365 0.5368895346096044 -1.3063628609613438 0.988586337300949
Ni 8.599342350593417 7.602946764754007 6.096032129282501 0.9318827139613177 0.11681627236081173 -1.5575820084164786
Ni 1.7359512082032813 2.212268519090712 2.0841838668321135 0.6194018914822235 1.648909906698199 -0.5444604049783268
Ni 1.9483950431411903 9.454890214526888 1.74290065479112 0.056074217285748594 -2.0258469998791497 -0.8705482767178941
Ni 5.264159087017764 1.8828796958735816 4.585907111025727 0.3723834123719974 1.2862995145525653 1.4964429750133132
Ni 8.5875918078414 3.2275042040802178 8.449219359249676 0.018494459259761696 0.5575357501050462 -0.3699598905321693
Ni 6.556989668706167 1.4171079833701155 10.655963815555378 0.9063616868720777 0.9101206396938778 1.5759270865825696
Ni 2.2796987004315827 6.267233240478551 2.525606362446899 -1.229653998144379 2.329627980591401 -0.2791364426906935
Ni 5.7713098968117205 2.820728062341254 8.415479048813397 1.173752558991069 -0.6082435608725589 1.7164856968656437
Ni 3.0912240619880578 2.8749785808656725 7.732244767969273 -0.8439581849341916 -0.6076444938359793 0.22913491396158603
Ni 4.692501720589916 0.9778076843477452 9.715508472551864 -0.7276928999808435 -0.7507973472087909 -2.02292082737129
Ni 4.204630020684801 7.14396570772011 6.530632211204065 -0.6944840173290427 2.057853377582417 -0.5954245547310197
Ni 7.582406666573017 9.265900761822934 1.7303645630363642 1.2195462202864156 -1.4412922979830982 -0.8678013101003764
Ni 7.999270714649165 4.350353563987049 3.901537006653267 3.79049331561042 -2.034023622152671 0.825409732508043
Ni 3.5249199686008805 2.0250070873797026 11.281616700653009 -1.5932244402104367 0.31233272693700403 1.2652666051416661
Ni 0.09840752631924224 1.149899893936913 7.562040304556721 0.33485404796797175 -0.7963392975046479 -0.24276664581240773
Ni 1.3176860620247455 7.962094911665834 7.09033634268775 -0.5335273030055909 0.582774470067177 0.30784563769992784
Ni 2.6756396835120886 0.1986103263403428 13.227846580193312 0.03624124172022146 0.3767172638606609 0.39768563858221184
Ni 6.043776774455881 4.567645198359217 4.442511258704244 -3.08242178940493 -0.32481029057872446 1.0868094200406055
Ni 2.851001122006826 9.066094831768554 10.757948812362715 -0.378525006493361 -0.12783756317197986 0.6815030316883424
Ni 0.4852217563608 2.102562537673822 4.132466929954068 0.14384576567477808 0.6446856057496768 -0.9505813188120856
Ni 7.884100450632967 4.527676539825127 13.126748945517486 0.22028234866696256 2.006232310972016 1.52159761990207
Ni 8.036222341936115 5.411722739161146 6.613588427650185 -0.03541411783323578 -0.7481174863837826 0.30887767850886805
Ni 8.152298649391856 7.667593431198136 10.887536375852472 1.2529942155322162 -0.1173934850205204 -1.5133585198217292
Ni 7.424493569780003 5.612434712655069 2.0808884840952997 0.02312347339134082 1.0491355596389158 -1.6716916804794049
Ni 5.610772076240236 6.507101235607179 8.390502139974847 0.2809285015941097 -0.465549906524353 1.2492931125315452
P 8.653032429876882 6.296871135671041 3.6633886259289694 2.069994383820325 1.7752631720151686 1.0096475288466225
Ni 7.087137168687299 0.1656443561219836 8.727519475326774 0.2381219479515448 0.7869236606177028 0.44092953687251163
P 5.956273527634815 6.146122320508233 6.251730557008342 1.5215446551769474 -1.6370162405844064 -1.6046938743026171
Ni 6.469561147117227 2.9924186238077377 12.479892775803732 0.2994119051102779 -1.0248751444296544 -1.1533356858976138
P 1.0840763050867792 4.750432456796604 7.899741375782613 0.5069968608152301 -0.08905427175619501 -0.43850138704699315
P 2.3646519487063054 2.4373689402201824 13.448086124972901 1.8418339179568664 -0.6058539775944598 1.6607516365281334
P 4.379459041900632 6.024236126254593 10.64849876486586 -0.3740554007577816 -0.2052449947178659 -0.0731802808384159
Ni 4.053685051787659 4.727258294183125 8.82234205863471 0.47701034175546886 -0.29987521789994165 0.810719734596036
Ni 3.6336638626541315 7.48999023573958 12.42293907200711 0.19621116665037175 0.07326461302210607 -0.36708102632247747
Ni 9.155447528084771 3.5537732488560336 1.4195953995345532 -1.3480910939380655 -2.2989580623113697 0.20612662599187082
Ni 7.533097354023015 9.059715165075687 12.459618886262197 -0.5381257210095506 1.710721797798673 1.4813994504166292
Ni 4.1607009248479665 5.19515967580222 2.124636371244226 2.790570213140413 1.7902832995730846 -0.108285094961349
Ni 5.307677194077899 8.129488772284999 11.014417017808421 0.4905315161703552 0.9410234999203213 -2.9058865039169306
Ni 6.087182793667826 4.012595514771661 1.1850534453257988 0.8587823944312177 -1.493659241620589 1.897229621118352
Ni 2.428018945550254 0.4381532667092164 8.532256839385735 -1.8649550773553625 -0.02294478172163145 1.265600334332001
Ni 3.259439900160622 5.096886654900806 6.647929342139686 -1.931640494498054 -0.804785114279156 -0.9923422047989554
Ni 5.043822399436408 3.6688314250240412 6.584851905570231 -0.16080141969251016 0.7109907567348142 -1.952037055876535
Ni 2.265314093247078 6.458763351074833 0.1040548857372628 -0.48369058198912185 0.6095471101753309 -0.18594243773451202
Ni 0.5821048879446453 3.3892656503277867 6.185316638824402 -0.5795356514149052 0.402582561663197 0.8954792356316191
Ni 7.311013964140685 2.38845193513885 2.7190783950130886 0.2761637332156147 -0.09983362175988612 0.8792892561353178
Ni 6.48116223940499 1.7170457244750748 0.7228676098990418 -0.43775036781358156 -0.9259439798793795 -0.42162415167568035
Ni 5.066893814855712 8.974332246716232 5.165296670847946 -0.9191734939247654 0.08843206479116382 -2.416806889701754
Ni 7.775879633204608 7.297096389656976 8.178848524366686 1.5276710797896595 -1.0461173416378822 1.6250176734616335
Ni 3.8382428669106425 0.5184109682101395 6.921349900558872 1.3915993016333454 0.30582217951199586 -0.8320305802586704
Ni 2.53471723637402 3.151172379462183 4.988449134299278 1.330664928041818 0.9861301624509726 0.8256143923196814
Ni 8.204587630572933 7.02607731338528 -0.06092534988418944 -0.36791612062926315 -0.14673877095185697 -0.615889507453591
Ni 6.530294079528689 6.109329484339554 11.42201793929699 0.3944555616806884 -1.723889702639199 -0.43320517164506034
Ni 3.3655777517434333 4.731265434755952 12.116586169724021 -1.2172638520101424 0.8814980908611786 0.4533981016531676
Ni 8.450368259693633 0.7219596983286952 5.166116780270544 -1.435621472850566 -0.19785692978391087 0.8398996985941019
Ni 0.7621824226520166 8.807246627679593 3.6633886259289694 -1.0389128534696428 0.07684975927020313 0.9309368051082805
Ni 1.9433417493185816 4.422229896639494 10.101440944854321 0.22927015398786965 -0.5134382455651996 -0.8155287259489051
Ni 6.533610011704337 8.435638048310539 6.658305874685963 -0.7000057184782202 -2.0932525830173176 0.2779020560629601
P 1.5423661537234994 1.9777340374051708 9.91619896254155 0.65636072809476 0.3795341644841657 -1.0416950442004704
Ni 4.941262018341692 3.7054467887664178 10.890667363078608 1.7353267408315467 0.37333189232819575 -1.393235808795504
P 6.815931279335286 1.0689444455810013 6.660083401145191 -0.10709107465324783 2.3746194577004265 0.32744078622303613
Ni 2.7198303176613696 4.290722828749465 0.801765312175248 -1.327024245965437 -0.5126244914146526 0.655729008048032
P 4.615656160001006 8.444166065427067 8.638740295167134 -0.8577583240420776 0.653807622655603 -0.47697537475247537
P 1.230304243705886 0.5612630866389403 5.687063736046003 -0.6454605362424883 1.0660559895433381 0.5841291843228585
P 6.291257402607478 7.507074291934684 2.260060909428529 -0.5250485761106184 0.2612688183816533 -0.4566448907252394
Ni 5.260749748301955 5.398122746913978 13.431188881858114 -0.7109452482088595 0.8780918933931071 -0.8064900127854046
