# total energy = -381170.1617185677 ev
CRYSTAL
PRIMVEC
9.22468824058778 0.00000000000000 0.00000000000000

0.00000000000000 9.22468824058778 0.00000000000000

0.00000000000000 0.00000000000000 13.50126368587292

PRIMCOORD
 96 1
Ni 8.67843888081548 2.064632770698266 7.740436628106088 0.25182155692582436 1.129566608502474 0.3931188451471359
Ni 1.545679497557953 0.6655649294911364 8.731968822844134 -0.4990223272501857 -0.007245882929135908 -0.88169658002523
Ni 0.24833136852159157 3.67955277642749 9.373157514280036 -0.7791283329430001 0.3250841130654014 -0.17532892388472385
Ni 3.352177823790901 0.7290944333180384 0.994711022224832 0.08102008859780885 -0.541201531721397 -0.9119188692448811
Ni 2.5860305861601067 5.216358124123897 7.362062987829628 0.041583736979057415 -0.10851752268712923 0.6574135948393065
Ni 9.108936620668516 1.3986379707460612 10.008135223281657 -0.7942099098664709 0.46827116211025804 2.3753702198235223
Ni 8.149356900244838 7.942234980451399 12.891384334518708 -1.5349658136788595 -1.4590221111626938 -0.7549885024720029
Ni 8.780030369822969 9.245628047537938 1.1192775191794784 1.443450996197314 -0.5738630265101601 0.7165122007736756
Ni 9.087885882639359 1.2117365670612594 5.499415830643191 0.10888519043919312 -1.557146720651273 2.789003897094558
Ni 7.9323184408452025 7.61605923725556 6.491893555901827 0.47920040742825215 1.1981926943113044 1.3986855190561653
Ni 6.748624925321468 3.3708854910665926 9.19184903893313 1.739975552457468 0.3364846415928592 -2.8938059186033125
Ni 7.187157368427523 9.169293754290234 4.79150404839279 1.4743489713277511 0.9219176323288059 0.2961442901025996
Ni 6.6176343556396064 4.777622737881715 4.134613093033474 -0.5135644867304187 -0.8085373822327365 -0.5077237116789256
Ni 3.993745649903841 7.537981477974767 4.433599068332321 -0.5493285317039055 -0.2932093758439918 1.8646835688615304
Ni 4.218043938764013 8.862720473106645 8.91975856398389 -1.3027856851330466 0.12994741042613106 -0.3941020349960116
Ni 0.21328585631889033 5.16170184768974 3.7110108074647497 0.23021066352426803 -1.1939557734118211 0.6274872395935194
Ni 5.1531966853484255 1.912619137051267 7.829611687057817 -0.001487897399436147 -0.4309564848201997 0.20682056673510188
Ni 6.026774639494357 2.1529314842894474 5.570040964484127 -0.25600114222481074 -0.32514941908569805 -1.939716586637969
Ni 2.805587385385316 0.7736939548883103 10.442552533068342 1.0263147050896584 2.131871580941096 1.0788587977349613
Ni 1.7388629137746805 5.5521275428457315 9.609902674666387 1.0944193711773798 -0.43611051821731345 2.023886276608353
Ni 6.0736452792516475 5.364183749416279 0.5384653332101071 -0.6492423718824238 0.0527171278880576 0.08373723041865579
Ni 2.3854858689147793 4.696334787174916 2.7918582822263365 0.7808162621683843 0.04987040246788186 0.5297560088886167
Ni 5.366130158585495 9.1405957499043 5.9806004636815 -2.7401562794642356 -1.29968133517611 0.1474730780147202
Ni 4.760962951343304 5.190750390219894 2.4537734668150546 -0.0490731033775671 0.5863663011834934 0.28525258289076033
P 4.424446332893002 3.868677329921681 8.96131486098106 0.55706729510906 0.6188781577682697 -1.3231161691602826
Ni 2.5439567841658137 3.2948187137710554 9.82476134029026 0.669595224507163 -1.619871867594636 -0.6752629643159015
P 1.8024855869504404 8.99182920643533 2.2210392007736104 -0.2876642776560465 -0.8088353730891296 -0.15863655083070746
Ni 5.716271641220311 4.871917498676644 10.652847745535762 -1.9644390290853135 0.0321848122626607 -0.11825660435176406
P 0.7712448002227797 3.173929177455507 2.8297837420244374 -0.9660673302628265 1.6447562895411416 2.7033265122303956
P 8.07605752935103 4.219049429756642 7.4707076732863245 1.4171010454488755 0.3519218020835358 1.4229958136667558
P 3.750758143143989 1.4062022149107882 4.967803518152566 0.8544110048363994 0.34272522318593235 -0.27309435026167156
Ni 6.104621781575006 7.395718339549861 3.764382084859703 -0.050349913207461676 -0.4542329388496371 -1.2335674742661724
Ni 1.921133524080588 4.334173536068587 0.4955963631097167 -1.5680255723473058 1.4497118895053613 -1.2638172742896492
Ni 7.16329310055661 0.09342026037198181 2.6409008753559977 -0.5012147069158142 0.2837307469295952 -0.8575608633192907
Ni 7.92385017725591 7.06314066287802 10.344937807060138 -1.4018862853816503 1.2593867493221216 0.43289612504507385
Ni 8.138093556189798 5.509168170802885 5.690647302877898 -1.1688438088355417 -0.12691865090213625 1.1240837310110319
Ni 1.7520173188709012 7.557030458706671 8.75471874840395 0.7401128709117512 1.2776765487702448 -0.9161784158521834
Ni 1.67493582589473 2.610273066239257 7.587331713868007 0.955359199816703 0.7306830929574191 -0.42478815122595875
Ni 3.899275620036803 5.982274744554546 11.992105477119916 -0.30413862116198587 -1.4626913324841648 -0.4168501273258047
Ni 0.6758098679903389 4.250293448032167 6.1352440558789425 0.7612586517514309 0.4022244069928299 2.9948001363302037
Ni 0.9765254722902672 6.781307994925892 5.92702716561922 0.40964126828219133 0.9319325933626467 0.6257424889882707
Ni 5.161904790825868 2.1994146871504965 10.19361602501357 -3.1982682416533046 -0.9755387600883715 1.866962080483062
Ni 5.265608733386676 7.77465007345067 10.876631296805213 0.7587747089873125 0.1180635145043515 0.46121631214600567
Ni 0.3314697916423478 0.8950281211657365 3.435382664665299 -0.48020699431589553 -0.026245306849774153 -2.315272740310993
Ni 4.268355387147455 4.599973696266695 4.808326189440103 0.26198795593586494 1.7234970951864705 0.23652220756459266
Ni 6.000687221814054 6.474199681837969 5.9673833307068405 -0.7271388272495865 -0.3215339338202979 -0.038035871726799016
Ni 0.4010350088314218 5.942258047985539 12.47731391906634 -0.031398054695307216 -0.9106307465610769 -0.7927531228152863
Ni 1.7852261956916546 0.9127127705415883 12.725035535710749 -0.9905622300803971 -1.0931968116241884 -0.43724386049080827
Ni 3.033363381623662 2.7903297514237813 12.198945121460376 -0.48204841840000856 -0.03181457340743553 -0.6611586637040354
Ni 6.170818142704375 3.9693647995046044 6.826104002350688 -1.3814172188940208 1.3917268283501452 -0.4219208569804927
Ni 7.167351963279145 2.5381544554101874 11.127781729981367 1.6879204836334414 -0.502475833016425 2.359246317678466
Ni 4.692183677572321 0.3604565287628627 2.9181627104012686 0.7861150486734785 0.5917584187333422 1.3789754422217477
Ni 1.8188778575366846 7.033188100923302 3.644058021918908 -0.14867609718388589 0.41680256191732085 -0.6473315280129561
Ni 5.72679701023489 0.7396797628046535 0.5689187957235387 -0.2250489168176705 0.7190074563917037 0.8157300433264338
Ni 7.8958716985344255 2.133448943221272 0.6942444845010594 -1.972661674105422 -0.25006266525318865 -1.192040044446347
Ni 6.318689891436786 0.34453379479611207 9.237929122928328 1.9593333324276319 0.028609179096260408 1.2083940603243382
P 7.470558233340631 6.074540073988207 2.617733071429519 -0.5571251449301888 0.5445758475102686 -1.3265429354536444
Ni 6.446710111580789 0.34954464532084345 11.87507647273478 0.665502285384712 0.1035331820986604 -0.5714593021646739
P 4.270200324748608 0.5546500483162216 12.22284259820811 -0.8850127888826564 0.7339422233246651 -0.47095205137653084
Ni 2.57955485518006 1.9785848809804918 2.815472561052294 1.1191490127135757 -0.6612509663075258 0.43492986764565095
P 3.614380355666761 5.937894770558812 0.6248748306977077 -0.300563759326534 -0.5659409434496059 1.043193740233184
P 6.446922279404922 6.31212191357668 12.096943133836632 0.8543048182758385 0.8222380196482808 0.12248864015524066
P 2.2513958040629816 5.160244346984829 5.144143576539567 0.962289351277633 0.8615995521650387 -0.9925188395861358
Ni 3.7949074999395793 7.6106258960201645 2.173068978206032 -0.5946398540461952 -0.9333970937233151 -1.3328097422989627
Ni 4.185351644471583 6.571224950282604 9.279702200093633 -0.909081399796086 -2.198926722718381 0.6506420804434279
Ni 3.7644568048325495 3.252864832720837 6.525322902765918 -0.2698773859862707 -1.0496268974530374 0.3998921593152274
Ni 0.41167015163326803 8.285393374265851 11.150409889659509 1.5237506616893306 1.0952650070071266 -0.41650174284745045
Ni 8.223163628978961 4.238070736424529 1.783057471541499 -0.02171630863116905 -0.1810048912235786 0.08205495762022642
Ni 4.04806983756979 6.999434967510209 7.070854346988441 -0.281612929255644 1.4695762325294561 -0.9602293834248108
Ni 9.079343821546022 6.06625630415903 8.534540205207152 -0.9684772252558999 -0.29636386231257345 -1.3085413566699013
Ni 7.693408246183899 4.210461245223275 12.918521521694066 -0.020788140389944844 0.03680174220938178 0.17051144789142247
Ni 4.799826561911591 2.9019208022295184 3.3587633285582164 -0.5740674292114823 -0.39569946139011847 -0.42245693198962087
Ni 0.8152677787926913 2.1170197738830048 1.195310165129394 1.4829292567975945 -1.1222479633538736 -2.6903205868890314
Ni 2.038471555513917 -0.060933676622079734 4.870000608509046 0.17640107390298004 -0.01219448518366287 -0.029191533962291658
Ni 4.4737891890358386 7.884977341999617 13.247682373928573 -0.003863339610148185 0.22225412768135272 0.418506431982305
Ni 8.434215265862857 7.220661435264461 4.135990338952735 1.0544564576311968 1.611056326185535 -0.5590509011979921
Ni 7.195505711072741 0.6440142133720687 7.063901699638496 -0.11495530789267298 -0.3516937452331298 -0.01909121230349615
Ni 2.848555982116169 7.998118140390322 11.2756885325282 -0.23919564063169774 -1.4032260872389963 0.27660647717998815
Ni 8.445884496190148 3.2298492361464537 4.925017570244227 -1.9072780064932897 -0.43020418003520744 -1.5678854472250159
Ni 3.759263305485304 3.1743073896637437 0.8376265775810642 1.3807065659802416 -0.6554952947706711 1.8923838629902765
Ni 6.447817074141482 7.676010484605025 1.0603133134466294 0.45941628282278946 -0.5599901251828098 1.063404410853104
Ni 1.8398547980617939 2.7911599733442998 4.907263735708333 0.620782316769518 -0.7677116064656262 -0.3599950660099735
Ni 0.2898489218291374 2.885943642603534 12.280019981874242 -0.16888908179665107 -0.44645483756611504 -0.0207994532438545
Ni 3.2059665188995283 0.5536233405411799 7.022519749244634 -0.29143814287618197 0.22376182257513075 -0.9013444361631444
Ni 7.03171215084238 2.380642907711753 3.052352401883529 0.5399689448658765 -0.0768340755409193 0.48366589939877347
Ni 5.128917306517252 3.656804695805274 12.489289409035424 1.2613078776042344 -0.6378097045654499 0.42521726834357737
Ni 6.576685965582017 5.7464455956871685 8.692059132655992 0.2419976288568671 1.0612796512006175 -1.2434405104055102
Ni 0.3604556062940622 6.337111593384297 1.6840802591148447 -0.40848324341834813 0.17092770949323466 -0.42798557511733387
P 6.133587301913108 7.8059033164142 8.014876631090395 -0.3087781768165263 -0.27535897792613223 -0.7868892078353416
Ni 1.203664965056215 7.7493467542508565 0.07765619103893026 1.8530107605092925 1.1087432439992195 0.22535384965259897
P 8.692801720040457 0.793813921897684 12.487237838422942 0.10081861138097475 0.2456514235593705 -0.9818415623779478
Ni 8.621762397708062 8.828072544956992 8.761239680355226 0.24100903969135268 -1.34578892816745 -0.8642660432536083
P 5.93358684126012 3.053565448356287 1.1971384982921365 0.07565316785894069 0.26247286599208347 0.14024056482202302
P 1.0506458404165877 8.8991303166654 6.853943188283285 -0.5398447605831864 -0.6267171941967142 -0.14551826828119455
P 1.5827350692771103 4.3191280699311845 11.448301816960871 0.05757008510498472 1.2954413289528335 0.4099688268249391
Ni 7.928536318762839 4.897682052276744 10.771969831629406 1.6429598597623511 -0.9021034258163559 -0.3183575929748452
