# total energy = -340889.29031773383 ev
CRYSTAL
PRIMVEC
9.09726593597497 0.00000000000000 0.00000000000000

0.00000000000000 9.09726593597497 0.00000000000000

0.00000000000000 0.00000000000000 13.31476826303567

PRIMCOORD
 96 1
Ni 6.669178294211668 2.264418634326446 11.520749256015156 -0.31106054509279973 0.43167407971251465 -0.4092507177119919
Ni 4.613660175328584 0.47447153869941794 5.7840816479187245 1.230429185747507 -0.26513627175685955 0.8526449140749123
Ni 2.690452690796772 1.5817780003570598 4.868145270434168 0.4252908018939901 1.7159444796501933 0.8800814130193101
Ni 3.4394032954610445 4.7115558530138175 5.132150654239464 0.6263965776325019 1.0426129280290495 0.21926342048414493
Ni 3.3538344129866173 3.4868637313391098 3.2049576575439214 2.4323332674721274 -1.1071645866581898 -1.039642532546816
Ni 5.360381949862489 5.036510188755528 2.5235215015715178 -0.9954069597672084 -0.6454186272609594 -0.6734346528579112
Ni 5.305188838021924 3.2227882985868597 0.7858745872484955 -0.6202436706572285 -0.1328797535815776 0.9625318063057424
Ni 5.518992779752095 8.295669356163646 12.157274939723953 0.5974678104132937 0.07048730738728505 1.8212146990446185
Ni 2.660249768213836 5.56810891801272 11.325541945111505 -0.025436180684917483 -0.7256013075591375 0.25375219828963397
Ni 0.42829927566404624 0.46931975705522616 0.32783998846559825 1.2065294963117736 0.3182262096033036 0.9885230881631812
Ni 7.912210503816255 0.07602494088353585 6.880579648033961 0.3231200473604951 -0.5063900804691666 0.3823387238124964
Ni 8.997305081203265 2.7087109033341075 1.4767946428572583 -0.8522181109501387 0.16862400106072248 -0.7169521165245717
Ni 0.7483292614075209 0.07852577926246633 4.494679764610075 -0.482379319376866 0.08917382805319482 0.2295360060547466
Ni 2.2052500173145737 6.9457897592890046 0.08751660709039276 0.44314428513564325 -0.09864937164379786 1.4184272204594668
Ni 7.937792015353367 4.235777946940029 3.548305755083957 -0.44142267445884625 -0.3838381911761583 0.1220168427251447
Ni 8.075451842017522 4.425183021692056 12.615183996238281 -1.582323477027217 -1.3408524100977812 0.16602358732339795
Ni 8.377017107289133 7.491398277937075 9.540776652105935 -0.880099410741439 -0.9745110901548054 -0.11582459787150376
Ni 6.926075984217552 0.9050478600027742 0.6057496333780505 0.5723234499371821 0.8200536104024523 -1.2434433386189876
Ni 1.689298585299145 6.865888473431796 9.55287965457712 1.5230610918214738 0.9318498038408533 0.24542465226054508
Ni 0.1749495193350738 5.270519157912416 1.429260519125903 0.27890864295060347 -1.1945365856159558 -0.7195227054652253
Ni 6.536349115707616 2.187355695410768 6.742265727956037 -0.9564390631444432 0.16903177802210242 0.7981161868994127
Ni 3.277553838933027 4.807004366188567 0.7070304036816909 2.4603526355031886 0.7788126014747943 -0.23575499038126493
Ni 6.26741574299775 5.904116431747884 4.41648239664437 -0.7418735623565998 0.878223533874965 2.1664919992284433
Ni 5.582555376163834 3.152557406315695 9.227799776566842 0.48508926210886133 0.2696909810070775 0.14340070771755947
P 0.4015642308186448 5.960410312754874 12.272634638638845 0.6405206757387097 2.3997342504901833 1.4261963228819243
P 4.3476925112819815 6.281252684337703 12.595491144878258 -0.06283827548245952 0.7940073069373615 -0.12000624005301912
P 2.4032883973470844 8.828723647954956 1.525073832660765 -0.08786333677188739 -0.2994553567537036 -1.498124219370478
P 6.402946809455757 8.00741339081337 5.857952356251766 -1.7910584871762119 0.16950486100377904 -0.4080844653180327
P 5.073408698995404 1.6104434850133345 12.787223300231704 -0.9074029836523986 -1.6434846219175696 -0.7919524812908619
P 4.0475373222152955 6.538432389584571 8.091065479375683 1.1475252498634236 -0.5177530708904696 1.5036572333735654
P 4.873387115010158 1.5053336755183815 3.8762485426535274 -0.5157344977985441 0.27956376003609923 -0.8059074008090573
P 0.14324918679516435 6.004459273943602 3.7192406510046183 1.2936528695938432 -1.2041234579734423 0.02948875348773631
Ni 0.7249474687500923 7.430528472213453 2.237134114624415 1.090853251092676 1.2063418057809998 -0.40334489375051824
Ni 1.840795353303252 6.952794653984443 5.134547783787838 -0.9543369291997758 -0.5112710627105518 -1.2433242965426199
Ni 6.353539558688309 6.068458539115577 8.914224300935595 -1.3080104238670955 0.1791675809045237 0.7422384018951861
Ni 8.709940647905137 2.511946140518949 10.106747580879723 -0.2289467092101799 0.13541743240176676 0.22295089663806117
Ni 2.3495144589772847 5.592798897497686 7.2258845674558 -0.43983141871232634 -0.46264224595925485 0.2830419483926867
Ni 0.5363738840956798 0.21264040142946014 9.440849554959023 1.1288834663925202 1.6944906806517912 -0.785812429831395
Ni 1.5277493385437895 1.5833882164104274 11.542612715004186 -1.2319134836025172 0.11922051092693015 0.24971042412009256
Ni 4.395489545996061 7.182773534374993 1.4708823297889901 -0.8103939758255011 -0.1511088749950946 -0.23110746430692458
Ni 5.522104044668771 8.423868026356036 7.909051933117221 1.0063485463803765 -1.1773281921574692 0.33504276694001006
Ni 7.246090504609101 1.0348776699599598 4.742054436736496 -0.029687499762103713 -0.2149596509024685 -0.07420486544818833
Ni 0.8271761741540768 7.923054444695429 7.302404399600936 0.5874536207104011 -0.21468865662926895 -0.09500971800868153
Ni 5.108906230296192 4.776382969377072 7.124665658559859 0.855093889836037 0.7100502471984158 -0.35642354660863135
Ni 1.0573115275170444 8.088351764976137 11.84031710065405 -0.667537827757502 -0.547119954088361 -1.3251576250703436
Ni 4.5602501275923135 0.5808749793965678 10.37171181650437 1.2402158328206252 0.04450579572185883 -0.4446118708201052
Ni 8.144509186995554 7.350991076989774 4.895121392824283 1.2745189769778695 1.1199522253411616 -0.34875780253325744
Ni 7.779017434678674 6.687955050901782 7.177538967611674 -0.04501770236127086 -0.6471397237171241 -0.14000633732402984
Ni 2.2892268782673098 5.54147212363837 2.8789061915421197 0.09609729464590547 1.2748452499690366 -0.12539347250686145
Ni 3.6396705056239225 4.329989231960778 9.144356015392228 -1.308940391880533 1.3828680924079344 0.10097776266665835
Ni 1.1776774518227155 3.78658225164556 4.090349964976608 -0.3532112103189207 -1.0150216486743424 0.26813597781513177
Ni 2.0650247616840383 1.5654938945066212 2.708902855643294 -1.5424181561918469 -0.12120437412617836 -2.05927905428535
Ni 1.0083955291048614 3.5567671220400983 8.404227939137874 1.2195017402017254 0.5926860727539341 -0.4853049776640932
Ni 5.649656808986647 3.4200443137572827 4.534264697451983 -0.753934607286192 0.15855941773586887 0.4227256122699752
Ni 4.0166248128969775 7.163505525329614 5.965921436399675 1.369121175135487 -0.03261830025565351 -0.1205950226769536
Ni 8.216595921497719 7.6100721107968345 0.24655318902122803 0.8050203702184136 -0.0013989372300556554 -0.5570109879498278
P 0.3946548574145063 5.797814880428122 8.336403273680922 -1.2070069501688243 -0.20748108313723623 -1.5420903405387827
P 8.71559004999068 1.7752950392679687 7.834755472742948 -0.06956068180795763 0.3176911630354399 2.2988171658581313
P 1.8190983742790645 3.527064549078265 10.59539993756778 0.2940228728842227 0.048357565367781234 -1.2050457126773955
P 4.147789191752632 6.64742673159245 3.648485756221171 0.03958753248463504 -1.5813654839893216 0.8097573706827669
P 6.89131533144966 4.442003866226951 10.350581597141904 0.8070800809609198 -0.3213940658083239 0.4259551749508664
P 6.335927252025488 8.148612053888597 10.149235451250611 0.6297169002549865 0.010601172554614 -0.40437230657376816
P 2.488902766150703 8.859954561577611 5.996611972431542 -0.9363595187857487 -0.46355318780929844 -0.06925703452460977
P 7.0531011071168095 4.1997254824231085 1.3402110227417678 1.6035476765133156 0.723850900526934 0.878841627074938
Ni 3.0906596095523526 2.2542933774484917 0.21735187540708142 -0.8436044011391987 0.024781834930370224 1.0172541375492867
Ni 1.8003943957156558 1.4562084399919188 7.270130029586634 -0.887077384721169 0.23080613101642183 -0.4885461103092103
Ni 6.914058496045245 1.06258794170322 9.264575473717903 0.5151801679569709 -0.7724048981762375 -0.4612314816546573
Ni 2.918275519183661 1.936416714528927 9.406138027426659 -1.0503275230644877 -0.5557645171372364 -1.9874573443573575
Ni 6.7204140954126 2.2501905105554485 2.7351593843056046 -0.07158722531968316 -0.3082703839421723 -1.060539173490167
Ni 4.214308399561798 7.176596490870833 10.39856785498542 -0.006642702127498238 -0.13149804274270258 -0.947329644644007
Ni 7.052355131318075 6.42568997405134 11.386164305204327 0.5508904768743867 -0.3306801190959402 -0.5624383296129862
Ni 7.835493261002429 4.0379851930851505 7.841426497782125 -0.7328088810511701 0.8553643698886043 1.4582194127557402
Ni 3.2089331627152298 9.234907470366256 12.378726952844326 0.5033219830668042 -0.6593871736259096 1.4042473294146591
Ni 0.1107537532209933 4.940461256035456 10.441840819398147 -0.5286437496610444 0.29859069476056316 -0.9655052871117694
Ni 8.693247165091977 2.714196554634562 5.939398357848305 1.4200899528738704 0.019423655942250418 -1.7239480666809601
Ni 3.7487558202901843 2.79646312960971 11.271989980028156 1.2116879005842616 0.49294398226658975 1.1832615269227686
Ni 1.4647143835506677 4.070535210254351 12.77328355978778 -1.2407758190891536 -1.0026782966176409 -0.45547863833128005
Ni 3.1565238142211647 8.719438193440253 8.142220314910654 -0.0477034767235501 -0.4834134170683351 0.5867985036249055
Ni 5.651676402002734 8.54076789237734 3.6894425567514837 0.4334417131358987 -0.9836536758860221 -0.15932174982319014
Ni 3.163838015955105 8.58605408172007 3.5640704070550324 0.04600886262994657 0.041445668739296365 0.20003002617582968
Ni 4.08599146491351 2.7167528863351063 6.865547325962863 -1.042061940621586 0.3096538945532602 -0.604490778698346
Ni 5.284692698088384 4.3806337108822255 11.998949763981669 0.5074136366376745 0.859580464852481 -0.3816746078659362
Ni 8.125132010760117 8.9627172764863 2.7085962777845456 -0.5357387088346127 0.6002862536986953 -0.4192193988889296
Ni 4.637094732127873 0.5401528883248821 1.4984170243015722 -0.6057331357458793 0.773911307518435 0.3350612788827713
Ni 6.420923006752106 6.163170173757429 0.2992864001791339 -1.9008739027391588 -0.9551442555924196 -0.07327361188317058
Ni 8.127624661599793 0.14954813366155742 11.433763929249718 -0.8517918220459976 0.1952968823662185 0.08620137568843218
Ni 0.2937534430963202 5.138563316928835 5.923114251997867 -0.6304483791043723 0.21761302936491556 0.16784289992032383
Ni 7.443928744793171 6.470830607140656 2.367739011631018 -0.004997453214591393 0.3193973470932693 1.3063132386703307
P 8.95561231186664 1.9024293293572858 3.4726246908491065 -0.45209840900513754 -0.3610638735941201 1.5340782688675838
P 1.8756105896661726 3.5644270198758914 1.5929921999558507 -0.1311447731683419 -0.20552087408707187 1.1840968783398702
P 4.934065878151177 1.3812742612823874 8.225503964206517 -0.47567619632507757 -0.7457818962720704 0.00972056972187358
P 8.558316518179293 2.124366226746837 12.57719654327757 0.6592146526037873 -0.37855765950350934 -0.48131231156493226
P 6.3714065887946 8.164186573003654 1.4986571921197016 0.5259991129493458 -0.23206622867576807 -0.04333825777631891
P 2.0822367886499764 3.4581709548853206 6.242802180545824 -0.9113534836597144 0.0472537907806412 -0.1339372483118145
P 7.062125594828337 4.31972751609525 5.876353395862762 0.05396051337685546 0.38010289250344215 -0.17192915417455554
P 2.4814521054291894 8.875110606464109 10.348543809594139 -0.06842014044561119 0.10370338912793753 -0.2054679093619494
