# total energy = -340859.0631321135 ev
CRYSTAL
PRIMVEC
9.38159699253955 0.00000000000000 0.00000000000000

0.00000000000000 9.38159699253955 0.00000000000000

0.00000000000000 0.00000000000000 13.73091550493886

PRIMCOORD
 96 1
Ni 2.138938441560655 3.435287513044654 9.607302260460864 0.3958159323633248 0.3641561393661986 0.21660824224948502
Ni 9.107663735314354 2.9854211743863766 10.078959234437827 -0.06363660301403878 -1.3141785003510205 -0.9442510057186834
Ni 4.727611879421787 8.661287350734757 4.628952191041073 -1.1317906127369861 -1.3015075897515713 -0.7092421494748237
Ni 0.7691417854353112 5.351750763686423 8.43792184626193 -0.350960466611531 0.12448433042903077 -0.4883152252453267
Ni 6.489963636379466 7.63722975016371 1.967653934594241 0.5392675479234778 3.1176852405929147 0.5498268114965628
Ni 4.9101027039876195 2.718674227291974 5.241941985447903 0.40054007731187147 -0.3398011075606019 -0.07666438273227442
Ni 2.0687922408985777 7.337365765709786 8.327827867475044 0.5782493285033138 0.39165434478646743 0.9968071825488446
Ni 5.939310801303817 6.325138358937707 6.878515609778003 0.10013958303607914 -1.8334338668186296 -1.2579523308684402
Ni 1.4811946768932418 0.9510312496343605 0.9385359006091069 0.6295595487415158 2.1535148702424847 0.25142972080404435
Ni 1.3337722618599552 9.405332426073622 6.605544911243289 0.8772693974918118 -0.9536681852675254 1.1174813952031657
Ni 4.1059966447463045 4.534416652695271 6.38828119744996 0.44057678151878316 1.4002040125832207 0.5774083206592572
Ni 1.0989696525018606 1.2186131588604903 9.475828560303267 -0.47319148223001084 -0.23239430143914816 -1.5304825810965255
Ni 9.047096145174676 4.927083394531737 0.8988254768880367 0.38630053667372183 0.31716048734295055 -0.035675341914422426
Ni 6.204172047404094 5.05978608389446 8.712540891387032 0.653615561249455 -0.37200546020728836 0.028397577306086576
Ni 2.3424628065684265 2.014444649560419 7.570581008857902 0.5901481368234288 0.09043649681570232 -0.0029709097028658513
Ni 2.7923010004357467 1.422437734971804 10.962886735312571 1.1898391801402863 1.1363599772752235 0.6899269940859796
Ni 8.632279452854974 1.165522701518415 6.099767069029337 1.51217298415406 0.6204794408171186 0.2862874519131779
Ni 3.4030804905927465 2.0429459412029747 13.332678133900341 -0.14882882071166625 0.084307501099829 0.5122311126309759
Ni 5.467041209043688 0.9894957972757296 7.825523092465198 1.825632625606656 0.819481539949066 0.24870769388719102
Ni 2.7969917989285964 5.674083672921097 10.748849352722624 -0.6618587750948538 0.28523124273452166 0.20050259493687406
Ni 7.217300087486801 2.891942942020864 8.65883875392149 -0.20907028200122701 0.0017082409403583482 -0.7335413883418205
Ni 5.09576450833462 0.024030022519171475 0.9455355101201375 -1.1510106373088629 -0.315699843637024 -2.192756332241611
Ni 4.3638029299133345 6.653184660736672 9.153082860801222 0.8913356457768908 -2.4513781999187203 -2.214543346209715
Ni 8.597989715872242 1.8219999505927587 0.3865349300466118 0.18321038351532964 0.2803356052051172 -0.14049021893898384
P 1.609319146926944 8.89513303720031 10.7489309726164 0.01822037966276862 -0.1489128957850403 -0.6115849665409662
P 3.1330218397623915 3.581884347543199 11.672473204922962 -0.6073863550785862 -0.07438227156631706 0.5854394184938498
P 4.158514824672252 0.3839521763964487 6.473687503768976 -1.7074845218082981 -1.0790865974750514 -1.7032252323113117
P 7.647511980460037 6.055689511911423 11.409416039923034 1.2966728873670894 -2.226678696020669 0.8546843131024442
P 0.20810258433679302 7.751713378180205 7.464757533018906 -0.8749392066967383 -0.246012406443215 -0.6724702320621128
P 6.71676374350876 7.421171571583044 4.498193368573786 -2.251562860856858 -2.0139919003127766 -0.9583627625297173
P 0.6838808938695728 0.1307250487181382 4.596259201865306 1.5289406905307021 0.42126008346804217 -0.9566815181725522
P 2.5424784543035464 3.5894646779076442 4.4917397680073226 1.054680657826861 -0.26786472643161613 0.3019423848416155
Ni 7.11648544627847 7.947619886435588 11.213380065629249 -1.1003331655586532 1.8004599829957701 0.6067410081851035
Ni 5.999671996309809 0.3583704377358425 9.95441947261236 0.2556414448925468 0.0019134149726289628 0.7066425070684476
Ni 5.512729586364046 6.065831018252965 11.678102163114382 -1.8318364404245224 0.4795752742691677 -0.9932215220801152
Ni 8.16696162396125 3.4810790879318545 12.110420224610907 -3.1906649753847502 -1.270050656793871 1.1225978904941245
Ni 8.565688877450476 5.659973751054605 6.650225705047382 -0.33050605541192113 2.5640915058547518 1.3782010259495683
Ni 0.30718725906096006 4.810751591909058 11.521034528220097 1.072668095543217 1.0952940604728492 -1.6361605774523305
Ni 2.823851311098655 1.366870536025504 5.198250011966103 -0.8569569111867046 0.47182648356168416 -1.078730242576897
Ni 7.9683438341769985 0.5695651964391222 8.109931834044879 -0.015826425509295326 -0.7474975934115965 1.5752143767862614
Ni 6.73002932164654 3.5679620576164206 3.6448573791500105 0.9325501723419874 -0.9519064653814121 0.44847263932709214
Ni 6.839390597708841 4.996704225762615 13.202522548119235 0.5478095239562178 -0.293427662502385 -0.22519341281533475
Ni 2.497521841548073 5.918952735844848 0.7059951942842645 1.0641806268974965 2.039301839832475 1.0610662496382306
Ni 9.182500734469281 8.887402601284094 12.855940086995925 -0.43318151749597655 0.6001206746551084 -0.15907106726496473
Ni 7.994396529006287 6.9734160922465485 0.0654525876901318 -0.460441124542878 0.2606255283706995 -0.47651437595565677
Ni 7.074193207066936 3.6027959272243235 1.2410595678084755 -0.5528820533831187 -1.7990721015093083 0.12107479052684954
Ni 1.5507029289602918 6.607074111551957 5.8579376435289525 -0.33375592980778646 0.05353268181081748 1.2496780066747897
Ni 1.1103682928394858 7.794530986822939 3.1947030254642725 1.6186927596848704 -0.6844014362820601 0.6336722853583087
Ni 5.486873905071458 1.4502072620494755 3.2473750635807854 -1.4812459555579005 0.9876818232088085 0.6086654789013259
Ni 1.7987523532621947 4.219110559602886 6.598501208226425 -1.6830999223163465 -1.0227521845493805 -1.3686735460751074
Ni 0.6432932908303397 2.268385716769341 12.236895409894524 1.748847143915485 -1.1344799866436912 0.09485545181900439
Ni 8.6159930004878 3.7841328153609157 5.802822637557363 -0.18240562822584716 -3.0546757296399134 -1.106392741489172
Ni 4.0363195239335115 7.52971664870759 6.9956129507147145 -0.7880541746777202 1.33668310921144 -1.3877261918311843
Ni 5.309036352610533 6.162893020667014 0.6274712275139571 -1.4787342448796403 1.031842576886423 0.0423848927241141
Ni 4.603999957538207 4.147444540229126 10.108494378068206 0.32140229333844 -0.4663292078925388 0.32401427703999036
Ni 5.016077223538085 0.49974172271335277 12.276756877327063 -0.18893571603488107 -1.5602572412557967 -1.0123939812435079
P 4.98947101448664 2.875778450414503 1.1999916270035746 -0.22252897860929416 -1.0949446475532303 0.37590145282758486
P 4.016374248741914 0.022400439122755418 2.6423774516460723 -1.821216241706515 -0.009438005484448262 2.0895301398604076
P 4.199146521217317 2.3905716359110953 8.891632763364946 -1.203828809551159 -0.868898142708981 0.13566271564335347
P 0.0037273084824185317 2.736414827191933 7.79432646800865 0.474157445687706 -0.4765593702609793 -0.18955355212453806
P 6.98931789913731 8.956057128025446 -0.051879293171221336 1.0671021714196653 0.46919187415231456 -0.1474417105561525
P 7.938472829374531 1.788920439621181 4.253975388480843 -1.2236504722627763 1.4413015539544791 -1.7986926066827023
P 2.792526158763403 5.111178472182123 8.253543444382574 2.55025588552324 0.8408481785503004 0.5462617198531238
P 9.010395337766619 5.137878497203426 3.1349187986729006 -0.8096000191692959 0.35935177599901985 0.49003555037054314
Ni 7.8107517680112135 7.19718594354946 8.532775420745546 1.4898447529705052 -0.9433596042526656 2.682745088534619
Ni 8.418632344699633 5.114602755081905 9.656815514872292 -2.6627025680614467 0.07147846765596078 0.24598052476401508
Ni 5.868930060717097 2.577678206193892 12.890459673104807 0.514402666360998 0.43195715817057223 0.05541344377329812
Ni 1.0899351746046317 6.658109999154164 12.50159998332514 0.44557372051274236 0.9950518904206347 1.1911879808586967
Ni 4.0770450364484345 4.268861168418053 2.542965359187104 0.6880691149416344 0.36447084239314004 0.4807903776231913
Ni 6.455054713995677 0.5467407091326132 5.399820190321752 -1.3791687891794764 1.180733361184276 1.2712436486607075
Ni 5.52376234441923 5.392607618559146 4.33836472968661 0.10063991971126539 0.6184436413340123 1.5113862265867066
Ni 7.04355291131164 0.7725482433008187 1.9372810143530377 2.520272708897588 0.0213992916113825 -0.6588148460622072
Ni 8.035722463728295 8.948232876139372 4.118657109878506 1.2923675751235162 1.078772151558426 -2.0962517748549576
Ni 1.7467407795734748 4.778150542383752 2.6027364517426963 -0.8927446103092754 -0.6875147851000611 0.9326208776789229
Ni 8.912170017326341 6.8419142472979955 4.558691534895769 -0.678852738549689 -1.5337273132860683 -0.08043850506272598
Ni 4.42721314393968 6.7212950548528525 2.8382623822283883 -0.820305064291626 0.7366467667400216 -0.39959673956199565
Ni 9.301328041890155 9.064677257925878 1.7888913566705253 -2.116434163340103 -0.49822091439481286 -0.16336095288957028
Ni 1.6749058914539714 4.375492399757516 13.189862082987034 0.4171177791648945 -2.319938264107463 0.07746322448448595
Ni 4.24469417458289 4.323011746219512 13.455830357531623 -0.08445431109033842 0.7007572519322641 -0.3509692083622794
Ni 2.2017763781708726 -0.0965263132261667 12.775147650074477 1.6067024200922135 -0.12027286345084448 -1.0144377511464142
Ni 3.484550278816563 -0.07321679735549697 9.236388627555142 -0.5013216648073238 0.5602994288931125 -1.1097940538612372
Ni 6.921657821676443 5.602764772635807 2.3812153692372564 1.1323631974110044 -1.2057946750282782 0.42317606954383247
Ni 0.7612621821270219 2.36998841212447 3.703296284933633 -0.8777843894550172 -0.28476998682738697 0.32665531420726324
Ni 0.3914508868671186 7.175777139228093 10.35670798031736 0.12770180892506394 -1.5314745126961495 -0.946565512784473
Ni 8.838965416046927 9.204547487385677 10.388989117385453 -0.34087968533676133 1.2921983965355037 -0.7604161012454775
Ni 2.8528029193965243 2.047355291786254 2.7308177664302646 1.1423660742599875 0.04768290789825981 -0.7720012349799156
Ni 7.5440517289017395 1.0396498147612807 11.87304049056084 -0.4123465830284963 0.11587319172125206 0.7840553379309722
Ni 7.441660979399812 7.900965204625702 6.422813917794621 1.3576363144243393 2.154141190972574 -0.5943182090407183
P 1.3057212868727128 7.985540301451786 0.48265408196359916 -1.1446957508344284 -0.7756758556180254 2.037441132474653
P 2.9903934207887977 6.783035344615742 4.406978915560922 0.6646337667368296 0.49939025211256577 -0.5413452563881128
P 6.40179538790786 3.837082548748205 6.597155887218675 -0.5166909481745424 0.8102327676572885 0.07694077632211266
P 0.9366820970447326 3.1539709458314595 1.2671366547899268 0.32201421589082607 -1.446793687417302 -0.3592368476877103
P 5.993179931195705 8.078662033131844 8.280084920414819 -1.5285961627070899 1.425095376508262 -0.2052164554727756
P 6.440372514713058 2.5542711217145713 10.718435153454685 0.22967844516988187 0.15843703322539165 -0.10426646072025915
P 4.206107666180707 7.917636302469291 10.626287231541744 0.9133332330939045 1.134807030965807 3.8114277517702426
P 3.5089142861884257 7.777353282742122 13.92712989266343 2.0681707003480256 0.11325915113717266 0.029123656838833712
