# total energy = -340857.42235587176 ev
CRYSTAL
PRIMVEC
9.43748146459680 0.00000000000000 0.00000000000000

0.00000000000000 9.43748146459680 0.00000000000000

0.00000000000000 0.00000000000000 13.81270807867958

PRIMCOORD
 96 1
Ni 6.214251107061485 2.8531959636327984 8.143764915982471 1.0610881040151017 -0.7085183839349216 0.14247125392475463
Ni 4.281360567340676 8.398924209690412 6.162042016905783 1.3550418142242855 -1.0598015239931942 1.8382819389395504
Ni 5.904748908681797 1.043389054687043 2.232879756976341 -1.0535617137310693 1.348150229310775 -1.191896062669315
Ni 3.363546638485014 6.58886248875026 9.899830087813632 -0.7337661027581169 -0.16136526261578016 -0.41720468245174597
Ni 1.6782767324305026 1.9727922105471343 10.324515801393936 0.611842848188043 -0.6402447963695038 -0.42180952821360895
Ni 9.288529507018191 2.767937757803797 5.797939270615569 -0.6939952506180822 -0.30790991527896006 -0.3702414263283301
Ni 4.795939233803627 2.684406611047931 4.0323573426677415 -0.6740496607340908 0.23308309997605667 -0.91643166951357
Ni 7.180384940039849 8.857812299155695 9.06308412310133 -0.3950394592086164 0.4454965874179037 -0.9374288405905274
Ni 5.246003278277753 5.176024354631301 3.6084728712475953 -0.15219285208789274 0.25611041410916535 -0.4674576650700272
Ni 2.213749982434013 5.219984142405432 6.845522341980762 -0.9463317995071121 -0.7701742090735059 0.21755517954378661
Ni 0.5217558709718022 8.849479003190783 13.610559012412768 0.6926629049599039 -0.7162034112840052 3.0786021585485237
Ni 3.821604229598188 1.2324973044547571 11.701186676026676 0.8488296540938799 2.6003222060520117 -0.8168003935724772
Ni 0.197944563484528 6.5486399435606195 6.234862566163826 -0.4116086764212073 -0.04891729452599317 -0.21623106141572437
Ni 5.60107907372942 1.5956610213582116 10.013964155096582 0.9199473959763125 0.7044182457236191 0.40692386935102814
Ni 0.07108594019988795 3.8609679639918966 10.401742710658795 -2.3393367232387323 -0.4831295672793292 -3.3178345659554282
Ni 8.160580620116422 4.003728743223168 12.693436850934486 0.8363217514348564 -0.2245778907185229 1.532180794734555
Ni 2.448337454460966 1.7596750084184527 1.9758527857242811 0.9808848548916332 1.042104363823747 -0.5321486774905093
Ni 0.6223896212923478 5.894943365638148 13.113232061718621 -0.4549343357920358 0.5312968710131754 0.09470504228406916
Ni 4.23407878615811 3.7997847728927807 7.544030912236404 -1.4588878995776746 -0.5565304487689834 -0.043606423836041026
Ni 5.02962070762828 8.40605894553353 12.22478474334316 -0.06799050910736032 1.0307436873952895 1.3863969314967994
Ni 2.797731886185705 6.809359801235182 2.700673997519865 0.8473947214195664 -0.14941117557769754 -0.21859056278683645
Ni 1.7520495235490887 8.55495408759288 6.030669446327805 -0.32739759168992644 0.16789817863829148 -0.05574922984616206
Ni 3.9570320858795887 0.0689087132699842 9.7423374003137 -1.0141415600622339 -1.6263554184364508 -0.2941491140494418
Ni 5.548955864653309 7.471842674223716 2.5495638786055164 -1.1829460525648787 0.012152833312450038 -0.588688778669083
P 3.4509565900444796 6.786237972113967 7.539417871389689 0.03315411815446548 0.8162203526992909 0.7598882537664655
P 8.772488030957776 0.05169757867065389 3.666058494485076 1.0854125396930792 0.55093675673129 1.0275174671485077
P 0.17431499787077395 4.30776663994523 0.5412810759795088 -0.48614829950099503 -0.35725401292972664 0.9934462364964116
P 7.87199188023984 2.4663913561380615 11.01247138008903 -0.09530333798970039 -0.5619464775782322 0.10202343032235331
P 8.78489831883304 8.231097480195489 12.149865298249786 -2.04928929006249 -1.3516340740943174 -1.4436001201806685
P 5.18013909646675 0.2092903034720889 7.983026678672422 1.5559444728130558 0.09129447394062341 -0.27874357812764894
P 5.701078625308354 7.334149822436564 4.763850853724018 0.004565250773179234 -0.3603007701758505 0.2327521989991992
P 1.4297784130057254 5.41352800837191 10.855241054568516 1.3652881745426422 1.1921806837892692 0.3009967330988945
Ni 4.3431571947225995 3.198900340179417 1.62159805114345 1.2584164149890522 0.32663654515418583 0.41697071206406894
Ni 8.155418317859562 1.131950378961932 0.19640531028874425 -0.3425215918155585 0.5758659158728018 -0.9834981241447643
Ni 7.7244746104464905 3.976888546480011 3.649483446123611 0.3392845729354996 -0.30093245551986236 1.5901440015129
Ni 6.729509272176163 4.913247126039015 1.79729564002086 -0.502923976297437 -1.3163258857113267 -1.5167603464144266
Ni 1.825171128459771 7.5154438377094355 11.689432293099955 -0.5837013527568204 -1.0709012334507815 -0.40788674748492976
Ni 8.81138932876906 4.6093130416109656 7.630553740556116 -0.41227716324314156 -0.018235806281736332 -1.1533871079608393
Ni 9.130564945454562 0.9665490821544183 9.857272709756812 -1.1843606735242185 2.7316037619085343 -0.7939517711090778
Ni 1.9563993055742568 9.436537525837789 3.1756105238915255 0.06994069085519568 -2.688487133224718 -1.9429700605782603
Ni 8.27672770215511 1.8548897569914873 2.4182186767232334 -0.23690144528088233 -0.001701041851506748 0.6890510192389293
Ni 0.8035769930268232 3.056686934862036 3.200459412085876 -0.46639734212631284 1.5545226527648646 -0.6640858646531596
Ni 9.311641898658133 8.327954350510195 10.067613404894693 0.617743015722562 -2.8586422262179862 -0.16387003131550487
Ni 0.5521945793247222 1.295237679964078 12.359168814195657 -0.19034725167042701 0.6762217286847451 -0.5807764658005417
Ni 5.893744805516353 4.875336763761497 13.31819905501911 -1.0658760123220483 -0.3825649808906895 0.16856795101180644
Ni 3.133545782357208 3.627022240691574 10.06182539762937 -0.20273636936339925 1.2211097081187936 -0.1559839436992088
Ni 2.7637475161181566 9.397475790844846 13.007565302634672 -1.565802082333426 -1.3518063380061236 0.7574482768664051
Ni 8.633926930893418 6.050812806358956 11.317110444368245 0.007620749770051391 1.1184409309029577 -0.6267966412843979
Ni 7.9376106875377195 7.649861883494522 4.615391723299527 0.8765476888344389 1.4615592757622506 2.3091095489230753
Ni 6.30289736866784 2.3520090830976033 12.431202277515451 -0.8694337034974768 -0.3404780790229685 1.0715126417825351
Ni 3.022221253249515 2.889190517211702 13.498275635207637 0.09258876727201475 0.0796419773033596 -0.2643484857482415
Ni 3.9323153224230736 8.577707854944409 4.001403347837263 0.7907913711032251 -1.7419061938212774 -2.120125753259078
Ni 2.2370322487368854 3.358346586303059 5.224781214136987 1.0343018370601929 0.5860181738154553 0.17661678945821196
Ni 2.1074461933640696 4.711266151813612 1.6146775461252514 -0.5616988803438003 -0.5087691222243045 0.2797177691154602
Ni 7.225684850154883 0.26151732484221224 11.211194535778661 0.3367834037802006 -0.1540396754886444 1.514929720963591
Ni 3.125769297787461 0.5978040388255411 7.327600210432433 -0.4541784314626178 1.7793573966892 0.3231431872889467
P 6.105125511090626 8.763267611753113 0.6239477494506794 -1.7947387642412767 -0.6634415462009412 -2.039859769218474
P 4.635737989178069 3.505297607219971 11.601873229336361 -0.15209232195428646 0.21060394503693405 -0.10764951825987913
P 2.4627579258475847 5.491849665464546 4.425025457277993 0.5925048099810635 -0.2839287218730142 0.470060649910513
P 6.4439122138634275 2.8960893160229704 0.88304058535361 0.45277126670244605 -0.7152410473707359 -0.009218690384790576
P 2.155567910380018 2.8660215006841168 7.9931795210269545 1.067405047372065 0.36841388620128807 -0.16545305953190861
P 6.485220069399574 4.819608436838733 7.475630879207086 -0.7834531855705991 0.8192881929913375 -0.6070503118954061
P 0.9107745115734115 2.1719419403903477 0.5870424789288387 -0.6064576726167297 -0.5491770937277058 -0.2757209892512413
P 1.912675454831976 9.277978402953899 10.65151792129994 0.4299966920100917 1.54250094571364 -0.7955718232110041
Ni 5.113689790816761 4.729848552442049 9.555907507731538 -0.06375178843566441 0.8145339661358036 -0.7439867520448606
Ni 7.113463760326162 7.852220356970883 6.903480745728564 -0.12717421855636807 -0.09681848908264616 -0.4764750380772891
Ni 7.520039891089856 6.6653532744757475 2.8595483322783046 -1.8492258395455639 0.22047286741121386 1.1663040731328238
Ni 9.15671620606472 5.968744469200555 2.0262555419641473 4.091465623229283 -1.7581403962919528 -2.399913713490841
Ni 4.025840761848069 8.678452967543986 1.2152833386110447 -2.594832386582034 -2.6399161662945505 2.1928280660198105
Ni 6.635360958987086 0.16224162807699027 4.147624851451697 -0.2883227371756518 0.5432077635181484 1.7555921759488022
Ni 1.1986828090501398 1.3526175661097861 4.591868801224169 -0.9803366956976473 -0.8927399823235851 1.997473590942779
Ni 6.9589910668338995 5.608487496529482 5.441916895792124 0.1085064669435357 -0.3458681396902882 0.7950935980230048
Ni 1.9009446656084372 8.297905410133888 8.513145101801086 -0.1825095007935631 -0.11804166012748057 0.06205408901826732
Ni 7.255016541954366 6.89332507212965 0.33262780249341256 0.21300766938242027 0.15087439038678532 -0.45867169134728103
Ni 7.6387728429976125 8.90030927733236 1.8654616235145831 2.664066795398825 -0.7112321833216589 1.0416271670770127
Ni 0.7697105914751992 1.2920855612185735 7.226421917442378 0.08097560851311861 -1.4196927174354517 1.097477184167097
Ni 0.7920141909699611 7.572540599416925 4.014635640331489 -0.10452459947765223 -0.95916417538509 -0.2827637550306356
Ni 4.650979521435522 0.8515467665942608 0.14284854780711922 1.5937144924729778 4.137006545083874 -1.7739863621852738
Ni 0.7771690329260138 6.111986559976799 8.832107431409796 -0.1243074385315343 0.20337323161644977 0.5411750493588356
Ni 6.741277811324797 4.553197777955969 11.072957141322 -0.24429799485526962 -0.8121132725094529 0.13754682003994376
Ni 4.3538215485621805 5.389509618529668 5.8341980736701435 0.22972241103393987 1.0991699984884877 -0.35974412634143205
Ni 5.04758967197391 1.8222266343022937 6.218329042719966 -0.7280595392916429 -1.1770350863970827 1.1931129657955517
Ni 7.6436708957788 1.4700575830830087 6.6635544905449295 -0.4081533708827551 -1.1304436117907886 1.1364013720361203
Ni 1.0915107717029913 3.6799381981946966 12.253667211034001 1.8089821615341684 -0.5217776186688304 2.183387489432201
Ni 5.435460714852605 7.190398107671526 8.693663356113236 -0.44129386219046585 0.23435013961393833 -1.8429171237187165
Ni 2.3850213925939334 7.071127219331155 0.0609387603341206 1.3589313790866788 0.4446959458934793 2.3785743285831167
Ni 7.394219390745353 5.692405580017581 9.192964627889893 0.33875209747079726 1.536953790643166 -0.02952037805662013
Ni 3.4511830895950544 5.577343808325397 12.364500991115449 0.15604102218938934 -1.015774981900599 -1.672695439153571
P 3.864412644656894 5.069050504390906 0.5640197433610005 0.620028726432945 0.6072871104965606 -0.06883383094426211
P 5.369332283565931 7.076100771962534 10.737847281253535 0.34119156015022534 -1.5235843113147953 0.028920796799408257
P 9.215993025946496 8.324962668946347 7.482426809472468 0.24101880988336555 0.6509899507011498 0.5530597166115637
P 6.67130832515962 2.3612672522273632 5.006429984893765 1.4529833611677816 0.09968963998285413 -1.473042593811502
P 1.1318088167428229 7.872520379191182 1.7779856095861999 -0.24553983768217066 -0.517911707955521 -0.4580222306887402
P 3.402485686221394 0.9797238060128738 4.533606510579345 -0.15596003243980883 2.9740037684101424 1.6855427274298842
P -0.04131634926929218 4.63595505124737 5.173066648000041 -0.19933351432943736 2.1833154985436853 -0.8519450597944103
P 8.98306655062376 2.72317578412138 8.490380953220154 -0.2140199126970185 -1.3030106566596593 -1.0310884723292177
