# total energy = -381161.72871968383 ev
CRYSTAL
PRIMVEC
9.33050614593543 0.00000000000000 0.00000000000000

0.00000000000000 9.33050614593543 0.00000000000000

0.00000000000000 0.00000000000000 13.65613888660101

PRIMCOORD
 96 1
Ni 0.46280242734153365 0.9144073144509637 8.846842411965808 -0.1915333015587282 0.1681133799728911 0.8474145189139082
Ni 3.624621659832777 6.920632229394361 8.83438805257758 0.5864796868329061 1.6141167102784137 -0.9245399004430013
Ni 0.8934528641107766 8.805235819679334 11.656839054448 -1.148034071179042 -0.2899587301171781 0.22475195440254195
Ni 5.510223614258102 8.442409763962658 11.964566606224487 0.1884325511462174 -1.4054822302630245 -0.01828080058705884
Ni 8.587844360744427 6.277359155298932 10.06406849899477 -0.03303096231303988 0.26528462440926565 0.7289244583950995
Ni 5.1560096155652 2.087271510776203 9.555268543250415 -0.18566295882088024 1.4548970332507267 -0.5497846454047177
Ni 4.223313576333846 0.9272376932303701 0.14882903485896123 0.5634773124004618 0.46270652353828695 0.8833225456644271
Ni 1.2745844395186159 1.7190710836124037 10.994748215882854 -0.024373286638041898 0.775336984221368 -0.16695921176378986
Ni 1.2269335454553265 3.1221925735746994 2.8353149704713694 -2.2282462976181043 -1.2036593738528303 0.44564905383536796
Ni 1.544571960688645 2.068489202229228 7.150436060440566 -0.9829540787158362 2.047144218695029 0.8555746861271974
Ni 2.598601899743577 6.370263003387471 3.1301505621289545 -0.1746072152273509 -1.0369500733163175 0.9471401543410203
Ni 8.84978898575574 1.1296910120839538 2.6131024390942246 0.9316407731538406 1.2234566110844154 -2.2337350886468172
Ni 5.933772602922476 6.988474338408298 9.558122745031103 0.6517731087240775 -0.9121996337100934 -0.31180307968577914
Ni 4.539515093645538 2.225969482237099 4.356444967924337 0.2964332820979282 0.26067592199266076 0.021250167628027918
Ni 2.6562550962223446 8.600188620162037 13.10992073870477 0.9490579401890235 -0.5022680878809931 0.9176182336225035
Ni 4.890761991435341 4.903955326897548 7.479207635414695 -3.2338098862033404 1.8077056088145902 1.9804863123561633
Ni 1.715964025119536 1.027465988516811 0.400415865176785 -1.7980318331702516 0.646495662375222 -0.091345638893533
Ni 6.197807261274337 9.084031338498814 7.814998550041028 0.7907476623494833 -1.6043948550049594 0.4148431241981049
Ni 7.302501847825581 8.133187465127438 5.944298346723689 0.6018600259437183 -2.0908925674255734 1.0447024635682267
Ni 3.7251485313107247 7.062465250866078 0.9660143430517181 2.5316662954465112 -2.373090679760726 -1.9266759514039271
Ni 6.855010780804756 4.722514307521256 -0.0455711242793247 -4.097520056953479 -3.5251212736936703 2.3509712221538672
Ni 5.582441730578811 7.129532927883294 4.714085128414779 -0.016938170516235345 0.5243687764347744 -2.241959276328823
Ni 6.735934863429447 5.836520739045118 11.721514389730768 -0.4064888386961387 1.6582085583913055 -1.319795589427482
Ni 7.2116787025716045 2.2639073195704325 4.545773064009401 0.08921830813788506 -0.4247408429277911 0.6204951245464023
P 0.9216515192973975 6.508569093597015 11.77990842838471 -1.1522702207475768 -0.7957299460554231 0.41285180479968897
Ni 8.252608611224176 9.107441578014145 4.108312290922008 -1.2626672198456061 -0.9619479087778143 1.3785892625269227
P 4.757634332047244 2.4832022017261965 1.931715181102354 0.5097304576963092 0.17555106719785896 -0.018395728898368317
Ni 2.0088299469637745 5.754645549030361 9.641629840542564 -1.0529482485167865 -0.7668770263794727 0.6967823264449161
P 5.635224402933623 3.7827923972835076 6.128684073788717 1.313345462926764 -3.0989539827319983 -2.1476314148785143
P 2.7059960236261813 3.2971955438216263 8.976985242489436 0.3975563120931992 0.9657546841184143 -0.5964630232978632
P 1.4637044653202238 5.5780937147899925 5.212125144657707 0.33336692189948397 -0.021524247225020995 -0.391853348171151
Ni 5.585679416155463 1.3101243368139104 11.680641175214683 1.0161264517027468 0.8332662524379842 0.5035137873626361
Ni 2.741526590415491 1.4039332439829548 2.4535713138709414 0.9227619826069721 0.02892182524067277 0.8129133998132452
Ni 3.031397419838677 7.33182762813514 5.4139486543573305 -1.305767907689822 -0.8265649291584087 0.5293842273714947
Ni 7.690175040979214 8.373541299290418 10.647363214520071 -0.032067312848189936 1.1162066422558001 0.222112717007482
Ni 3.2759873037186584 3.8827034553664723 2.8901578185475794 1.5298997120098619 1.0162169545340238 0.35886815149438195
Ni 1.2414611432733296 -0.061264102294802725 4.24883437630289 -0.7584000992567133 -1.4234699250896967 -1.6982902569035394
Ni 4.480704914424682 4.941426638931652 9.81636036001474 -0.3964257980331818 -0.4101670588786742 0.00045508525954760334
Ni 2.2289179221282285 5.245078625694074 7.303863168648733 0.9419082165181197 -0.30592399519718283 -0.7696700157435776
Ni 6.440820289642924 1.9027700854369662 7.3992918516567014 0.7010853246956442 2.326742945734122 -0.014544987693710433
Ni 6.625480333583899 2.268964453814079 0.13230657486145334 -1.3810670346434537 0.6548067533440788 0.7181255680073826
Ni 5.122139878841146 5.10022252028335 2.16529040266753 0.8287963895920888 0.22000081287080178 0.3275474870042295
Ni 4.409354535160539 4.90040040411742 13.582777719295295 -0.42495270182828104 -0.1875522054237931 -0.06808049771800533
Ni 1.1673582647437342 3.257923444132497 12.817269418498178 1.0605422588139606 -0.006795425655278619 -0.9383600941555452
Ni 8.355113549970856 7.519744018664736 13.272524399548777 3.3589344213195313 1.27751945436709 -1.8940820766283057
Ni 6.63538933093953 4.468006095779658 4.370592814148767 -0.6896284890089542 1.1281496735502894 -0.32772129357793234
Ni 8.718928639321899 8.558845148144329 7.862644778851325 -0.24524750325273245 -0.09448701273599212 -0.05782590986953267
Ni 7.848159168310254 6.5520585819911785 4.02686723723314 0.7641112907088776 -0.05166194715066587 0.514616582144017
Ni 5.9049973224660075 0.5245983684774579 5.442981456778973 -1.732033671902572 -0.3988662891538744 -0.4179796129445576
Ni 8.446757779751476 3.14718899910741 6.602989148908049 0.07463835344118112 0.5850969475527665 0.9173174145526332
Ni 3.5340784297583383 8.995531489235 4.004403111024646 2.042879015660772 0.18433035605238576 -1.2761444283964343
Ni 3.3045386520314968 0.42022826158445853 11.074540836961852 -0.8311936861796718 0.6266984251436368 2.96080243922852
Ni 2.629523196576501 3.473952649193655 4.991113449400778 -2.101643378184174 -0.0013143479360493491 1.5350974541607176
Ni 2.789280120044611 1.0981539018560473 9.003164776180991 0.16984373240043651 0.8031843454509393 0.11936166449048476
Ni 8.305615215722618 0.9482686537196308 12.288066445317325 0.07414521585484649 0.40890284745426997 -0.4420705924554903
Ni 1.2193571745958414 8.042224362283692 9.457107888090158 -0.49779976769699424 -0.8061922790393277 1.006923702157556
P 7.807450170699497 3.194989181266453 12.260603967052889 0.4465306851093729 0.4066958125006222 -0.9944157994985325
Ni 7.276021871841321 3.087035227024773 2.465738293674844 -0.12876573141320405 1.0734921341064092 -1.5405119403080694
P 8.011471014558492 0.9296925493549152 6.0989272241026695 0.4719753504347226 -0.5558545057478814 0.5894667944856881
Ni 1.9774794468555597 8.795242847769842 7.531592828214563 -0.284787984549516 -0.39561975719211867 -2.1340138240950797
P 7.173992788899855 0.9537456607325838 9.654111258398144 -0.37218389476668157 0.27375306689159307 -0.10721937270099599
P 3.1694982389165594 2.3624094712497246 12.500337322567892 -0.7359001183819842 -0.7164996023681853 -0.5643610005569959
P 4.681049538925748 8.349095373610796 2.2104239262161776 1.0836598186680306 1.3603079477192312 1.1535177200014328
Ni 2.557445037845561 0.876564648278673 5.658216635780844 1.811328293168842 0.7596087748528337 0.054885596294286125
Ni 6.072694506527001 0.8502274290359773 2.928395165123018 -0.4314244255955538 -0.3406295169991682 -0.9215489361354775
Ni 4.648336784943784 3.5888018473579453 11.643510426649016 1.7914109854196243 -0.5075355069275195 0.22383381346364678
Ni 2.5643122902502173 4.486209912955588 11.400513260140604 0.12207057878121558 0.10356737777070552 0.6488613343939212
Ni 6.821775518487655 7.845714575742291 2.297098728509406 -0.16464470469800033 0.2813596755942574 0.6624737829710333
Ni 4.815642087753425 9.12565472569606 9.669228544194375 1.7439237384719386 -0.785656620979821 2.305589965805591
Ni 0.25720006271815177 2.0647849913533465 4.9343858391156825 1.2790217499442293 -1.1854994151143516 -0.3930689657458069
Ni 1.5521203400301764 6.7943438308929665 0.59695364323614 -1.7508536328225526 0.3396087890441377 -2.2734264936991684
Ni 4.377798763920664 5.081505525278267 4.7994769861351285 -0.6098487005761497 0.14607671188782584 0.33803681657132745
Ni 2.3403521551021593 8.355402795656378 1.9950114676006 -1.2133159231059878 2.6718880912154566 1.1074515217709897
Ni 6.5599148680302015 6.805727048194163 0.27506611557744026 -4.046011347551225 0.7834863528013797 1.2470256566536073
Ni 6.92766743090674 4.432652808604056 8.20568736272888 1.1501778569949224 0.291718136010446 -0.6218696362964259
Ni 6.588410233307132 9.355418435566532 0.24611915381085545 0.13960087435549504 -0.953383564147571 0.4850805203581129
Ni 4.833034150908698 7.053993151432072 6.769184121505526 0.44897657554670417 1.105364557334974 1.292414883421684
Ni 6.760399450121036 4.06537610153273 10.333736916860127 0.25734917161227294 -1.1628989041060165 1.7640549620041748
Ni 0.20103881414632005 4.111506123120532 10.963708421623926 -1.2649552445488343 0.5337682153718033 -0.8183245435264873
Ni 9.294200985801652 7.606769647982985 2.4660387359675475 0.6410307826059088 0.43444881424417436 -0.7867274854464967
Ni 9.019902770866743 2.674701506553874 0.5286198165568151 -1.5400923362721475 -1.054604553173287 2.182757826268002
Ni 8.982011586063333 4.289326906174804 4.402056213379395 1.1802564215478577 0.5247109902655415 0.04768984987679528
Ni 0.26293459169627936 5.0144098567430975 8.492834617455166 -1.8127200313100458 -1.6175992695103754 -1.518720555464591
Ni 4.051706910265309 2.244975722927704 7.206945336885623 0.10306369866140959 0.4803836291030759 -0.5950340041608203
Ni 2.719431952243988 3.39010872241615 0.8032800551239259 0.16246518054817827 -0.6282853100147824 -0.2867592493432739
Ni 0.41082964290618335 7.458759831549471 5.928962727087421 0.24261186540209828 -0.5303707596544801 -0.6881071672684214
Ni 8.821713493248117 4.951279653251377 13.386471337784357 5.10906043194744 1.6920453044350923 -0.780771782083694
Ni 7.836281434191873 5.538523038909357 6.318627050218165 0.23338649014908838 0.49094263556584483 -0.6082132218552558
P 4.052789248959521 8.978074112537836 7.870920004609056 -0.8336701727446223 -0.7600327497641297 -3.1290343470571464
Ni 8.476008916013159 2.7291916615038665 9.146212629531902 -0.2706921685780822 0.03966003759378331 0.11983937545785167
P 7.359511239391411 5.461807618704077 2.17805826705684 0.011056257814161604 -0.015290607610483344 -0.36325419637721956
Ni 2.8206026286348718 7.338956134707365 11.288368975661246 1.9293085039307678 -0.8832996628462917 -0.9525672388938626
P 4.71959385914808 6.530859672394195 12.308455466994845 -0.5013494327214655 -0.3992257293758221 -0.02262262249552233
P 8.806159539771809 0.06689786180829677 0.6238749521534709 0.6129741335790089 0.41588390675779335 0.6975922239407212
P 7.566088641890183 6.728498450159732 8.107212269516944 -0.16181931943406325 -0.3432908658814152 -0.022595883022644956
Ni 0.9679466908411263 5.088363447176939 1.7297134587384246 -0.6833184876305264 -1.1062683000961657 0.748180478411234
