# total energy = -381167.02807274496 ev
CRYSTAL
PRIMVEC
9.30810790759425 0.00000000000000 0.00000000000000
0.00000000000000 9.30810790759425 0.00000000000000
0.00000000000000 0.00000000000000 13.62335680073370
PRIMCOORD
 96 1
Ni 4.550687475359563 2.3225870399863857 5.700189484100267 -1.2337351101922882 0.7628882169350539 0.41151483115582027
Ni 2.330368618299522 8.507070869215413 7.10610659879924 -0.18963094232969277 0.1890483303533454 -0.7244700221681716
Ni 8.486928123438348 3.7794455683123087 11.832853214304304 2.0714216031851547 -1.8078902140215702 -1.3402759687690209
Ni 6.941568103962549 1.2167186492582265 10.309202495187032 -0.935702344817724 -0.9010736990002609 0.7516303846330474
Ni 4.404680492799933 8.597499138727512 11.03430597235085 1.2914962282621565 -0.009053368451519892 0.7980387966942579
Ni 1.1480061957802725 1.985251896868731 2.4790693673230533 -3.0911540270716054 -2.009514067047081 1.2437063624723872
Ni 2.4192052013384804 2.8283151654759813 4.536728105746871 0.3273333141108943 0.5180225225017724 -1.9874367755320674
Ni 8.30906879519983 4.567237291437022 4.95128610551437 0.12998417720133743 -2.232218137781659 -0.07037854972356267
Ni 4.800666024615039 1.7357201367986972 11.182078703003784 0.39564623955467987 -0.4986253489220832 1.3138131465918017
Ni 0.7985956441152118 2.91720759716312 -0.017811064715533037 0.8621227716583603 -0.28836336060560014 -0.5224021396267068
Ni 6.518151577782836 3.28027035087588 6.344983535991471 -1.1088525158835743 3.622103284937375 3.4150713735224154
Ni 6.774180397257856 1.0854650179262528 7.283237102179004 0.5257209195872946 0.3751244654522443 0.41089648084553104
Ni 6.750779813670268 1.8248918117267383 4.994472934341472 0.9153425502144493 -2.7403455126569063 -2.808154758991396
Ni 5.072751330441926 6.369743103351449 4.005662379388631 1.2270749245632933 -0.30436410690923066 -1.1600688908563892
Ni 4.250584764362175 2.299400542883489 0.15980718352500678 1.1923115529401789 -0.8420236869156402 -0.08134764714055669
Ni 1.9253914541273707 1.5852731867087257 6.452293921037704 -1.2715174711473842 1.869681536296754 3.873838709907296
Ni 8.660468489550915 2.837316105941056 6.648293821016019 1.5654773520041554 -0.123425035926581 -0.3475488698268208
Ni 6.098234900222427 4.069365209124802 4.041055529362158 -0.407993191155807 0.4300604553684916 0.4838880427119086
Ni 4.775366586989318 4.986567558191536 6.297015132069324 0.01727292814783477 -0.5419286396954086 -0.2321474755356647
Ni 2.704107771922769 6.314378476788611 3.361781452895176 0.49833532848549006 -0.42256388988113036 -0.5431949080023419
Ni 8.54272092297057 9.032113318867397 1.2687612120651335 1.6987067756156682 0.8443513066075523 -0.2626466725657864
Ni 9.162138279939402 0.6560550009859791 7.439402023031845 0.8378039924073377 -0.8473497271142438 0.5506441651915356
Ni 5.469006797389904 6.604307425709135 12.75373692009693 -1.4172933639653398 0.48848877470871355 -1.8952395872715164
Ni 6.733857673271606 0.77121584434477 2.845660824790011 0.24204159472092507 0.2254381818362892 -0.7064746140320156
P 5.211888929275366 4.8052735380899225 8.505770526523612 -0.5465823364173361 -0.40593296619266855 0.15328762781396826
Ni 3.8370348326943327 7.799505729201846 8.91158262798606 0.341656929822418 -1.9435202766547754 -1.2591005855402704
P 1.5477522032395261 2.2860620240764034 8.75405593092842 -0.6754162020643142 -0.03688633150338809 -1.4733791512153143
Ni 2.87540488400009 5.186468486245253 9.197251255861223 0.787981669568572 1.1299376186886476 0.06367568378209033
P 1.938069097264322 9.172181728503844 2.455351377251639 1.1732054282383473 0.962605082745839 0.026296471802683748
P 2.0024160480761743 5.823794643063935 1.2934202518583868 0.45216500057701475 -0.13185825429559872 -1.2854705908933668
P 8.545103798626267 2.16043048999459 3.749788074506909 -0.38331857122726243 0.8192596537462471 -0.6185215457597993
Ni 8.665485559779123 6.789743553884128 0.676349468923934 -0.3910521924260943 -0.5173424657156123 1.2143160822357282
Ni 3.0553399203293132 2.793605230631862 10.249015337853816 0.4327176904856806 -0.12666745412327862 -0.9401984329158647
Ni 0.7902211393205605 4.546787378094965 2.513999904327485 -0.9822107727919085 -0.34795870367072984 -0.181097708047701
Ni 1.4568026796777422 4.2325456509999055 10.862447581359316 -0.6542447101930217 0.6145898148055609 1.4059599412303916
Ni 4.685776047199924 0.10721544234432571 6.273978495505711 1.4549893358542167 -1.2514574671727157 0.3687321887726553
Ni 0.276137125252374 7.84988120986057 6.085839292758788 -0.9781594855406702 -0.9679936007512621 1.1652506921676449
Ni 6.757211716319044 8.26868091445737 0.3049438579838251 -1.1515096884324687 -0.28778100573956894 -0.5016247978700392
Ni 2.6771235667436044 3.2555387078399924 1.8363603316305837 1.385012649554763 0.6336123786546507 -0.7267428773627483
Ni 7.488977937210785 4.968314358344575 7.929815518379571 -0.801408227387123 0.32524814944709146 0.04691671915619662
Ni 8.888666066016036 9.162799155609537 10.413762334310379 0.7459220213943605 -0.09516269864677804 -0.28997030008140384
Ni 0.44966259839209344 6.196547137235993 4.135505832354049 -0.7984308899263539 -0.09408823463567666 0.7093128548117591
Ni 3.6249309750131977 0.6732107748961954 8.427640129340837 -2.731237636818367 2.4883758601889916 -0.714517281830834
Ni 0.5936720609684707 5.516924937528689 12.967596286952537 1.6053199379223901 -1.5047242411854989 1.486885670342181
Ni 2.2117833219964695 8.899761330787877 12.037774935829441 -0.19068020952981354 0.6903049462506885 -0.5605925346534991
Ni 6.463298897161652 3.8153097085521566 10.27100295064244 0.5865187676009577 0.4141779798102802 -0.7123624402713603
Ni 0.17314384071048666 8.326931054509528 3.2083819709380674 0.07373023980461496 -0.5354165496085037 0.5258566738342104
Ni 7.5950159038893075 5.707582914308548 12.138833064711877 -0.9183705384074959 2.2683292816819196 0.5510617123449284
Ni 0.3976023501799292 0.7227745885346957 4.810502833181214 -0.0142757931927238 0.48096392708657815 0.4994722703034108
Ni 0.6638645036232051 6.460320302592031 11.027794019973015 -0.00588576935681567 1.2832938949570223 -2.201215261642241
Ni 2.3141725103272055 6.066503559947929 6.812073705048259 -0.970217090765142 -0.07603986177439809 0.9990399285341053
Ni 9.266696257441144 8.276648654931106 12.463000958210198 -0.7373188531063818 -0.4385898329957414 0.9145776470239668
Ni 2.91438724043001 0.5957971020317349 4.956858869791972 0.8990353284139936 -2.6755729962662116 -3.4832801692881685
Ni 4.555611464507468 2.3890376232130337 3.3151078068000115 -0.1526451091339629 -0.4240096211887214 -0.6823137005150959
Ni 3.28860110756279 3.3340060585334563 7.725110675771537 -0.1836335870956773 0.019589749206469487 -0.27234615924173744
Ni 3.0061186450663193 4.218611413278896 13.140258898477867 -1.7462948098072764 -0.14928981950848483 -0.2040851700818098
P 2.3898474286116493 1.9132536812561636 12.144105177100107 0.1434773265917658 0.14705347397879837 0.7289288292704736
Ni 4.238456299598998 9.310341975994127 2.4958127920475373 -0.31643929290620987 -0.373224420216054 0.551087166266225
P 2.854089316611237 7.071332438009713 10.67483987158091 -0.7244774783673393 -0.32324037498844327 -0.7716109415200324
Ni 7.0148136060511455 8.07816255929796 11.459423089867657 -0.25665137421429995 0.6510498574048078 -0.0670397151583168
P 5.495609370139835 0.057560409247130774 8.590357958246846 2.5270203120340673 -1.8663977233391598 0.8692053895367545
P 3.815142162607615 4.4994556487620745 4.036955307774913 0.4486299908405629 -1.0681498959578895 0.4376513803418721
P 6.030034392686127 8.365801713643089 4.038575849382948 -1.3728109652822487 1.4183176914647961 2.4532587047708847
Ni 2.32451381834861 0.9288346916719079 0.6013065711747315 -0.38790593348762875 0.7980300549435094 -0.2992692088848265
Ni 7.18917308567036 7.584023028305797 2.6029742473652884 0.6506760190051568 0.22093797997309045 -0.6027362579010845
Ni 8.264864590165041 4.267767531785679 0.5612267888080663 -0.8018872239060705 0.5941022363751705 0.6135114941397176
Ni 1.771165412177192 9.061880648347552 9.44165424840669 -0.46598879383398456 0.24347112807860005 0.7760178123384764
Ni 6.405793405751898 6.000257755097943 1.027190676793216 -0.013884471291576089 -1.7318788914922625 0.30940192644345427
Ni 4.213612959266749 8.862984995961082 0.04699756825461084 0.40302093475219625 0.9275588897749831 -1.2741736778233088
Ni 8.301417530399114 1.2085088979757075 12.534946117606996 0.5822710480681972 -1.514981400137133 -2.495000307484045
Ni 4.135545857218578 6.958881184898474 1.17297612638173 -0.6775088229272849 0.467929205389807 0.74634908162945
Ni 1.477792463285543 4.102492765603811 6.019058271697072 -1.3224579667509935 0.08978883592937438 1.0927666660653053
Ni 2.8638535219347765 6.538620107340953 12.712076620986759 0.3727546796684871 0.42302925955332304 0.09601964733043462
Ni 0.3671592520567923 4.4573364599260215 8.690394056867582 0.7655634497743719 -0.04203599402512761 -0.30529690313614516
Ni 0.6004520868575713 1.960929810586166 10.655671684714592 0.06319180216713634 -0.19464716459736156 0.697837764292624
Ni 7.662965092508795 8.279189768423315 8.69542136601462 -0.5677882810709899 0.5056676004808451 -0.2693999321292199
Ni 1.5306159763561729 7.976881035822802 0.6233016304497796 0.3324708924477758 -0.8555330342559848 0.6323772206959689
Ni 5.995445463246398 7.1666195399135075 7.426636883679411 -0.8393602811508641 0.2860043734551203 -0.8986023546416331
Ni 8.09490784564405 1.8644140384224024 0.8929361114323489 -0.2950626270026467 1.671190315362954 2.7200474245295028
Ni 6.104303786658031 6.641707403773943 9.682092917742152 0.008999632395449016 -0.968545359489674 0.9752112015456237
Ni 5.194091826721878 2.2741290295818577 8.831409101090685 1.0518611861001947 1.467550460348679 0.10398415359314994
Ni 0.6894990331380095 7.181344966817073 8.541980928382179 -0.5259998842802941 -0.623257517782888 -0.13844002127817445
Ni 4.538326307895634 4.972503006958105 11.083227526535277 -0.6062926077937751 0.10997379551768158 0.38850860006863414
Ni 6.636476247061046 2.813813133165137 12.539046339194241 -2.278222115315599 0.3904544109410953 1.2503143547072078
Ni 4.303082493651752 4.837647137818495 1.7969619027717194 0.649798758606526 -0.755772431825879 0.853924295007968
Ni 7.643148130512783 5.467889824426296 2.9272100900522307 0.7518584414834535 -1.282139983858237 -0.4859570094257953
Ni 8.153986407310885 2.3793106503216137 8.900371011863845 0.7030195656038796 0.9226447403028175 -0.32954214883675503
Ni 6.303041201207989 3.2730751833686385 1.7917028217347317 0.014268079883239942 0.1651411847184446 -0.810589636776075
P 6.021461625190435 0.7331754684474925 13.110560448997136 -0.5496563473569696 1.1233951895844394 -0.96727780563116
Ni 7.252058663521492 6.619172474233151 5.434806946865833 -0.16184991556168254 -0.6798138169113775 -0.5503677716016973
P 5.068674379124756 4.434308200659636 13.335645394137002 1.7936403889707755 -0.022399964961754972 -0.07339368240080263
Ni 4.000289739433676 7.088906145970479 5.857103707649529 0.031748238945874356 2.1304207074271826 -0.24424091636508902
P 8.066601889124616 5.609252061078923 10.047784281162603 0.6474909364089558 -0.2750553306427843 -0.43529162186044396
P 1.8995056056957547 7.639787903513929 4.870513136461859 2.01153109747711 0.9030969000778769 0.32572997417951643
P 9.175318560909977 5.658101012020713 6.583977586960666 0.5645386637854407 0.16073637078252964 0.710882256181408
Ni 7.618109319911903 8.870617644545737 5.772992851057435 -1.4211621028921266 0.8830633784657695 -0.9098640435983815
