# total energy = -340863.8884530715 ev
CRYSTAL
PRIMVEC
9.37451535960773 0.00000000000000 0.00000000000000
0.00000000000000 9.37451535960773 0.00000000000000
0.00000000000000 0.00000000000000 13.72055081932289
PRIMCOORD
 96 1
Ni 3.6942528354509463 5.605538437506841 1.5126774516463048 -0.47908033691062 0.2894843615839208 -0.503821548411042
Ni 0.8229924687377822 4.7055193244135145 0.09842116371248141 0.3073926093229093 -0.970790960990741 -1.4615657035201537
Ni 4.515544767070444 0.6674420698955494 7.8658822506536685 0.3401824021594206 0.15239416946542142 0.6675005467616634
Ni 5.254303463908378 3.933509220968334 9.301532120492878 -0.8906661305136919 0.36778833680214723 0.9977950003834106
Ni 6.40206289907944 6.913855200268071 8.396620447741158 0.9220929815644054 -0.06233639614537651 -0.014765331234632638
Ni 3.9685230364964057 5.961873147557049 5.122539960787947 1.7913099410653857 2.3639784330468125 2.2263891898047077
Ni 3.521630506365562 0.09079218296904239 12.064178412750943 0.5687377894684528 0.4386345701907478 -0.8616093223570517
Ni 8.651543523622806 7.150533594012978 10.67451991613281 -0.6061257431986078 2.5152276902745134 -1.0532053588329153
Ni 4.493908385212669 6.121764884544141 9.501893641050167 -0.599030269804407 0.5151320883278547 0.3814655771789237
Ni 7.25869675427078 8.930913461120012 9.320260527631293 -0.6439934647786587 0.8287966467024049 0.6295022131410192
Ni 3.014900443566531 8.179367925090569 9.911080932242466 0.4851977626622676 0.17534769293780123 -1.0312674211092432
Ni 5.423944697053219 1.7613777241149589 5.559622060410054 -0.346731516131848 -0.8096550407769475 -0.582898397239551
Ni 5.951233072423351 6.182211760722188 3.4515963131485434 -0.014208944510530367 -0.2451659992825197 -0.13676751867175801
Ni 6.6749644208565995 5.593126578936783 10.490706290400194 0.9596395723596118 0.2730897222759813 -0.06441539016159228
Ni 8.998944320366924 9.18748457683294 4.3952959813832475 -0.3470559893508023 -0.0843147001886806 -0.9101304098858907
Ni 5.399655327298672 1.6398277556713239 10.468231826853474 1.5069392465589466 -2.1556458005425587 1.1548791191253338
Ni 3.878677679596529 1.381372362335599 1.0595077459123563 0.5988436077148976 -0.6931015351592191 -1.0075924460898067
Ni 3.0778128173306243 1.1871136513924396 5.536407010135967 -0.18590130008393144 0.9726766080492282 1.5442176712944309
Ni 8.946578276581164 5.213693062605136 11.693806303136684 0.4902386675202847 -1.7417046193334325 0.4548551458146683
Ni 2.0962822916491914 1.8458796071591455 12.882088019164945 -0.293563673859617 0.08276946718874777 -0.8645943731273045
Ni 8.337206643175211 6.1748058934485135 0.3908385519331057 -0.3952387197036161 0.7964693953246089 -0.5752413949149254
Ni 3.0273310511676614 8.543914710750574 6.910424127581787 0.6842158026338152 -1.4874392288528062 0.20103352773967959
Ni 5.807868606326752 4.199726713168114 1.535933749788752 -1.9404719767467549 -0.3399317196011952 -1.4861071403049437
Ni 6.640644319478214 1.4228452190681793 1.355045910355014 -1.362496727840434 2.482963173813853 0.29022946728006144
P 5.252569178534163 8.169824668274616 10.392494178384172 0.40092317168290303 -0.0906936071318309 -0.7897181926437045
P 1.803366179202036 7.3097691149125295 2.7326947151195955 -0.2757978652357637 1.532330947159174 -0.7015720345240757
P 8.562766861494069 8.02896319782621 12.67184857158706 0.6094023570673505 0.12860683723783659 1.1229974399253884
P 2.4354616382679755 9.22169218402489 0.3800428598415053 -0.8949246486797299 0.6973641670903151 -0.7994652447281393
P 1.9931063736566996 3.6093103501765538 2.489442911080638 -0.13513461105402533 1.7591536680478155 3.100475304472531
P 7.817999100197368 4.687407760397388 1.830197917570027 2.5075336640643653 0.15942176573616415 -0.5512110934385991
P 9.40020170886707 9.125312789796215 9.23977562449441 -1.627123406950727 -0.29981633963754817 -0.23476845809827954
P 8.854942387213855 5.585064495575566 9.304070739300107 -0.2201784760992466 -2.143401693067883 -0.21647120245098847
Ni 7.089692988182406 4.4096033669947445 7.885996211188349 -0.09290835539496257 -0.8867400559864083 0.7752361969774455
Ni 6.910424127581787 3.9219598178276156 3.4995497724713664 -0.30399026850957966 -0.7299320737240074 2.579881421699157
Ni 9.11504769528397 3.1415220249153024 3.0197423808410284 0.6212849674375494 -0.06550862322577106 -0.6562069761257151
Ni 0.981221166668735 0.13784381389727376 6.309162387566284 -0.41138087668111734 0.3059520202216408 0.670049281325446
Ni 7.283248610460343 1.4867231679325115 3.952067949375542 -0.5414930948198868 0.9082596752257389 -1.1362468487361268
Ni 4.668293123218877 2.5540398852866035 12.463514963017703 0.5230179188338347 -0.5754200865846348 1.4988068472597993
Ni 8.72749584849789 5.809171663986297 7.071791413314292 -0.05955909051055549 0.7214330351140608 -1.130882241990104
Ni 4.093860309216705 7.7975157837505575 -0.06329016674020609 0.39350862438638684 0.7461955867707213 3.5212335086034905
Ni 4.0191172968458035 6.838005995063888 11.80698670410951 0.730565079322316 -1.726769852400471 -2.675611305703314
Ni 7.566021497097225 8.839680675920764 1.0319213590436935 2.9024065157881305 -2.3894596080370527 -1.68312691889954
Ni -0.1727807583979477 5.131853541973258 4.586739525310856 -0.48460023828758475 0.289432682410379 0.3418785589149209
Ni 1.3057293964732133 1.4072928977934618 3.8958274183186323 0.5846030386354836 0.37363502539091137 -0.1803222633342572
Ni 2.3535096234496615 3.5841022778994494 5.087415525976547 -1.3211785858179377 -2.5958304888292454 -3.031011553253754
Ni 8.237189936918451 6.843180727639924 2.7472383385226076 -0.39134375552458406 0.3998847031160597 0.541789543014383
Ni 1.0556641945424745 2.822235400264542 10.03647351460443 0.3155070108999276 0.7774355186216094 0.7234204978577349
Ni 0.7682790462617347 0.6861264168109442 10.946393053555639 1.2469588079714136 -0.38208752703363874 2.3222358018923877
Ni 9.000059887715743 2.4722378627168706 5.657600746989222 0.30151943837158396 0.753743060100676 -1.3497353144097075
Ni 2.9737931929398655 3.85198843386469 11.751254271794668 -0.47880677153425927 1.337007325320078 -0.525335768333734
Ni 4.180218346337078 4.278435145610868 3.6426001922975004 -0.6138007432453623 -1.486797481503749 -3.166035349761528
Ni 0.6624998253048134 7.194040720616934 8.435847170551241 1.0312291116721402 1.1921891684297017 0.42699390062802595
Ni 7.331433620316912 1.1361256613905168 12.552150069961844 0.15369849009914177 -0.9663195554829487 0.6978151385848046
Ni 1.2462293463643324 7.317399970559075 0.30350369029384977 0.08142837977982105 -0.03303224786462053 0.9151648869860046
Ni 2.856255517145766 4.606599436474503 6.771723482964496 0.9528942832159782 1.3060669269874798 3.644400405772678
Ni 2.914115027035795 4.2193194506389755 9.319999916099384 -0.20128909539391138 -1.0705749604596142 -0.8837917719913618
P 4.962540416872186 8.275944184145507 5.686098336768015 -0.13741389400650528 0.09305670804736876 -0.41213498123832243
P 5.006450647644205 2.2829570195234856 2.652209811982712 1.2806929669990652 1.5590089706709924 0.7458811408540961
P 5.347073669655579 4.708566041962811 11.869456600740293 -1.4487217576779499 -0.10892787075167046 0.15700364321297477
P 5.249053735208051 5.483416623615492 7.248471032723786 -1.324746248564538 -0.8780165600704813 0.46122222568327664
P 7.398264541575179 1.0934247431226813 6.060847407686172 -0.027667898228913638 0.6213165920064332 0.12387652164170278
P 3.5559787312905566 1.7864451786590188 9.749027431972705 -2.1889850381246365 0.9363055256193618 -1.2673342863039723
P 9.403482789304775 2.587113176098662 12.174574582609493 -0.03251442768793755 0.3641926490310889 -0.06646635915335006
P 7.522833104021501 4.191580259167071 5.785174779116483 1.594338756320538 0.23619002103615452 -0.9133792558404915
Ni 8.208682035172572 1.7478221746494724 10.439775484943043 0.05415874543059059 -0.12425370247546343 0.08568844060775566
Ni 1.6287002057297388 6.523622242038611 6.276945927474244 -0.44399480606139663 0.8819076675947715 -0.2898273467456363
Ni 6.689963645714675 6.366111631997739 5.841304690890064 -0.33195435782267346 0.5115785666486415 -0.7362518452944481
Ni 1.398133996114499 1.9647578386749356 1.3971084241148277 -0.9255721983622577 -1.5478498687303794 1.013009760450636
Ni 1.3413900535732894 7.900241724997307 11.666392407353888 0.2088309122969113 0.4794577748546968 1.0330047155153244
Ni 3.910035434065445 7.405848524644043 3.0193580257040407 1.1999238180697982 0.17713640940710781 -0.08257766289291585
Ni 6.981482955346923 3.411704937186936 12.287947161150813 0.9407951859595992 0.8050401677127554 -0.47825089903078927
Ni 7.1674733435870674 8.573519430814201 6.809798077815167 -0.1608189031940069 -0.5240892975211425 0.11158407742759492
Ni 6.683663971274283 8.511291396684259 4.078296738523344 -0.9707202556538057 -0.5579471266108521 0.7622618962049647
Ni 1.9413121753186553 6.016020349294704 10.448515345777535 -0.7303138825434584 -0.6604696080568109 0.06733076403617437
Ni 5.585383229103801 8.68984779410412 1.8609453910775293 -2.151903559891307 1.2581287085453041 1.1767296393415219
Ni 2.1396488005201038 5.656085825278557 3.996741265712215 0.03471297800115312 -0.09950477766555765 0.12665357016620765
Ni 8.489908126745963 2.73635546343652 0.47683754510843906 0.2676155865352875 0.7718788504694384 0.2687558707873178
Ni 0.24301087898967494 0.49240674051112215 13.753754847470292 -0.3819749127151744 -1.4422443774837226 -0.9722801439417578
Ni 4.4597945231760825 2.979502272901471 7.34129092340333 -0.4448720664600273 -0.045597229013824694 0.08922833544021407
Ni 5.437078393319572 4.130317800137366 5.390008950811822 0.3300268017826575 -0.032895979397072374 2.0286402463535707
Ni 2.8982252232017705 3.5382702714424905 0.6508716762335898 1.65243103247758 0.7363744869152415 -1.6846739516716858
Ni 8.433567288372814 1.8362613542189041 7.936652343340287 -0.7086705932420698 -1.555785064417056 0.6632250593147611
Ni 2.557630324737006 8.512510083703976 4.408920902263702 -1.9099432120302786 -0.45906172769684817 1.4003492799118336
Ni 4.029326144264832 0.648972399385936 3.483936516845663 0.6063699979989299 -0.395366503530732 0.028172348669157937
Ni 0.854822698789727 5.587239383179987 2.16484187357235 -1.881302151254818 -1.4276500246093153 -0.5503045224639297
Ni 1.8547947714341646 0.7390793052692749 8.88420774981507 0.7863207369263813 0.48449070929291393 -1.8552717886293273
Ni 0.21271338222791464 3.7830107485486124 7.934594637180069 1.3484968140169162 0.6115505137586048 0.13235499142635918
Ni 6.4352486840779335 7.119194588575135 12.699014980159697 -0.03493357865239145 0.19417588138789785 0.12231123403711193
P 2.8045644384786215 6.418515173845642 8.294485100973196 -1.6152263984028248 0.2964667064390249 -0.8497315970828591
P 5.626996703569426 6.718659037771284 1.364964147792417 -0.27872043819919734 -1.7352899740563406 -1.119698971679775
P 1.4892824106739206 2.3896015082644073 6.746133867905064 0.7432832982199328 -0.482433312543253 0.43331907151510535
P 8.616801569045288 0.8690279021818788 2.313546063718425 1.4137920356803004 0.5606488418127311 -0.17970854100965825
P 2.389826496637278 5.77632336154711 12.702925090589886 -0.8595354705471584 -0.1496664861216132 0.644785878772967
P 6.775702964809653 2.598437590866509 9.311040691601344 1.4890633947197902 0.28115861532704484 -2.0565061195259036
P 5.595048354621723 0.18010787974111794 13.325509166192697 -1.0782116510692656 0.03624818369875693 0.240477849778231
P 8.999525540330174 7.595991823266768 5.76462115380315 0.26466730254024096 -1.2796580979766476 0.43378007031192384
