# total energy = -381156.6335256086 ev
CRYSTAL
PRIMVEC
9.34790753256817 0.00000000000000 0.00000000000000

0.00000000000000 9.34790753256817 0.00000000000000

0.00000000000000 0.00000000000000 13.68160757489615

PRIMCOORD
 96 1
Ni 8.28887366522633 0.24684271365092667 7.184048223121159 -0.32029003411086776 -0.8125593589079361 2.635459930295409
Ni 0.7381247939479231 8.625323550091405 5.649505084380165 -0.16333909851269934 2.5088577821924276 -0.05205506882402648
Ni 8.232617958204825 4.3075718394403175 10.08773636538286 2.3001420553171417 1.1614007222939353 -1.522577981537468
Ni 3.8490382833055743 3.6127418788373764 0.30253848101630243 0.488491602922191 -1.4329099874566742 -0.45092701440485566
Ni 6.433444907521025 4.009541854186141 6.180283008435313 0.7261785202188462 -0.60846596129601 0.21481078402943005
Ni 2.6071687788511047 0.9043558277218221 1.5858079979760629 -0.4703789524818803 -0.197151419076454 -1.5584626112492193
Ni 3.3281074449560504 6.266509976316298 7.724498427012658 2.0577615891995595 -2.5884043715685037 2.7107068638548673
Ni 8.180176197422066 1.9733993496978937 8.945938079739726 -0.7872013397591217 0.55026132793082 -0.8845705591389154
Ni 0.26824287817142056 3.393486709646713 6.35737818024517 0.28622754520952 0.31916337670559225 -1.2291829720452314
Ni 5.9634134252253554 2.199291533176571 7.89768056476482 -0.06908142817869392 0.34014846359769163 0.352048043248755
Ni 9.168951107724448 6.825468102163909 11.504549153352677 -0.2894499088015596 -1.248754980639888 0.37688130024235095
Ni 1.1105501006262692 8.733142314595566 12.53393978672547 -1.2153764051794425 0.5753483528064349 0.610055160160001
Ni 0.1991197765478709 4.675739174276142 12.531148501561526 1.0237999090876047 -0.06856926442896578 -0.13492223793290312
Ni 4.0289574579554435 6.251600063936887 10.144761405187326 0.8805573242144641 0.6373224805163863 -0.9083095546270679
Ni 8.324171363749628 8.523992233356092 10.341913447217415 -1.8478819239231594 -0.9720621143936807 -1.9455046540746557
Ni 3.4618946963504977 1.1492504374606047 13.116434073945422 -1.3048052866662367 -0.4437960597870292 2.437443592115499
Ni 5.160858179192733 2.540097542912371 4.622905736171315 -0.494152143642078 1.169501754134515 -0.8348078858934914
Ni 2.1381936100970496 0.8873286143054591 11.105647768409623 1.9707888825627413 0.02632809637156756 -0.39125993756152616
Ni 3.0851553303849433 6.072307199086027 3.572431832340511 -0.9759457657188031 -0.5443670739335721 0.41169660814932324
Ni 4.509056636572509 4.365743867488644 2.537979307084675 0.43556261613364344 -0.3582181766152089 0.42826351136906887
Ni 5.619232820900862 0.9164221066555807 6.060295138015467 2.1264231562320157 -1.5197160866086408 -1.2594597686519018
Ni 3.8240326308824226 9.281490565489802 9.375321121288916 -0.40010838909109153 -0.0948870763878882 -0.2530122347998158
Ni 6.276194408432331 5.9355192694008005 7.625156344982259 0.6041372520136692 1.0207950608230096 -0.9447845096246502
Ni 1.328122646476309 2.1794365777572158 4.6029582364682256 -0.01460438017673614 0.6565165369463338 -1.2439986969018253
P 9.404929683339416 5.440491482589428 5.710757247932576 -0.3164647468275066 0.5601881001262288 -0.6939312301493662
Ni 2.3839781406248726 6.840004098245404 5.946314232921644 -0.16429092090300737 -0.8869696554987111 -3.9151241989196444
P 7.425856153820643 4.865772784784647 12.119660159239864 -1.0925856604027506 0.6015327245112866 0.2784874962527849
Ni 6.5640538703831846 7.127171815045113 11.886607478656092 0.37453234039420014 -0.027450382901468857 0.48618840871031105
P 3.5513261269046263 8.144756976101945 4.247865819779789 -1.2398875029469292 0.3354587714315061 -0.5576041414491365
P 7.39089497996547 2.871434122403441 4.478195454923988 -1.9638731292795146 0.6980182557345462 0.9518874392180188
P 2.950003284503101 3.653657669736866 5.269060207902259 -1.1555951713557517 -1.0698974747766155 -1.2682570552285577
Ni 7.097940908455507 8.006005985852658 5.745440788936547 0.6111414512456443 0.1475178152097266 0.4055272461138177
Ni 3.0898012403865525 3.764944507904201 7.522791149683206 -0.08790293176057119 -0.813232987936193 -1.6055945317400153
Ni 4.199547420972301 8.415612594405056 11.367678027291165 0.45596714793192444 -0.892375914115947 1.6704274690550005
Ni 5.841423233030167 7.673183089077372 9.27625293294674 0.5460452329669435 0.8963531535961401 0.773931619233409
Ni 7.278308782662877 5.737960593396731 4.53924289930329 1.394127724482154 -1.276327748051834 1.5139907540890893
Ni 2.555587025553553 8.274917239406605 7.50826076234618 -0.5237969630917043 3.2706705066751156 1.079583848826444
Ni 2.1909531997330376 4.88224379770786 10.139767753028655 -0.7519921388478404 -1.0804310273180877 0.7990602959802368
Ni 0.39376470980042866 8.521393515085574 1.292351943836147 -0.16602204466150117 3.5871280544137703 2.1505557876141608
Ni 1.2089835660527317 2.740011891593314 8.56036307165441 -0.6335295891328573 -0.40014618430756244 -0.13020092119783383
Ni 1.8487169601577076 7.701675510978593 10.513220394735526 0.733680485022846 -0.1266872516176205 -0.7352156907204499
Ni 7.844277839096416 0.7354129659972851 1.6408213680977415 -0.26299917080919866 1.2170301387327815 -1.3822150322049678
Ni -0.08563618013027771 1.084675092810462 10.658929967289035 -0.2506200804185555 -1.1726876080616642 1.9670602687582446
Ni 6.4272378969756145 5.600284612503954 10.147060055628769 -1.1982410310507363 -0.9489352985682303 -0.0750193909296837
Ni 8.303400313400378 4.459924035026308 7.724813451493652 -1.494203801270149 0.5655876738752453 0.5018847363996453
Ni 6.515360620487035 0.27178947425715655 3.836884134041805 -1.592498874898322 0.44515205959429144 0.24799498409088255
Ni 2.9980141371555518 5.546730450734893 0.9638337584406211 -1.4387412494264706 0.6621022585642274 1.0121222156393601
Ni 4.004278982292969 0.9738276062931787 7.40874107007427 -2.13806562556695 0.8677666002076991 0.8060087022736119
Ni 3.0102505480048625 0.6911122978109082 5.248360201649613 0.4742690315649058 -0.5467335172832197 0.9733001005658399
Ni 8.541566299358157 3.2212702107339193 2.8013771648258454 3.0806256167364556 1.9472833432416332 0.36968323983201495
Ni 1.5795252693803246 -0.0565202528022812 3.4015212360981897 0.03373955834429028 -0.4402703060219579 1.2648757974611504
Ni 5.24698979841775 6.972566773764176 4.707854845104172 0.206880730549076 1.1981299593941688 0.5715647173942866
Ni 4.634524250338319 1.4042146131022732 11.457607701312265 1.6781860299544968 0.6793543607764558 -2.6608482884615268
Ni 5.3657736583583056 5.347003060202908 0.07882622955447732 0.5004081518541188 1.1717856650726852 -0.2504583580297106
Ni 2.48842231054034 7.912919523486399 1.6746972498982124 1.816828911272097 -1.2505128438712594 0.7664584507848154
Ni 4.476740920525094 5.039045597239054 5.482151366921771 -0.33395801851626356 -0.34495154141328976 0.7945266697759412
P 0.71703311037321 4.937471234910095 1.1379581652635329 0.6136035396328916 -0.7185318023068658 -0.4628523050875319
Ni 1.0420953743852448 4.683834462126029 3.814063087589229 0.668619490857455 -0.7327492314578283 0.6645504629944038
P 7.750443544134324 7.680081844773927 8.001783536058438 -1.2250545516991547 0.20634722664310917 0.014333900124168865
Ni 2.433475310561542 3.026824387910002 2.280245346466192 -0.8144992562431264 1.4622946112663784 0.47231216494885114
P 0.21034661339280744 6.677986166358277 9.40011270663151 0.751733228759499 -0.7983581277068895 0.053610843346920574
P 4.779781384171349 2.0479395636875055 1.4085492377858677 -1.235536425067085 -0.8301500754065059 -0.46546917388508874
P 8.295716333478198 9.072873314974858 13.413940576382515 0.09505651208621693 -0.3995041798481894 -0.8038572031482478
Ni 8.885784295312442 6.061014926888955 2.529126838731507 0.2711500820511072 0.07173094998639905 -0.09329967729611029
Ni 0.37073800938399887 7.066401068726268 7.18094191347622 -0.6604611234163787 -0.6196250632366231 1.3032536259084004
Ni 1.098986739113208 9.683029929914655 8.781006405101087 0.3195490421797852 -0.9473836378103943 0.6116633851873853
Ni 6.669872182693494 5.428526161056108 2.2295273398168267 -0.5292525868896368 -3.292169814199472 -1.318250613537865
Ni 8.224204841501708 1.1357053195685873 5.272877893303983 0.9340902631355977 0.4730120192293531 -1.3684388043564821
Ni 1.2039917834755494 4.906529661257522 8.119486777898018 -0.8066941583764107 2.580554536506782 -1.0451660334682065
Ni 3.3889529745344786 2.492722347966377 9.478891261858003 0.760562911235987 -0.14172460556671723 0.8139043029716047
Ni 7.502378124189211 7.159796012038308 0.8395514593392055 -2.197968472570169 1.3948538040149012 -0.25187220765810164
Ni 4.9874731918489505 8.040845636911008 7.16113089322187 -0.3094402358805574 0.407811157051988 -0.9577585532868151
Ni 6.19253998468101 3.2171571314568403 13.24356374565547 0.05028203608400373 -1.3080065672123538 0.31194757568344345
Ni 8.261465600589066 3.5649179843338827 0.4399536552912828 0.7893759788129373 0.02964250545678121 0.6192597094774044
Ni 4.853489634398096 6.852894862616068 2.424421862198243 -0.18995361577643416 0.1311964523418837 -1.5610794800467758
Ni 3.183906624664634 5.64398607982292 12.099110654297132 0.6186752977288442 -2.5640830212143197 0.0016894718872809615
Ni 5.235351653645105 7.753481614054895 13.806657385758033 -1.0468858443727906 -1.219356729983429 -2.6926885729005754
Ni 6.055602488476617 2.9323731310563477 10.094508924328867 1.8516185081474563 -1.2927100460645993 -2.124631097328599
Ni 4.29679370215288 0.8635335158968115 3.2175581566863554 -1.1616007541198834 0.3186447851979609 0.805834895699909
Ni 5.393976295128642 8.964512371838717 1.7620272708580509 1.3726821530138682 2.089755368497337 0.7599188498940849
Ni 8.524665282692341 8.91728674341189 3.3880854887233127 2.025907935024072 -2.1671486589758353 1.0862754019140064
Ni 6.610942974141887 2.745134544874767 2.1455765873994066 -2.710354365611455 -0.04956212719884368 -0.0341974718173153
Ni 2.9307559430678602 7.3529144320046225 13.153223698497406 -0.4081798532453164 2.9198540218406164 0.9662462790428521
Ni 0.9597122660468388 1.361532067695129 6.793725412843051 1.1923274937797788 -1.4211901279165846 -0.8554348181152236
Ni 0.15474806426488988 6.869113482038187 13.821980475646644 2.228085346560208 -3.7254132952816357 -1.8552375929572822
Ni 0.8881372082997031 7.051416373087273 4.121501741689725 -0.11867569416705369 -0.7056408052768105 -0.7368665960603116
Ni 4.890077344149206 3.783584235355328 11.526630780326125 -3.2322867646905946 2.5397920098774387 1.530547887116822
Ni 6.869758487652093 0.5694941523321462 11.980436164873714 0.19103913553112906 -0.22776657285914967 -0.18084445438631436
P 0.480827380607257 1.5920327695456242 2.513461615430304 1.1686386348032713 -0.8362654442756242 -0.7271668522740444
Ni 8.013820836479109 2.7385723138463365 11.53438860871714 -0.346361534386939 -0.8810998269814955 2.4263240851635697
P 4.890357781372643 4.501830704115276 8.148724228022836 1.0378777273369095 -0.8292152222970623 1.0345247517042764
Ni 2.3039507049633396 3.3949823748383783 12.379350636887196 0.6033435524677803 0.20030204889029374 -1.9791650224415784
P 1.0479378165401867 2.749200884614607 10.601589903003571 0.9982174326328098 2.3979884714436697 1.7973278651246918
P 6.972641557023759 7.261557332516227 3.0889374937383662 -0.13964741132271433 2.84912374520459 0.6140491118107425
P 6.025062874844304 0.4483359238998212 9.767395729422763 0.17143215993347896 1.2794974040290674 0.4323183981647329
Ni 0.867408223533969 1.9536659170753614 13.180846765005972 -1.2296352290913017 -1.2939781141437456 0.5202015324309621
