# total energy = -340862.49167355365 ev
CRYSTAL
PRIMVEC
9.31326126344391 0.00000000000000 0.00000000000000

0.00000000000000 9.31326126344391 0.00000000000000

0.00000000000000 0.00000000000000 13.63089925792631

PRIMCOORD
 96 1
Ni 8.481018827406675 9.138097341867427 0.18833556110979874 -1.617236743964634 0.10428985775902684 -0.27926808317255125
Ni 7.926507258075917 0.7631081300891822 5.287562112621376 -1.1591636054333003 1.3870134820348758 0.5786738176352421
Ni 3.643915873831413 4.355728424116094 9.82523347538861 -0.6158185450063394 -0.7689416222179855 1.7930168964541635
Ni 3.0745403396929287 9.41673148918415 5.372019421430177 0.23907094212837535 -0.9508597692844527 -1.898379675562395
Ni 5.790492185030093 7.149464626642551 7.114266087423058 -0.12462111311721118 1.2262503717794688 -0.06629075280743423
Ni 3.924831770131777 6.277007634648325 11.685933647394322 -0.4981072716350841 0.1912859614346125 -0.9022947158915557
Ni 7.981716270218892 8.053707778968082 6.211832501740472 -0.37628223320577137 -1.4217053769901065 0.4053634668424438
Ni 0.7122530675374419 7.043107184221367 7.154082141524549 0.9180272961354641 0.8704888842348686 -1.6695733485848214
Ni 6.854746477306443 -0.06135110787649274 2.8414424514807712 -1.5932637780888044 0.9737675271205617 0.3952556889844806
Ni 7.788214643144905 7.973967636935668 11.674851797942749 0.7244965045307329 -0.1294560726120093 -0.18225984667660225
Ni 0.566299363978088 -0.20425099310222966 4.848033928196082 1.4049572109974902 -0.2908619586577378 -0.39678138160038756
Ni 5.369663166357273 3.779349317587004 2.6693119647854084 0.6824851930959537 0.9546439189172332 -0.2350764762570016
Ni 7.708856344819957 1.6003162912536626 8.065457389244663 -1.0233540797994376 0.49047263790796175 -0.697053834938748
Ni 2.710354575381373 9.199099202450505 9.691064772498235 -1.4269691964922069 0.43400941271391064 1.7990636168688758
Ni 8.195567372922502 5.631198166188419 5.349718817588012 0.30137417104297126 1.9078246230253788 0.5183457101691461
Ni 2.3718827251262877 6.110467898625943 2.044853147529579 0.4890184219599385 -2.551293068538503 -0.4721872093352126
Ni 6.113401575890625 5.760820134981591 12.594759855535568 1.3246958549425765 0.3332576500151293 1.2491686711385388
Ni 0.8224363976422178 5.252558220560078 13.43856739355641 0.1766342729597087 -0.754958677675332 -1.4496918349007035
Ni 4.328980738071117 7.666052596539068 3.7508693649666904 -1.2985289667392217 -0.45407944399090827 -0.7842833947813783
Ni 2.1265807394930514 2.3169065445122556 5.417110506651404 0.435757762863585 1.1334687717703575 1.386266576566522
Ni 1.169969119677651 4.837345098365365 10.843189683797691 0.38930229961452306 -0.7657853359771908 0.699893104159756
Ni 8.678078120242914 3.5157095207342137 5.846687471529671 -0.4388695690196893 -2.4972392241168926 -0.63198332769166
Ni 8.93715441912842 8.679745193990145 2.472194929729994 1.6053803588466804 -0.3348620183877717 0.7686518588917084
Ni 1.6226122384652486 2.986800106326031 0.03954503820180279 1.6899184879000766 -0.38488103061837586 -1.554535251170355
P 0.8354125644132716 3.7951352952493425 4.234507016887187 0.7192463118753871 -0.06456965635126945 -1.0345916003864697
P 5.880123010412008 6.736095530157066 10.738381036707038 0.4539827705120439 0.37859442627871576 -2.3847151513735314
P 2.772799991443898 1.9759014872222695 9.395560583920417 1.5953918801754008 0.5315930620973554 -1.1875958926320644
P 3.2474969126529816 7.439209494520436 7.676118369198333 -0.22179878531148897 -0.8194211190247759 -1.7924947054021065
P 6.260532475660315 3.366827727866872 10.735301141242179 -0.5159892941218275 -0.989531731933354 -0.6274360746406098
P 6.694251047775421 0.5269098572376193 12.164337246544179 -0.8848886045999663 0.10597701565346264 1.8458055010101049
P 0.0745787326988051 6.212410855258367 2.3337868303606264 0.12284730904624006 -1.3592527669818397 0.04723245062440253
P 0.12079299721565252 2.7561665070162067 11.638716344650788 0.11256495328362551 0.8997485524309344 1.4416090578925689
Ni 1.76266505975507 1.2945712407068115 3.49631186039491 0.6281187025299312 -1.013775434972067 -2.2813380352367614
Ni 0.6206701826168682 4.044730694276288 1.6966107549939276 -1.7710954137907242 0.9117003254761717 2.8200368551409625
Ni 8.862452751382332 2.1052626847030265 3.7716286240872523 0.7215988712679637 -0.24540896853126123 -1.599175258477233
Ni 5.9471691774864475 2.186930671795089 6.348823122761633 2.565711557956678 1.475602127008562 0.10706664917321561
Ni 2.868884906808115 1.115486541904978 0.7732754172950672 -0.5944099974235763 -1.0095619111113516 1.2951659638042596
Ni 3.94186572478925 5.036667513662928 3.947712590144068 -0.8444523509617908 0.7349683505963341 0.4603480506084394
Ni 0.5965572181534107 6.950915212021078 4.241036544284865 0.25766130353605304 -1.3002256377153543 1.668230975624314
Ni 5.211477425593367 5.523089830669583 8.66888406882801 0.9369734982206637 -0.15975960869155711 0.23029371015637756
Ni 6.003728612497293 2.7599197512627693 13.401286409142049 2.7785449065447634 0.19053108554645895 -0.6129957308455637
Ni 5.68691009443391 0.13298778137557352 5.128325835998878 -0.8730157644217803 -1.088109369798952 -0.8334696266980419
Ni 8.994458915031883 5.0240852978388455 7.774246614060553 -0.4936602916073241 2.9623222183071563 0.39720432807041917
Ni 1.4506335579267569 2.463776672969529 7.77122073551041 -1.0652247518912945 -0.10211907535995317 0.29976543179495474
Ni 8.773203769707884 3.585028123531137 9.367535118444598 -0.33494120836513924 -1.577247090945574 2.322668261444116
Ni 2.282838635197309 -0.029671118722386074 7.469609841591471 -1.8484231411386105 0.28655304686973876 -0.023912544951539463
Ni 8.830377879955138 2.1316750933463258 0.40583559953500353 -1.2478802913444187 1.498960085008212 -1.3700313456545825
Ni 6.060409119903188 4.748263755391755 5.226550007451024 -0.6971363673502252 -0.26626730003750915 0.3730346728027511
Ni 6.561416003882836 2.3165060742824735 3.986887891877909 -0.25096692223501293 -1.2913347629836276 0.2925375465879478
Ni 5.428327398389763 7.991811845313862 12.475434628278373 -0.8948575428872202 2.130226074917873 0.7846734311309455
Ni 2.3941972988601896 2.053611338322301 11.427150716235284 -0.1248640823659527 1.2008152195358157 0.48756626289444416
Ni 4.946952868930593 0.9083549571266649 10.074856814199027 -0.7026953494952415 0.47945083287616147 0.4705221629279639
Ni 4.116256539967591 7.5453247921515185 9.504621666055685 2.6479693756163303 -1.0088720841331784 1.4402124346553582
Ni 5.396783382848559 2.9299333336969813 8.844409239215363 0.9865453956115201 0.40836111601818703 -0.7641105193779292
Ni 4.140862175946293 3.0948339357556045 0.9616314675794129 -0.6895665254227672 0.5106822800866173 -1.7627596402315189
Ni 2.6380184759693477 3.337742413271306 2.5759670108537938 -0.3764341854026033 0.40204468688185596 1.295804111608891
P 4.528265900324049 9.390654357942529 2.432106928402696 -0.5650821949937365 -0.3847856426910921 -0.5937502523523903
P 1.833818375000065 4.599093251428524 8.686944344865063 -1.4495447677998778 0.4692597512757725 -0.1662138489573331
P 9.6896100411054 0.9602437916669123 6.55402220584972 -0.07916349500504431 0.6879536724096926 0.3487341483841736
P 7.3344632462795385 2.196588523615647 1.903459216633046 -1.3380270248338442 0.32966350490596774 0.4048675010426318
P 3.2016011616677282 9.00309230812509 12.57637175270576 -1.1353739592128704 -0.456800185356181 -0.7023901595499968
P 0.7022552816846276 8.38255903044724 10.352231808607225 -0.8353850985532001 0.5316444841605811 1.203948365848159
P 5.782939130231181 5.905101176837018 1.9457973018560495 -0.4617788695176951 -1.0003355074170772 0.5347688887221759
P 5.738682513209686 0.1559421761510106 7.224635682750987 0.8543752665024577 0.13898663781026388 2.134450911632498
Ni 9.190605508274663 9.304916475724541 8.424004905251335 0.38135681951520134 -2.3647361371484434 0.028564956121886288
Ni 4.710116637689727 4.104307625902234 12.055467086262642 -0.6688292928754159 -2.0682825433355414 -0.21059623172745018
Ni 7.5539861250282 6.876437062542777 3.247943017862436 -1.2458745737682997 -0.8915405626988452 2.2018618940873047
Ni 0.4673040545020835 1.4660749449262598 10.080254780366042 2.0014626574975143 -1.1095107182928634 -1.0018432023108552
Ni 7.709238188527424 4.278707754341735 11.905568285276876 2.245065168947656 -1.2451708628330556 0.36228360493383416
Ni 1.9618943424410562 8.048371280324707 2.78367508649777 0.8442371496271912 3.2526409028669145 0.3018264280890415
Ni 0.9756851786664151 0.41231483532243063 12.462267539653585 0.5246289720746965 -0.24725990569707096 -0.2944447909129897
Ni 8.433781966814712 6.028101416947051 10.240117839464453 -0.431528812383902 0.30569105325077034 0.0016470486851197443
Ni 3.9941596861898585 1.4452784327610666 7.128673702434053 -0.881032978299302 -0.049868088475036695 1.0537319207603466
Ni 7.237083787614399 4.425428870620484 0.9592658992453514 0.689031993075536 0.16877055394091578 0.08235423402820011
Ni 1.777491771518163 6.72394172434624 9.263273159783903 0.1989385928838638 0.04569621648553421 0.6141169889342004
Ni 0.6057466129377347 7.264390269328838 0.6651698757545791 0.1934256334854346 2.0682390916921154 -0.8848163566011343
Ni 1.850433232905441 7.232203638767753 11.875798445986218 -0.6103603501052457 0.8414109930323057 0.11940203081011694
Ni 4.286624026325798 1.4935397520803815 12.509157946930483 1.2762205330500085 -0.305638345635964 -0.34730872879155666
Ni 7.57128085099809 1.2563216771320478 10.456316815305925 -0.7508163733721843 2.1510687226948373 -0.041485006617664036
Ni 3.5949374334029534 8.078313414946784 0.7817523476008256 0.38665714868219214 -0.587219393212408 1.0277522088671331
Ni 6.62112332116499 8.736295315739833 9.557019004655144 0.1815625634992615 -2.0952685850060817 -1.8321151480072062
Ni 1.3687141127834355 4.662814584269657 6.409766309799418 1.9477793090414453 0.43482753773983174 -1.785849432171447
Ni 4.289157233360698 5.85669084533918 0.3619729334604809 -0.8194964523474015 -0.6974341010963021 1.2285355682692196
Ni 3.4920445241324423 3.751698245209728 7.579897480221214 0.5022431481803286 0.025575277365943047 -1.458572939440417
Ni 4.289706715769004 1.7078378913195615 3.7869768784751776 -1.3583783347966862 0.3614037734320421 0.0424594547157914
Ni 5.728661444203977 0.6804613192494425 0.7284460347123729 0.651546080314936 -0.7673771059443429 -0.04036631963218855
Ni 7.7351104280235745 4.204946725972577 3.439798060363738 0.9335503314717277 1.3618266983566032 -0.7480820051601568
Ni 7.199895935811615 7.250355184764152 1.0871798159421981 -0.009107104507590768 0.34758795059487235 -2.2758456446636224
P 8.290953793699888 7.259323855259038 8.442270073033859 -0.7340566374153422 -0.19918953255240532 -0.7979878888516645
P 5.959062211984859 7.215607407384692 4.9390878198828965 2.066124359341958 -1.6628725395258779 0.7660205919164486
P 4.310018938353995 3.2037711515174774 5.438892361847083 -0.5710412407906488 0.9916904301475694 -0.006131566819034602
P 2.7561665070162067 4.636439428670989 12.665504318615739 -0.5902934041520416 0.31254432872717786 -0.03830763733094693
P 2.5072882290984055 6.251824576477846 5.209198470588072 -0.10199334841536627 0.4806278839033981 -0.3703779519061944
P 0.7635486473419425 0.9256627216621753 1.5475436282295474 1.1707543955946933 -0.5029440309020952 -0.008499038609946653
P 7.454939592615828 3.7089969428015728 7.532953056029601 -2.993283185465045 -0.8557988863228616 0.8913155911722328
P 8.257463306576721 6.180196284913807 12.909169964263564 0.277727992378941 0.6703989513553809 0.07714954989880907
