# total energy = -340892.33550383756 ev
CRYSTAL
PRIMVEC
9.09950158444631 0.00000000000000 0.00000000000000

0.00000000000000 9.09950158444631 0.00000000000000

0.00000000000000 0.00000000000000 13.31804036055357

PRIMCOORD
 96 1
Ni 6.396230772565823 2.0809559241327342 11.668334594597207 -0.7162052110562183 0.18942036898078346 -0.20592556572465828
Ni 5.015581591989532 0.3786302620727847 6.009006941170723 -1.6528053850978635 -0.5900920867745127 0.8266112090153119
Ni 2.905179680640563 1.3516854669454892 4.989404145752306 0.26352084764062356 0.24769262235911538 -0.3300427426222574
Ni 3.3019361499243307 4.231004364004922 4.771201736898652 0.48712146204754164 0.0561552070353291 -0.4969731580306409
Ni 5.140008177031187 4.44062048313755 3.0020729937048127 -0.9192385428347458 -0.4610695021554963 -2.1212858350054495
Ni 7.2699467183409885 5.976670952242536 2.6573884223953663 -0.17338722677732074 0.5118120228156864 0.03457310998917917
Ni 5.184195356858763 4.975989660475985 11.350859353007781 -0.5245143008737031 -0.4730310453927466 0.14509300781831785
Ni 5.657842614763415 8.187767948429224 12.716237749978916 -0.9151867413628754 -0.718582195928827 0.0756156297527859
Ni 2.0601726624510652 6.436141186635788 0.4353319864672607 -0.28638309695077774 0.6913130758002287 -0.8404290887350107
Ni 2.5545940825357745 1.6295296491644367 0.215803780228747 0.08413292319517769 -0.18567118635099636 0.2674620916765587
Ni 0.6345100673008338 9.282219604306807 4.769642992272526 0.2799581672610404 0.10759141132843406 0.43842708216563203
Ni 8.62388886168624 2.468985971370652 1.380614602470166 0.1239603396047607 0.2835697958716987 0.493974223303317
Ni 6.940390068461392 0.5860552212172582 4.752981804821066 0.9481523976556188 0.5849311113988637 -0.30942455215127357
Ni 0.9840110048134791 7.335217443403428 2.4351367353244 -1.2941359798778485 -0.07768485357698879 0.3958547560210602
Ni 7.9365125099203615 3.950075450739526 3.5643202789045936 0.03171455749446151 -1.5468785059560457 0.41640224115510865
Ni 7.737952285246239 4.197882178137463 12.827084238814914 -0.7697859724961518 -0.19155104217054109 -0.3352073175423324
Ni 7.999399165560472 8.9067741677982 6.890274563333637 0.39513741823906146 -0.3647582917265718 0.5676916075921254
Ni 6.977106557465566 0.7992838424898264 0.4648316607430059 -0.5432514722718902 -0.3526031444212766 1.0625394917496473
Ni 1.836488713826379 6.574635601169501 9.117530454482806 -0.4993200609962627 -0.29693618987627574 -0.20003259727899098
Ni 9.324623281818443 5.058740528134959 1.4897558447040853 -0.9254004486710836 -0.9656875783259045 -0.6087189578470807
Ni 6.691382206850679 1.8389910767696622 6.952083837982895 -0.5129718474517424 0.719158123036955 1.2898512364595656
Ni 3.2152542975689986 4.339397627206339 0.34083912192824056 0.3698519041993953 -1.3153131281760961 0.6172524492393885
Ni 5.916960022664992 5.3254560198825045 4.879982638868738 0.7640277298561359 2.3060180544819446 1.1965973247997264
Ni 5.440164337202608 2.8125558537326354 9.490648238479077 -0.440406574489506 0.04314131127416441 -0.12452263986613392
P 0.312637946532519 5.794134949907039 12.68332940239934 -0.5728669811454778 -0.4619753017992173 -1.4089010261365864
P 4.083710731412464 6.1106793124815635 12.78819569877597 -0.4303293927591621 1.2010309350910477 -0.3280997599632736
P 2.464772902124324 8.439041585941307 1.299465247094893 0.3862676265532573 0.5333141585535203 -0.2256947779317855
P 6.390370693527735 7.661498272702727 5.805693136854524 -0.04525450096242529 0.0005332467956506946 0.36713193416507095
P 4.49744687070411 1.1553819186711276 12.71353428805001 1.0794797191484118 -1.2058597239382587 -0.08004641183062988
P 4.220139559080266 5.940582328849586 8.033655149328778 -0.5313228391551044 0.19619779691393305 1.8026461920138115
P 4.652711666708625 1.1868661942484366 3.759803052133558 0.20730856211511395 -1.2047155830314864 0.7662748740190997
P 0.27393776617694215 5.671728454223234 3.663859727037595 -0.3717761178053017 0.30152920856359683 -1.3328619356931368
Ni 1.2442476514133245 0.6216979690312235 2.4749443250261494 -0.3605655938014629 1.3188213984396706 -0.717384833186616
Ni 2.030053312115547 6.516990258457867 4.647130032419862 -0.3500117295450166 0.28763033909431757 1.1321454249732439
Ni 6.123837191812427 5.655431246836252 9.183601025736934 -0.02270078403162542 0.5822800469292617 0.6698358797630592
Ni 8.644672123367908 2.4548635448689224 10.285588888849526 0.07529552740920581 -0.3627767425201688 0.5257605145759785
Ni 2.424880687057583 5.180719347243002 6.960327986443311 -0.8317359318363868 -0.18136793098995213 0.46556379048142404
Ni 0.6992020640607534 8.990052806550667 9.11301528178296 -0.2074198908819976 0.29535830386619455 -0.5520053072051203
Ni 1.472845330908458 1.1600863610045 11.243422447425777 -0.09673544245053663 0.514698600334862 0.20324364801712091
Ni 4.107096450555147 6.897485918361099 1.588482707343141 0.8577297847969874 0.1010240425235615 0.6546900252605563
Ni 5.602690535493452 7.756751855576505 8.06469900902807 -0.3420644496734819 0.8391551071185934 -0.3912388545156036
Ni 5.290741421232957 2.9658824558938086 4.9575477005590685 0.10446160745020075 -1.1872788756122779 0.5227474387812675
Ni 0.6740137336487448 7.245296168474246 6.6840716672556475 1.0437606684802474 0.37918192335106954 0.9955751099139564
Ni 5.365393732457306 4.22316059361543 7.352850457627044 -0.5400630472415795 -0.3300653683300767 -0.5274345598442917
Ni 8.22979854637477 7.320731036837221 9.1486680390487 -0.5613947188398203 -0.4655424503251853 0.48334579705519337
Ni 4.52532774364309 0.38963337942194143 10.677872043140864 -0.2893892307669532 -0.5966262883486048 -0.801959986125535
Ni 8.351395186415111 7.437377548000668 4.7930296213653705 -0.8222873848289775 -1.1773251068336756 -0.7333002188652918
Ni 7.4940765425446605 6.209345208459818 7.140360715885365 -0.7094437239626685 -0.8054939674207224 -0.7567666774183482
Ni 2.317324578004463 5.1540578075200205 2.514526247087923 1.0328782172397888 -0.6175458121100913 1.2853854873787283
Ni 2.4131332304765696 5.360944076169067 11.455485422541857 -0.5169303178788582 -0.0821724570346972 0.06402535381202523
Ni 1.4374300706347911 2.702215297186262 3.724110257060727 -1.0217947057321177 1.0047202667483341 0.32932231951646507
Ni 3.60095487239426 2.5101248181582285 2.312251605855807 -0.0262645901234838 0.09235762509781514 1.3992971844982354
Ni 1.146819287654293 3.2904070813820034 8.344071907517824 -0.8280481985721545 1.352527532442864 0.35063187962751874
Ni 3.5808813718383226 2.5694080711600114 6.993902417540883 0.5552994045753598 0.21051189954376 0.5800850961604719
Ni 4.137197601887442 6.713366602745124 6.113233542584035 0.3990424097204224 1.6928559732618458 -1.3151704319506445
Ni 0.650546118991554 7.640924299558133 11.387230970900864 -0.16614340073071387 -0.7637832179454975 0.2795622173742024
P 0.3003417900043057 5.41065465347509 7.978305610873837 -0.1560032269729184 0.4524496216969692 0.7023132835654743
P 8.633962009970656 1.457585466705236 8.267546918861738 -0.9731460914864789 1.3907359251917855 -0.6931889526667029
P 1.9077924084575335 3.4085368113081964 10.578625598959766 -1.0219227466695495 0.11374406119339121 0.2946085701843636
P 4.023772314294621 6.163301730303407 3.8858311494589146 -0.1391738141204055 0.09299988666750435 -1.138102413887627
P 6.9211082245456925 4.0184400063500245 10.60086751074983 1.2216655806222636 0.4429324262351533 0.20667015720016668
P 6.163338128309855 7.760555447250296 10.32173392915247 -0.2245005005133682 0.7573171506051797 -0.5548144945191412
P 2.4273830500008664 8.53107394524446 5.913782476702103 -0.22981779896122356 -0.5647721199524854 0.3721604977279139
P 6.703093265425244 3.8690534883868213 1.5948350694184354 1.6758604671451138 0.908319581929397 0.034015951934128506
Ni 5.174604482159779 2.6970831782771287 0.6663055458332712 0.1462919132224255 0.5350067157645948 -0.8308614996512337
Ni 1.3262614594417312 1.4747926242534128 6.89653411049249 0.1390542578234057 -1.95714583785801 0.5067016981723144
Ni 6.693165709166619 0.663174407328603 9.436097636265663 0.6687141074537902 -0.17761823413953284 -0.6362644715655171
Ni 2.8775080962386563 1.9675761340479732 9.392055138513717 0.7593658056040922 -1.6884879261011372 -0.6435777173974786
Ni 6.33690202205598 1.9627351991904216 2.7584993544567498 1.5032458568677594 0.47809277618637014 -0.5207967428127998
Ni 3.9327318006671708 6.824971990015556 10.21401766887098 1.3221442921653164 0.846118168699988 0.06389859842617382
Ni 8.255113359859184 7.246288014149948 0.522439695498031 0.12055568479858593 0.4910282533011156 -0.34261466574999705
Ni 7.505860397132121 3.8006070372618153 8.513077860906527 1.4599672486847823 -0.19671921663504183 -1.0416593058665284
Ni 2.972989166652733 8.519126299627985 12.490617427411209 0.48215589051215024 -0.4235383379792577 -0.26301614009006313
Ni 0.034695489696162485 4.957535871206972 10.524168721612956 0.15733017331445806 -0.05148505525316939 -0.38381839368181636
Ni 8.625726961011852 2.5373141289747023 5.68993291714808 0.8154150831891763 -0.5165672781124846 -0.7419242130888771
Ni 3.864148857017986 2.9861925434916565 11.722632230665809 -0.524185971000007 -0.2416009076390807 -0.5956145592546387
Ni 0.8817344265956064 3.4824975604100374 12.679640464445859 0.9914798567986602 -0.4487624026533691 -0.38795915532306735
Ni 3.0414174187745147 8.811484186917975 8.096702866147421 0.2871580274435893 -0.3249977239991822 -0.33181911779638984
Ni 5.634547890636851 7.870623018748311 3.664778776700401 -0.4797789056395414 -0.6263366709288439 0.7257728001399952
Ni 3.042454761958276 8.42088808022549 3.4960658272635996 0.9765687440147827 0.10489432411224515 0.4852538127111836
Ni 3.577805740293487 4.285137299094347 9.365459115202343 -0.12768278276167044 1.121627041940423 -0.23439153437483506
Ni 7.25183871013323 6.399488394142897 11.40939189712658 1.0591811168003757 -0.9012901858864413 1.2445982781590372
Ni 0.5537246919900387 9.438822027048278 -0.0005341407446208233 -0.2978921260316418 -1.253603824091757 0.7680738749010514
Ni 4.823163530903469 0.1893961166007386 1.8017176982668375 -0.4856302222139959 0.4979663751818456 -1.1354073835539673
Ni 6.005270685808861 5.6491980882320725 0.3984717253376179 0.010418367119846573 0.3421269274803011 0.3335114178971482
Ni 7.697896279150483 8.960261038273178 11.621428483687984 0.5235267401494532 -0.2512240325511415 -0.5650243451726076
Ni 9.072830972714476 4.9838607293703125 5.591126888845 0.1937987005541372 -0.4974902068763755 1.517037511335213
Ni 7.943045952077734 8.73609481606306 2.604635881700472 0.39409483590716 0.31446340012676166 0.03452117370532119
P 8.571457533398245 1.5965348563195456 3.5499639952114372 -1.0675469722665678 0.20273199848802503 -0.1602982548038465
P 1.6852640965375636 3.0804178826832858 1.562898548611013 -0.36070006249679815 1.2322315290635681 -0.31879956560827033
P 4.768439128209266 1.085115567223734 8.345151108408999 0.4251828155612161 0.020360051713590743 -0.943650138909891
P 8.342914450912783 1.814076641356173 12.496716823341693 1.1086653395734325 0.6048098526006616 -0.26998717209125755
P 6.386048430262064 7.627338743651508 1.580318634496909 -0.8940641004516474 0.45291087760410387 -1.110159407620456
P 1.760171193807046 3.367925735614113 5.910892474990151 -1.042083794998457 -0.6843394726958729 0.19203903755055313
P 7.004659848346518 3.911411668390397 5.995888189696791 0.8515313692957592 -0.21052475505956647 0.3275816826762745
P 2.3631132701157407 8.452545246333425 10.289650906369095 1.0591924296542856 -0.048506432240819686 0.07320264943591909
