# total energy = -381164.34892261215 ev
CRYSTAL
PRIMVEC
9.34032696527460 0.00000000000000 0.00000000000000

0.00000000000000 9.34032696527460 0.00000000000000

0.00000000000000 0.00000000000000 13.67051264840613

PRIMCOORD
 96 1
Ni 4.212655595848999 9.359287848175844 7.640627519640668 -0.2742415764922374 1.1458483763816332 -1.3037308226551354
Ni 3.1338291484971172 4.354572524049935 11.289054511081579 -1.5753884404702803 -1.9105474212731806 0.37573587378399803
Ni 7.335790069948982 7.462687752359006 6.189598382287529 0.06912822225622933 1.3116292515666055 0.35633921442494115
Ni 3.352476862874879 3.37091466834208 5.627876721642053 -0.8975348326090672 -0.8262160304594223 0.7295623490894145
Ni 3.602125122513856 6.950538943150522 3.640511998354333 1.4416486528812529 1.173008995956825 -0.49277017569288684
Ni 5.674612915773884 3.088145609216429 5.691171447451823 2.141908396351808 -2.6067355657775235 -1.4703305941969775
Ni 2.3238079714292112 5.946463132654773 12.98351498643288 -0.4995491462879333 0.031398054695307216 0.5041838168464672
Ni 8.438864006152361 0.9697968104630099 7.327026041139521 -0.2321168794080454 0.8627712038756368 1.9126942924128543
Ni 6.411489992226972 8.502686460436749 0.2732026962282305 0.5737475839782183 1.0261668666578843 -1.3950990872564877
Ni 3.723119718269741 5.000054500960695 1.99329769898821 -0.951584049044987 -0.013910182323188948 -0.9399240962085555
Ni 4.962160794384994 7.108997590440826 6.914517972135193 -0.2643248315991577 1.025194475442286 -2.152337304994616
Ni 5.573728044015406 8.805574583886791 3.8169442368607127 -0.5394151292449355 0.050580284050712895 0.580607030102213
Ni 1.9351009236465244 7.872653384358182 5.3173921102556 1.8475924177071987 0.36780839140680527 -0.15136032888426834
Ni 9.72757694117064 1.3175838857270514 3.0345666915358294 -2.4332277542619387 0.7214859998391833 1.1296599395472287
Ni 7.035956233422836 4.254304113872428 3.294538814590661 0.03484281871079806 -0.5088174589637366 -0.05779968461728756
Ni 6.277773871118337 0.6064767714239152 6.505728287303353 -0.7164422667676887 0.48585776484376975 -0.8781407443531716
Ni 5.302158036944048 2.552870150394576 2.3656825253656626 -0.49686157215344107 0.10295648365958399 -0.721099563034042
Ni 6.673205954329791 3.5291584881117424 0.7612039580839522 0.7688004686544307 0.06257705140127287 -0.6922564135501045
Ni 3.708072451497877 7.418433283106931 11.559853941176724 -1.2956408465581493 1.203282707239702 -1.0556651332273175
Ni 5.884406000170436 3.439883642794871 9.915386631976713 0.41789708053308033 -1.161794101077612 0.6325667109989557
Ni 7.606547468572697 4.668575636611411 6.053959087852807 0.5194672253680989 -0.5684914777856015 -0.8011215493846396
Ni 2.1066920706768912 3.8537722121274935 0.8621373995427487 -0.3794153795181143 0.7164402098851597 0.12184920679902886
Ni 3.3601732923100225 8.53760994303141 9.434526984133262 -0.8997709210284375 0.909942976465433 2.275229094125546
Ni -0.03940216938368093 6.218061160707085 11.852580722900441 1.3257060413746458 -0.23034950309497748 -1.9924159739142135
P 8.431671954374373 6.349554283993432 4.771281872131846 0.323975453382255 -0.1372925379372926 -1.4544884849583983
Ni 4.247607099424615 1.7296604316247013 9.753623376999329 0.47075484776406024 -0.1990265246119798 -0.6378171607646176
P 8.417512018666027 2.8953892812394173 4.483627821993355 -1.0843000233551907 -0.3393408800947317 -0.27355354928627723
Ni 5.698141199447581 1.7927076387693843 12.100782165889534 0.5146772601786233 0.41978864112883835 -0.29495001268418236
P 7.757776702777077 7.489195600340727 12.369134430314768 -1.3713531497897995 0.8681363248422919 0.015563144545579648
P 1.3995919566500616 9.039559115172933 8.829469942410975 -0.5109265348869395 1.1297830953886543 -1.5526696587165258
P 2.279917774929528 2.441169179988166 10.580621532394076 -0.5177841812387212 0.7241278083374044 -0.5065230065026051
Ni 8.760255317358494 5.5645745235706965 7.957304767817777 -0.6021839849420404 -0.012684537446203962 -1.2771121916263426
Ni 3.0524842407899997 2.6579021273341263 7.839806256452151 0.06175686949282267 -0.38862224282836294 0.5901249968949772
Ni 1.2485868902933068 8.55441319127634 10.917613057729552 0.3985806395926555 -1.8461675123352141 0.4887548838859066
Ni 1.0487038928272001 3.3336000620394115 5.021863230436565 -0.14891263867472418 0.09797368573301192 0.7029851128215183
Ni 3.287897842104755 0.7795782493276591 11.624624438650029 0.4263272135783045 -1.5110758944351395 -0.06907602886205524
Ni 2.721902047831218 7.097041971900796 7.619602443598789 -0.8989368551629163 -0.7090693713423853 0.0010047871154305276
Ni 4.997541953001892 6.641953220239997 13.10754705652409 0.46304719470715733 0.2888045619080768 0.5897545009294359
Ni 0.5454125156980196 3.8570133055910794 12.39188186265257 2.3382028667446053 0.924793411214704 -2.5543951045025945
Ni 8.594585937636234 6.005465978215212 2.4195304444634123 0.541967463353144 1.1989856225262447 0.8794445507662595
Ni 9.270526720843115 7.358477724194084 0.3287673674257129 -0.21913100867133875 0.23536495403169785 0.7958569585515908
Ni 0.28384506479425303 8.21180999748864 6.918523104346102 -0.17488026638307946 0.05358333254309481 -0.09316803681425244
Ni 9.09008094383154 0.7590071131772219 5.292156414809155 -0.15690079908652332 0.6618145521204797 -1.2166123344690725
Ni 4.19171458274998 1.7241309580499378 0.09632305605929783 1.6444189608063808 -0.4024334376798424 1.7840283198023084
Ni 8.780944141628934 0.2861371810362242 1.009441828348285 0.7708285548280531 1.3185208364801164 -0.3593268362983553
Ni 7.295692046204963 1.4435101741306986 3.202919547200706 -0.3034832469661741 -0.0780437795783043 0.030760678221624444
Ni 4.957219761410248 6.998557564177309 9.22729501739583 -0.3761966154705005 -1.1278133732567932 0.9540916459581891
Ni 3.2483789186337684 5.746393328648979 5.568724430849864 1.0570447871836635 0.22248629829681685 2.4648312400998322
Ni 7.96578578471961 0.35135134404128765 12.424759813637648 -0.3433636281008796 -1.095094028646901 -0.3665976589281557
Ni 0.20647913638248838 3.9350237165647677 2.80799184164641 0.12423570475333442 -0.8616188354387484 -0.5929136153837078
Ni 7.327953535609072 1.7034981757414036 10.277928621778008 1.6580614912904799 -2.2226266374384815 0.41248670815078636
Ni 7.498816137134656 4.99741118842411 9.676399421557727 -0.20249751387971576 1.0697416659250414 2.2788540924726433
Ni 0.824020459152121 5.797951933602852 6.018470515475589 -0.14908053171115615 -0.07829857590158774 0.05929426688494305
Ni 7.540436634177131 8.41350501838972 2.391177881902274 -0.3982014018763658 -0.9760671217880157 0.9738888831897745
Ni 0.6009762528628035 1.2378828755691875 11.4240371805293 -0.30100316085679774 0.9427643938708279 1.2996381406430004
Ni 2.708059683240341 2.9399239603010248 3.225871532699466 -0.3295758302881679 0.8250022126569793 -1.189918113007338
P 5.451276357249955 5.981984396176436 2.511779249892116 -0.6574773581977064 0.35201616156955506 2.3976030630797935
Ni 0.7152467472226212 3.5038275213300563 7.52135247808261 -0.37782592354380734 -0.5120876450745762 -0.8882300102683734
P 6.63391119870643 4.2487839806246495 12.261902806370392 -0.8970761478050937 0.31924230957264377 -0.13402646559151113
Ni 6.238787346285462 8.843692458310118 8.648076122210483 0.6971088565463994 0.7541600930334367 0.07754370001343419
P 2.3720507603036247 4.698595447539265 7.480572610468731 1.5665525873462054 1.5484252816178752 0.0004753969745217619
P 1.4070455375836108 5.995313042783172 1.4606263233296073 -0.2087491512163824 -1.4771373327061659 -0.37188127592459824
P 4.115787064693813 8.800717613854903 13.290417582420817 0.23811063509763508 -0.0326003025335245 -0.16300022711604187
Ni 1.882412139127538 7.886691895815732 2.1463800540662947 0.5177893234450437 0.8032771622750617 0.1881168196780115
Ni 4.582074868408905 4.379025500095088 4.044038408930465 0.18149854303054547 -0.31633259212501647 -0.7709524820004271
Ni 4.412697378873841 1.6224054568628643 4.241864666394608 1.3486428526764773 1.2453181870441972 0.5261886032523325
Ni 3.4719022836973856 0.7463873973886025 2.3758802943672275 -0.27748399468893503 -0.9197705040788159 -1.0724642070625272
Ni 0.9763817409870101 4.512358667797363 10.075291161884202 -0.7204727280833205 -0.4393349386918821 -0.6702084326111296
Ni 7.9416690604458955 3.35766074435122 8.370796373253564 -0.8440394317940884 -1.4986163285155483 -1.070698373411356
Ni 2.1588391162307827 2.016810104106034 13.164758427368923 -2.3408588163102135 0.18951395713585426 -0.3739160469664399
Ni 2.6692506246201693 6.143936325758905 9.955182029126437 -0.4528347729505298 0.8073590456539192 -0.6138655350450266
Ni 5.236729046418343 4.743204849216748 6.824019543983366 -0.45033720333965666 2.2931661382199406 1.6776792655214074
Ni 4.295476275219652 4.584232483942301 9.032230694620974 -2.459312367164132 0.1371945789068476 -2.188121661683077
Ni 5.70699582942879 8.855405228348552 11.140401339059496 -0.28945505100788216 0.313850192022795 0.3311524307466684
Ni 6.624673615318861 6.288692713363098 0.9792912528426498 2.2825695936510173 -0.521982792701101 -0.8948467442539428
Ni 5.99713440654513 6.099625814544924 4.59188407980792 0.44142113179694953 1.049785791628405 0.7377384571423037
Ni 1.9519975751612997 8.512942139465617 13.476664636522402 0.41544244834500066 0.8169744572564961 -0.557055210924202
Ni 8.534966630494827 5.118321721237137 0.07328420551958292 -0.8827072806779314 -0.5328675579344049 0.48326069354055484
Ni 8.527914683621605 9.027313946496388 9.312162162408764 0.34291111394449325 0.3889132917062205 1.0131743110529583
Ni 7.111743646574239 7.162088009020142 10.202604488845031 1.0284255807850742 0.5121807190090146 0.7463035731034954
Ni 1.8426130058470203 0.8100566703104467 6.659043216523349 -0.10780738399398207 -0.2677109744625712 2.3948447836083657
Ni 0.5198172176626751 7.0935580299356165 8.992080365045844 0.7308964945198058 -0.7700096584711836 1.9683090535636814
Ni 4.528433370537511 4.432937867449031 13.134395826440743 0.00466449535520487 -1.3921207213544542 0.9651980402839959
Ni 7.9918639776600475 2.6071094291929726 12.205772111357655 0.046350562240081467 1.2659242933303232 0.6059660776922918
Ni 9.335927690387866 2.8630250482384803 0.48981141722529803 -1.067099600316504 -2.0446415068778334 2.5153554741016295
Ni 0.38729852647343993 8.426263905050407 3.7901225538923167 -1.5750495690736228 -1.045501048210122 -0.16216384725767555
Ni 1.9567237806154048 5.413924389639348 3.855603850249134 -1.712744741765973 -0.790563057142503 -1.8629434462419723
Ni 4.610815054539897 7.950766538928699 1.6015690554260702 -0.6619258808873634 -0.23033767602043556 0.7555155786200666
P 6.384505787569048 1.8166562371573796 8.464412602552782 -1.0133599447012032 -0.948591027854934 -2.115482855170428
Ni 9.683584001074127 2.0526115774372298 9.340418519601965 0.8530372644173244 -0.3789888335036569 -0.662399478089672
P 6.635853986719185 6.430217347830689 7.947366659906378 1.2160703459226734 -1.2420595708975837 1.0125058242310239
Ni 5.092103423391933 5.33073009718932 10.93645156322438 2.0977121614505676 1.9255750050302642 1.5265354235233193
P 1.6139524609419846 1.5371843134572214 1.5437701780139201 1.7502373393947923 0.6243234971535571 -2.5516843904396507
P 3.9294755623360356 9.544599935546291 5.564240139864655 -0.6696929264272917 -2.0086895142632564 0.4948476270472059
P 6.485895036984683 1.2911974619961284 0.7570577869355782 0.46408874859779425 0.6003921831489402 0.45451318909421723
Ni 2.071273550752056 1.0691592089230306 4.502642859668192 1.0523867195863619 -0.9441314494216837 -0.14550387010349133
