# total energy = -381164.3074698784 ev
CRYSTAL
PRIMVEC
9.28732960497537 0.00000000000000 0.00000000000000
0.00000000000000 9.28732960497537 0.00000000000000
0.00000000000000 0.00000000000000 13.59294565454989
PRIMCOORD
 96 1
Ni 2.8934210247769547 8.875464162773183 6.598002039329163 -0.9755906963722295 0.9451858588281269 2.1301898223632993
Ni 8.409908916725199 5.43096087589223 1.3058932384666502 -1.3947771851406947 0.231658194604072 0.5313976582570977
Ni 2.5151109507161786 3.43288483785434 12.841514146934445 0.059361372677452603 -0.10319585336389969 0.46008888340978177
Ni 1.551708414443127 2.3125264354344064 9.959931680889882 -1.1890714487363263 -1.8115692055350543 0.46734479364124676
Ni 4.042180080373052 3.745579930002233 3.410347275701758 0.9619988166204076 3.225764390191044 -1.0147622243653684
Ni 7.840298432552381 0.41202586582841083 1.7001923787498212 1.1851847120874106 -0.24440752384994036 -0.03194441411708047
Ni 0.46017138121926526 8.316757003266428 6.849879055177478 0.458481686823662 -2.0434230610897 -0.4033616059210666
Ni 1.1148695907694721 1.2520155833961595 7.717191166982951 -0.3408930550732 0.21918294495519672 0.9905411470344747
Ni 1.6780160937092574 9.180460058883455 10.084062410154544 0.45047527157941775 -1.105219032896045 -0.4071442128919504
Ni 0.5615843741418027 4.348364754641125 11.681151502038709 -0.4738116323125131 -0.027299716256217497 0.38350908997151373
Ni 2.179578315677446 2.868595993403545 4.146786057128803 1.176862051154328 -0.8148985485640741 -1.9014452018615964
Ni 4.161559411938261 8.523297920854624 4.822314817695627 2.2251393765580065 -0.9707611361940701 -0.6286856307769947
Ni 4.683990262973435 3.2839903735900315 6.532905290394446 -0.8874985314189876 1.042883922302249 -0.17224231453960012
Ni 0.7509520910144845 5.699485429614407 6.024243833865151 -0.8424489473785167 1.3691139760466355 0.11608016552573558
Ni 4.999322956658944 3.0851950886862434 8.869179426996757 -1.5010269948395698 -1.8091012036105358 0.5918928874286774
Ni 5.293192632198569 6.903206900349987 9.904771445635081 -0.14608442519730971 0.2924658128097479 -0.696724219513471
Ni 3.828673665766503 6.006487388865967 5.336373141314742 0.23136843127779508 0.23733236217071382 1.6243391593373702
Ni 7.360189941400719 2.399604435493174 5.5175800818807215 0.4877917486416889 0.0669857219919298 0.6927325818555747
Ni 3.5163407794635644 5.387161830640827 9.675498860710723 1.0387349331308822 1.086697834163406 -0.17356283312323656
Ni 6.99478925514729 7.9552384206845606 0.38100525704041066 -1.045943277953863 -2.0057785112640487 2.471061023059628
Ni 1.2678319052924991 6.392626681575371 0.790897823315334 -2.7871691578786644 -0.4937687921607303 1.0408103276026721
Ni 2.2411625966490427 7.514545355327416 2.504432379420576 1.581730323527908 1.3550572408432533 -0.18264859747458867
Ni 5.423057358608738 5.666738306298791 0.9990677384728892 1.200683579053958 0.2126960516792724 0.759035675958183
Ni 8.10395642569107 2.882944917261352 3.0719922212711896 -0.057911013384171234 -0.7361924528114224 -1.0307853392665023
P 3.3621896867827386 5.622279860662985 7.545022655347985 0.0023494740687830503 -0.12596554296024756 -0.5080301871757509
Ni 2.434831275747323 3.676779394119624 8.403281478495469 0.0508852168856414 -0.017742411585085573 -1.698526798394378
P 3.4655205132176627 8.285774472528795 9.145210929038846 1.7099160140679261 0.5227811202326802 0.39881126754622287
Ni 6.709213164724184 1.8133882064286042 9.961087024661994 -0.013972403019692065 -0.09971329413193795 0.7768197394144815
P 8.663880225343698 8.735550545997869 4.034304425077635 -0.12771312177897362 0.6347611475471132 0.10855300391075498
P 5.117364912796629 0.44142490691053843 12.32322823099166 -0.04144772562182539 -0.6529061938872562 0.7091465044372239
P 0.36371967963966645 2.9664194335292917 4.898068777068425 -3.1029332790947204 -0.2848113815882837 0.3290446403750462
Ni 5.4768681449078525 0.6052329646576087 0.8709936091629047 0.7945276982172058 1.4378359640033818 -2.5308471419793253
Ni 6.943987563560104 7.525625139251276 3.1428517580724242 0.23364437179616535 0.2426640587962724 -0.08969036267829715
Ni 4.889667458931355 7.62358788931739 7.395527300874226 -0.9855994867584833 -0.12041453123503132 1.502680985503225
Ni 3.296333234306553 1.236802937908077 8.563406181419234 0.44876523086684655 0.01643757673073298 -0.5170033372086387
Ni -0.15547732331312022 0.7974648939042369 5.899528931583885 -0.48460075250821694 2.111452908075428 -3.430134181392809
Ni 4.979290187234161 8.701447472596014 2.526262247076094 -1.021775422458408 -0.7046984959681992 1.080146149087817
Ni 4.431254169159523 5.472707421355556 12.162587152555602 0.22033042829607863 -0.3125643833318359 -0.19619676847266854
Ni 6.65628467471406 9.157195298842158 5.629463609921246 -0.48006712630392157 -0.8089315323473617 1.3963967230219887
Ni 2.709392593552074 0.10039510162492225 0.7228133405262108 -0.5787681771212613 -0.1537123740562127 -0.12892025471319732
Ni 4.576823769513738 3.6064928855397653 0.5053505236132371 0.7564306342351682 -1.3996152299592863 0.29880975274990473
Ni 5.998630308229265 4.072540360043712 4.803773593365708 -1.1582758035117084 0.46194521989223025 -2.43891786266818
Ni 8.884147815722729 7.796239342078961 8.835170155621414 0.7042971467647224 0.040678965776600906 1.8122497765418468
Ni 4.531501602247656 1.7562804182074692 4.3346139347939605 0.36600733364232446 -1.550892512211445 1.72574321090817
Ni 1.1316610822483812 5.31462778835638 9.788225678256937 -0.2648300533703503 0.5211911500377411 -0.9468905002240597
Ni 8.92008978033743 0.9360792133023931 9.66144434519356 -0.9464282158756604 -0.7458464309614187 0.08949418750709102
Ni 4.355209516377826 7.525309370053111 0.07227213959655686 0.29226963763854175 0.8168032217859545 1.0893424708751045
Ni 7.077223590527155 2.9238927523999085 0.6183810368294512 -0.20317679933492747 -0.24672588757047187 0.6892857609575548
Ni 8.841398238688758 3.1822198184872184 9.592324325181039 -0.47150329589431056 2.5079239575242487 0.5321965000093092
Ni 3.113549305215618 3.462660015775459 10.710479773077303 1.8755207686863504 0.6946292846576554 0.23726294238535914
Ni 2.398452806652806 4.284003562191545 5.982812128867053 0.5521441467758297 0.06210422552991239 0.2743138244910695
Ni 1.7942191586340974 7.822225289622095 4.879214569739148 -1.1248594328347918 -0.8689390232492455 -0.2453909708091322
Ni 3.626748550869135 7.882630079765251 11.532907150829447 2.840080404055399 0.4740108928075127 -2.8582311068224966
Ni 7.854777379021197 0.4297061547268617 7.7499902993429695 -1.6453139618168247 0.04218486089816605 -0.025731086217516973
Ni 6.814503617653605 0.938493918935422 3.69857211245771 -0.4976863820475816 -0.24671868848162024 -1.0121546115391924
Ni 7.506781147984292 0.15763198372413068 12.528223736974718 -0.40774842213485263 1.7280381775899336 -1.6847181746460598
P 6.812794749051769 5.365615226530722 2.8537845605437195 -0.7250973713395253 0.13202923265582422 -0.0073901218164840465
Ni 0.08306773124206787 1.2546996215805646 0.05492712328792266 0.7603173708840841 0.006897498450781669 0.9633779563561216
P 0.3057240227319254 8.227784388018668 1.138113918686183 -0.0870945769266629 1.3407981598210779 -0.3691970442242158
Ni 8.787736049659369 5.525691635341827 8.107308222856302 0.39306742308391013 -0.7623670543242612 -0.34597638313337836
P 2.5645195428996943 5.405606466745425 3.587722264174708 -0.19539458428634737 0.47673471949657903 -0.19407329437176254
P 2.5609717830850136 0.4220571102677746 4.23693444827326 -0.12962036610401548 1.8620512734450059 -0.5358158419294514
P 0.38890413065922275 0.9150489847045824 11.613214687786373 0.39328699529388395 -0.08782759843794552 0.16914233545803772
Ni 0.526434618721323 6.1879525171880925 3.3647836378723732 -0.5365156962099534 1.3231189973737603 0.8047627456816527
Ni 8.296250580044397 4.719978664234925 4.378410193846555 0.5398966968670443 0.260340650140429 0.5433183209540836
Ni 5.904261754624621 5.014786360039687 8.260337406150706 -0.849439262653421 1.8885698885608249 0.03930085448215167
Ni 6.89089190162154 4.9474996588424 12.771686432424865 0.41266925647523767 -0.14175931545939457 -0.26417005118884823
Ni 8.862285442414459 6.911407612172928 12.952486587964971 -1.2048893896051895 -1.4424014718868772 1.3867098347515279
Ni 6.605083627964489 7.244850598106154 11.809388159612453 -0.43518157864514084 -0.4942567875407423 0.6119374647843784
Ni 2.9787158575990236 1.0248289326455653 11.707807994761476 -0.6969075391688707 0.5762158430130527 0.9299477017221339
Ni 7.140247407549212 5.070779668737885 6.442988153750997 0.778326405866995 -0.38084234177262793 -0.5306862340123699
Ni 1.8249695061377855 7.305812628010778 8.398333189413632 0.24963431946651843 -1.9297558758808313 -0.6872602458870938
Ni 2.9327900139246847 5.259888269121485 0.6995300058261968 3.0509360600918227 -0.968525561995332 0.38916011760970404
Ni 9.497315874583645 3.657545335019612 0.2595901428799713 -1.1792827447806786 0.053167842272231015 -0.5480244681805012
Ni 9.02892799308153 8.016274749224046 11.202258722299982 0.3781547676381358 1.337531059034032 -1.9427772278411635
Ni 1.909447053976368 7.597982722277925 12.60019775329889 -2.6920427117864603 0.8335084503557775 1.223969546165092
Ni 8.189390568453508 6.933037802247253 5.244484304648632 -0.21088188128866905 0.8205979129416965 -0.8452835886138345
Ni 4.556382357597212 6.47911029255524 3.2531722285820317 0.6601145387102373 -0.6495236505682684 -1.245869174451661
Ni 4.916888621279078 2.603758509436415 11.886581655035712 1.059220968899376 -0.028363895854673735 0.2710071287153397
Ni 4.763443365629446 0.3861188605848174 10.23635789442968 1.0165128885078878 0.017096036250338297 -0.5108648284110685
Ni 6.108062910052266 4.326316634745699 10.419998115287406 0.03082187047686305 -0.3524177678833479 1.680729108091325
Ni 7.290377086618109 2.941111461029277 7.987608478428249 -0.7090351756703402 0.38578014539387756 -0.7213083366107385
Ni 6.992374549514261 8.572455755145478 9.936769081471521 -0.039723800952183204 0.7086844771991407 -0.32678901157165013
Ni 7.9700052743634675 2.7880748478713873 11.926477235758028 -0.031567490393635954 -0.3273353709934234 0.043938353254163044
Ni 7.653372354567866 5.959892857477866 10.04706261872599 0.5707517345746881 0.6275561451582418 0.5054858234873424
Ni 0.9814292425565485 1.3246332116448265 2.8229552707404904 -0.3756230023552176 -0.7310512749301151 -0.43658565808151906
Ni 7.366607485986962 7.183192018499696 7.356882723416405 -1.4921458902998561 1.2154180570506552 0.5564921393318804
Ni 2.6680918398979214 2.0803617761480293 6.132892585090354 0.2752988141121581 -2.296305198069555 1.450626688010147
P 5.789024571952993 7.060339225754668 5.6486568047720835 1.715266479746562 -0.7163594772458953 -1.7328985910060284
Ni 0.021212260253223657 3.4886923999653825 6.955850269348827 0.7719315580842447 -0.3341562505699987 -0.18549969377013859
P 1.8433491309368788 2.613556641908898 1.0976285925496454 1.0298970231242779 -1.4948437488469932 0.7426330662304436
Ni 0.9477719609638678 4.172453449274965 2.428827946050439 0.6738920521103039 -0.7586070730611967 0.02022943967299742
P 5.79779181086676 2.6248871837254186 2.6832877681931593 0.6463668501068417 -0.334116912691631 -1.2800129102129052
P 5.8180289015374145 1.6475629407450192 7.004091444232067 0.8326967530877594 -1.3311598654003656 0.28725495803276985
P 2.315711989404133 5.731536003228188 11.659825007634383 -0.08482326439398295 -0.6932737990710254 -0.0520013327679556
Ni 3.7885988395875803 1.708933613141386 2.10008249130639 -1.2698485680853937 0.29450084096190576 -0.21216948975184105
