# total energy = -340877.5827915295 ev
CRYSTAL
PRIMVEC
9.18651209087945 0.00000000000000 0.00000000000000
0.00000000000000 9.18651209087945 0.00000000000000
0.00000000000000 0.00000000000000 13.44538903187453
PRIMCOORD
 96 1
Ni 6.249492318957914 4.550318294227679 3.34100400360738 0.11302466652886341 -0.175643112691033 0.5501008910935559
Ni 9.121829871878365 3.118490144736406 5.494875468719812 -0.0965958315488788 -1.1238397333210257 -0.8243895187736446
Ni 2.054572618482201 5.094913104753283 6.6619079187320835 0.08817572580598362 0.47435567774144116 0.9891854043375286
Ni 6.530489351182826 8.90406360246253 4.1046888599429465 0.3729583110388609 -0.32266959008663787 -0.5272859500815693
Ni 7.322780087557792 1.2157246387661917 9.533587717385915 -0.05907032379959503 1.5242085751623555 -0.6295168684290384
Ni 6.629042253030244 9.089061583204824 13.254800327983451 -0.3473310973890599 0.009546248927538397 0.5990032732212135
Ni 8.899892925967496 4.364778309271275 3.476856900549045 -0.41933921229624554 0.23877860769893716 0.04191926594160523
Ni 3.5030283548809904 1.2704854374157502 2.490381671328186 -0.46672361511748006 1.218641191973643 1.604743753703946
Ni 3.9606177092734005 2.7914227543119416 12.956460998209366 -0.25885403829257353 0.3117884243977598 0.7808843964021585
Ni 8.106472248603788 0.8680427151812498 6.8302847431253335 0.24624252017615011 -0.9394836662370272 0.8249626176682954
Ni 0.7150735088881575 2.2661471787402085 2.7169100359884335 0.3889433736132076 -0.17771902138345522 -0.9273938249520286
Ni 8.44435216377419 4.8472079923918185 7.007911466555698 -0.2184460667891722 0.054197311978009886 -0.29858426700266
Ni 5.725916248125347 2.048233925130717 3.7462348322653227 0.40029145163617513 -0.5086297684329628 -1.3559715251274065
Ni 4.06864190509963 5.6350616434207454 2.8572257405100276 -0.17974659333644527 -0.2566971398505708 -0.27318999529927146
Ni 1.8957102646746498 6.407399275506692 1.7124586398832509 -0.48402122585566315 0.13190144882870833 0.12298229196220756
Ni 0.9019786095431577 6.988620709789348 3.944245507402365 1.192370174092256 0.00156760159743601 -0.5215870999245791
Ni 8.691111065388984 0.7510552394955372 11.92962299075892 0.2830460621577448 -0.42315061562253575 -0.058656890411260265
Ni 8.073161955716134 5.946025078127599 1.6598603461828798 -0.17848212480172487 -1.3347169866240045 0.5698845014783863
Ni 0.21494049829276618 3.149852897058096 13.155318669762359 -0.6722874266273453 -0.38233332449585766 1.5857139907660045
Ni 5.6965469689301385 1.8099725472117527 7.934231577219764 -1.031916624657468 -0.6833740234588102 -1.744840079638621
Ni 5.320892115989736 7.817538069921366 2.0488622825586034 -0.222166710173869 -0.5350200855010334 0.6628087977129488
Ni 1.1413230772391367 8.991510011176697 2.0906774483517694 -0.07616970248404302 -0.1688165766875028 -0.1813977557866231
Ni 6.5635699812678885 4.225308682514422 13.05130438646935 -1.9330216911162965 0.1638425205116791 0.9817695714894317
Ni 1.985039908370054 0.011826715682174395 4.430268954057837 0.8639888783328217 -0.60074750960583 -1.8195537664024277
P 7.870930078267488 2.4442185293563874 3.7531596250890162 -0.20712935622477233 -0.2703059888832571 0.531142347713182
P 1.5199268005647957 0.5035099724446745 10.66375285702402 -0.32324705985666263 -1.6129684556065835 -0.2425236765636662
P 0.6451632331285525 4.200073333765833 11.137784230779452 0.6523508356044185 -0.15968633225146048 -0.19243421610644276
P 1.0442308308161903 0.8955057931149613 5.939863684459715 -0.4392194961599404 2.007554372217549 2.5632834081311597
P 4.91287318090835 0.8888942603540004 9.643046846402727 -1.1250810619272946 -0.6117762566161657 1.2053303337973498
P 2.1932797647344544 1.7948148022408128 0.7537312704713157 -0.5896994793217845 -1.4037606195862276 -0.817332097706231
P 5.500635411808769 0.747418299353722 1.7416754229775397 0.2535861050254149 0.37546462240048245 0.09015984611554795
P 7.879914487104809 7.569493056612068 12.000466616148252 -0.14847015182066686 -0.16234331025833332 -0.22691502349213177
Ni 4.243709266257932 9.09226767592898 4.987809397439834 0.4735426949218426 0.7096661243861198 -0.39630778439807873
Ni 8.592640842150496 4.243038650874369 9.284094909769088 -0.6362567582560332 1.563444637844843 1.0962600239305442
Ni 3.996298122283782 6.228602190434328 11.21732656447968 -0.6629082994052905 0.6654830021110023 0.4582297187138559
Ni 6.968961573887644 5.292836508025341 10.770563514601365 -0.565984909313664 0.595834902795561 0.8088515710390457
Ni 2.719859825024899 2.1530704012569983 9.558730282362257 1.5556323408892758 -0.6883524505100079 -0.868968333825284
Ni 5.856373906508568 8.5717231540906 8.334285806307328 0.6548167806464078 -0.9164098151366993 -0.1636939107489568
Ni 3.21021746809085 8.472426144762789 9.989695287376016 0.20648040978686374 0.09857429543148831 -1.0693739981729777
Ni 5.096713661125588 7.132380437698582 13.125294392254164 1.096375466462486 0.5440891376818371 0.00017354946338679787
Ni 0.33744447449669035 2.1804553938378293 9.856075631526734 -0.09812075283383746 -0.5398558163267799 0.254817920549987
Ni 5.188744139379453 4.15492162677664 7.237410749230248 0.5775175925436118 0.39156229929329334 0.2828737982459386
Ni 8.371457190232125 8.54308879586368 9.977998101514501 1.2803942048117238 -1.334563748875592 2.055221596386525
Ni 0.5091550841323366 6.536800484997999 8.947005953290807 0.3845030784536669 -0.2193287265044416 -1.2569120625293837
Ni 7.180490201585134 7.273632247803532 6.208381758643095 -0.1672623448265055 1.372430184904062 1.5619999349785163
Ni 2.682461534251144 3.6647017813922433 1.7744822950019155 -0.7616882830896817 0.11661906874834109 0.07986154951333342
Ni 7.7475368476919355 3.033652705459662 11.389818027644134 0.9892118867000899 0.7348372243351087 -0.658706345508801
Ni 5.984121543821226 8.358605259799187 10.960735338960404 -0.35582859333710976 -0.38487563130173713 -0.26163340080992364
Ni 7.652585058589128 3.2756346207805844 1.6521960391348465 0.11307531726114076 0.9395440871613173 -0.716856728597288
Ni 6.8039810030190955 2.654552910480408 6.019406936811154 0.08327726006310174 1.1480680097407712 -1.1862409212660667
Ni 2.019204546883342 4.709704279225137 3.915579915034292 0.16912433773590874 0.9800669869760281 -0.0680964385576053
Ni 5.979215946357905 1.6562546401822171 11.383189040510176 -0.5622748074519285 0.24424837256425674 1.113896763175701
Ni 3.538120831116742 8.949610329472177 0.7637234396864012 1.021247832089712 -0.1321115079569854 -0.18060431335105026
Ni 4.766375872392244 6.812855173711173 6.9642002046643485 0.4454035134834652 -0.2651429566250788 0.7215327939167187
Ni 8.541885362778109 5.332265017973992 12.521354713539305 0.1654540879731731 1.572248352179402 0.210581833549747
Ni 1.6656248825278888 5.332393629143442 12.918988296687573 -0.02669473568236693 -0.6023181965270595 0.12523509255212628
P 5.116685138438815 3.758073490413232 11.41711207375514 0.5516795484345854 0.5197323061040275 -0.6031106105213677
P 7.94430275043894 2.8180636394123812 7.942204551074478 -0.8080241900417439 -1.0247687007587771 -0.2655875003616652
P 8.452996671663676 7.8107951700373235 2.759935065425643 0.010567491103201156 1.7560876275279822 -0.6703501003953165
P 3.8468427568703167 3.286685994841215 3.8098587777924346 1.6935506853360254 1.1532007029816462 -1.5621958530394064
P 7.444207404543174 1.9004780644564179 13.349402110975113 0.21544996027532573 0.9962273987859748 0.19386863456012418
P 6.411101439884443 5.184931736856458 5.709086557951553 -0.29718198733849466 -0.08274889836345749 0.07781932227232405
P 3.4603478196476654 7.722623026866973 3.4225912549018704 -0.2816522671340117 -0.2565354174617259 -1.3055809884899967
P 0.42323639238099864 5.323473525890847 5.35040470477376 0.0819855378348717 0.5116366735800866 -1.5964696866206118
Ni 3.0108150363701127 7.217015773709047 5.521120415148586 -1.1363738612322944 -1.0620887773654741 -0.5408621461041072
Ni 0.9727322071138731 2.8413147015465925 7.50695036355955 0.6628977578823293 -1.109307858253438 0.4791605553292522
Ni 3.7022746158959663 5.4162389251129985 8.862111557639022 1.521211954427877 1.3051811819484167 -0.6321630478026339
Ni 2.1393457521742203 2.529699024480383 4.638995695563728 -0.44273856505679227 -1.7632784888494664 1.3076229586206898
Ni 1.4878383137869216 6.9882073167446865 11.018469811577898 0.029314689803717257 0.4613186420518249 0.9178547751133419
Ni 5.048631456775348 3.24561309922602 1.5372516437409747 0.6943876009604945 -0.05366715050615274 0.7601718464451552
Ni 3.92060126255012 0.7194701735809403 11.942221373457798 -0.87055187626232 -1.2406665472047986 -0.8406121512800943
Ni 0.9332485780926011 0.21859856741241965 8.251112963023756 0.009485313782615924 -0.8098699850012311 0.2475537827884059
Ni 7.823114282768251 1.0046094041133644 2.041090493318958 -0.5538940395874009 -2.1126109329392713 0.5422777955047112
Ni 4.450277177419477 2.260846561256431 5.681537126804066 -0.9620584662137496 0.21635010349209194 1.1477108835116685
Ni 8.808891337069236 9.013043195547535 4.720944895435101 -0.568650371960969 -0.11644757616748333 -1.0395114062855904
Ni 1.7746228486371003 4.4367546316029784 9.138938832020107 -1.2583181988482908 -0.6361832247056204 0.3135712273297955
Ni 7.807809553603654 6.2678837161893215 4.245032124000851 -0.10283152804594549 0.2538758683516918 -0.3323058276248212
Ni 1.5754133336705387 8.775241143233751 13.006666205506749 -0.3469670291814218 1.75064125970143 -1.2117678618925776
Ni 8.994256778295673 7.554169954423264 0.3862909966539513 0.00476116883406922 0.7105778375671118 -0.017410482166963562
Ni 6.061334178051983 3.5811412672978995 9.33684110631433 0.2816201283444956 0.499492582018385 1.4905487210160653
Ni 0.5817854861258174 7.3793873751401735 6.30271437683012 0.2619650731177295 -0.11926370546003978 1.1042340432749562
Ni 2.962025470587894 0.8735040966268398 7.204603877205873 0.14152071708602723 0.4070974188144151 -0.45621088851161434
Ni 2.982520579091025 4.175389175743461 11.104775255488796 0.18405267691096688 -0.3395000313804153 0.11048801614993876
Ni 7.10417784554053 6.007069451056019 8.444632352393349 -0.9563917548462754 1.1240518493318319 0.04440500847793643
Ni 1.8168348717531417 2.2063062388973593 11.886503340247044 0.8847983588790053 -0.3477622713892075 0.7076557788243103
Ni 4.045427589013833 4.997857604378752 5.336273093204793 0.24127643442012642 -1.1485544624588866 -0.634640562808849
Ni 5.409927791297824 6.720245945194784 4.466289268016052 -0.02893056699142114 1.3124684596384495 0.2157489795729833
Ni 3.809269922366594 5.304025679767526 0.5006860386240279 1.1803248128919481 -0.6858086010422317 -0.6717783482014107
P 8.339947453716777 7.981517310970623 8.032571351986379 -0.6919525091564406 -0.5589226031502438 -1.9817096432403034
P 0.5201660375397114 4.358706024770795 1.5207140846520744 1.208123580271771 1.0015356983727655 -0.8537456033382587
P 5.519660678375325 6.511114997156334 9.821775951285524 -0.5657959332313095 0.9017774099355049 -1.5148564445234942
P 5.950067143453183 5.757747512564321 1.4032948428974925 -1.142723457599406 -1.1191179023653242 -0.5327549436159406
P 2.9174800733975386 7.159269358625819 13.102558693448964 -0.293625637445804 -1.0523273271033362 -0.33110100868344267
P 2.5793980549608584 7.297204837861369 7.618560973711026 -0.08853362336603463 -0.02442496581158374 1.5170706785659938
P 3.210364452284508 3.334327246610483 7.343024404280494 0.0006710579250956186 -0.8711491435266867 0.5668223176132947
P 5.931740051806501 0.2798092162099155 6.160905864091692 0.7805552951975139 0.40182871421630795 0.8456959935609049
