# total energy = -381172.6942324033 ev
CRYSTAL
PRIMVEC
9.20141205686750 0.00000000000000 0.00000000000000

0.00000000000000 9.20141205686750 0.00000000000000

0.00000000000000 0.00000000000000 13.46719663820999

PRIMCOORD
 96 1
Ni 7.39289299173321 1.592865658050422 8.164003534531926 -0.46160120628925017 -1.2183514286473662 -0.8956340160419284
Ni 5.301053155815649 5.9497895177752405 9.637395296851723 -1.105582843993367 0.7616682284850237 0.5126820841254653
Ni 6.660893051262152 1.528382161729464 4.816112051612763 1.7588297090494938 -1.1383374127165686 -2.3020387581192225
Ni 2.4780139022837546 3.855327279395997 8.111117498080109 -1.432379568874501 0.7331120141138858 0.453552882063477
Ni 6.759863440307275 1.459758029942691 0.4613404021889542 0.7632545991355372 2.162143235341444 -1.6920517321929955
Ni 0.3683564518861847 5.788148310601971 7.678726578785702 0.5918705188311743 -0.12239196667637633 0.489955331951911
Ni 5.428216671676899 3.6321930348493034 4.023621107551008 -0.40593116642045574 -0.14671768790593442 -0.5187542584614743
Ni 0.40467810619231337 2.4711956558833794 7.540391628437685 -1.1682136314507108 1.021225463492209 1.0769201859513515
Ni 6.639794213210788 7.4954703343396645 6.294096238734758 -0.07303424217885486 0.9440869693369933 -0.335814354998712
Ni 0.5855631467282609 0.05662457020684123 13.282090290384144 1.1377360316871439 1.764659171247077 -2.1264031016273575
Ni 4.73454981420714 5.164752637693168 2.0359035313392595 0.6631283858358966 -0.616253575661229 1.0800574460287529
Ni 8.688249390858756 1.8268759717539897 10.169592093414131 -0.30590754013695054 1.4646947360674387 0.8405784698286815
Ni 8.622468495425176 7.999781331251632 7.970964348691989 -1.5435355576257417 0.21582996932256376 0.49393848496937515
Ni 2.8185121587559365 6.237499272764355 9.096189397656916 0.45299778089095527 -0.676525375968093 0.2896090600872432
Ni 4.797036604092362 6.98127702078262 7.582934357495896 -0.601463561836248 0.5007354532865506 0.182933218594543
Ni 1.021651193423032 7.035270907256846 11.776188098669197 -0.38380553816601 -0.5118248783314926 -3.789278726477029
Ni 3.948988453632731 4.454431224238688 13.564430101244705 -0.6334061761811156 -0.1316703066545087 -1.688203562091499
Ni 2.1657179740398456 0.8033716139247022 1.566948960599279 -1.2490704549977778 0.3587748204496273 -0.5269689330617827
Ni 2.6664128159783345 4.215645377631213 3.54129320439766 1.0481174027870466 0.25119677885763186 -0.08859224451811194
Ni 6.293204621897785 4.031019042916598 0.17111314083662427 1.2593525536500763 -0.7461917301159795 0.17979235897271617
Ni 5.5824047350117 4.405130057959051 11.3571291054335 -0.43033299230358785 1.0346476504353859 0.3025949308239498
Ni 5.473248382720673 8.74930076044916 4.464685277934475 0.1773392694465333 -0.40522925525742465 -0.8196450621101239
Ni 8.795942718618528 8.721438884470299 10.374859035855227 -0.23801807538382877 -0.6258620452852706 0.5864706879718417
Ni 5.082179165092671 2.4370308125843327 12.332922301002025 -1.1644942736175945 -1.6431904877159185 0.9170947570188659
P 0.8001299564255764 7.813636763532885 4.559763469641732 -0.04899751294462529 0.17936452740667821 -0.36628809810753693
Ni 4.324369263551367 1.1268693413154625 10.397416297731773 -0.38542610448856846 0.9167561427325245 1.2875976645386986
P 1.3711392295621052 0.7508287901459398 11.354018107986851 -0.6099425458415366 0.45418125967609524 -0.30540797479271276
Ni 0.4797763515651916 1.011897696548001 3.273633326475237 -0.11070038927106096 -1.6608647650672301 0.7683111877228381
P 7.2429375779856855 2.7391039719337518 11.96004243490474 1.0609204680889857 0.4682184544954517 -0.3306302396946112
P 0.18128806238795353 2.1285350675568275 1.1401506596073676 1.2747604035647142 -0.565090936744485 -0.14937569435407175
P 6.112663714176108 0.9822967536734973 2.584234083958912 -0.005111353084636359 0.01679341740825495 1.0650488884350624
Ni 6.243866649969564 8.726288028671375 8.841713303057647 1.5977256705148999 0.04814159270223321 -1.2841205046233755
Ni 1.9423904998380803 1.6490402792033112 4.929478970101918 -0.4178438586976416 0.0755266695834054 1.3282887145001576
Ni 0.8231224450966395 4.000635980009663 10.04720227017436 -0.2802394459468851 0.5995131229780966 -0.19114635053295467
Ni 4.039392327969691 1.156718722317915 5.566612351345082 0.5546931384499285 -0.3681488054653595 0.5612743912118722
Ni 0.6353161023442785 3.2571158715314934 3.2646509079380617 0.8942834155513051 1.0687530767595272 -0.011150360189864667
Ni 0.4129225714753582 6.932362313813126 0.33972441771068174 -1.4418299156541232 -0.7899722176360395 2.1443571150026166
Ni 9.063630200777391 4.362141060411746 1.102423029525291 -0.16019438223613058 0.36577876257128616 0.9055106517256921
Ni 4.846411381669169 2.7997136737411363 1.8051965245961974 0.7037852401253105 -0.33787200885868907 -1.2709952800953273
Ni 6.44495431101383 6.376551013118567 3.507235097479511 -0.14449239811984146 -1.9395679768752465 1.2974401045504171
Ni 1.6044870415911425 1.0822240895818311 9.176399947618254 0.5076617480927386 1.454877749977017 0.3140854479620526
Ni 8.57417028306948 -8.281270931629878e-06 1.5422229258798614 -1.9286873254070007 0.10287497968937122 0.9179794736166642
Ni 2.6800125031304995 5.905861976189017 6.703310641115175 1.1937955936848732 0.5281274721462582 0.08428641805390645
Ni 7.798031168532836 2.4947420695656466 2.5064738700521225 -1.8712450241291319 -0.10022777187451125 -0.03865962135372697
Ni 2.8676108939683553 8.405351974422132 10.743321303981094 1.0993432908415584 -0.11596729409695512 -0.03790191725209602
Ni 3.0940392440634086 8.788719610083717 3.5745848336840274 -0.5366972160931401 1.6353190553876416 0.5595558658588685
Ni 2.550631446942002 8.206923521488134 12.9970839102836 1.3004686069640958 -0.5079638527141896 2.2332141831463415
Ni 8.228372013201055 6.32255712664434 5.027169442717498 0.8062023063416567 -0.19621733729795884 2.0047295011742445
Ni 6.099836945644228 2.4772869907242003 10.078109813573633 0.9989453119377699 0.09973206318501533 -1.2177132808427351
Ni 7.152644120594481 6.693999732164379 10.759697977319 0.55565601658383 1.5097587182856127 0.8885555119285924
Ni 8.5340705289361 8.932740112996909 5.883939611750564 -0.3972151267036965 1.2765938572290272 -0.969269639250208
Ni 3.314891538397831 1.9831159499974067 3.1920352035622437 0.10166116188692814 -0.24598438141875698 0.5623984775139862
Ni 7.004823434464887 3.8241068879837528 7.789439810011877 1.5663394428941348 -0.5847627041417993 1.3668928000256007
Ni 7.549685054705402 7.0465058314874245 1.58794382269339 0.6311981127862033 -1.5420787705745571 -0.3767661148207253
Ni 3.892648207061209 9.150040662242876 8.622224658003299 -0.9585005736591621 -1.0792789159915153 -2.497202457341686
Ni 4.61114967591371 7.287187168997027 2.6926580038430985 -1.010112898518815 1.9053393947096797 -1.1070673989586932
P 5.675624241465414 0.24425976669328175 6.755213046608557 -0.017463446892086055 0.19775948497409812 0.27352912380624506
Ni 0.41941876845061454 5.928598665602415 3.2774445513862154 -0.39803376595025 -0.8477063391227142 -1.1770350863970827
P 6.959810126245405 4.6918460604363705 2.045922949025317 0.5075054250205324 0.5581119343234904 1.4318612344771857
Ni 4.3447871971039085 2.4153798898041936 8.11076784441855 0.3317617821958932 -1.3601035450179093 0.9390923443358795
P 4.309969053542478 5.34877167920613 4.771131868477009 -0.3883895579922666 0.6735562660374399 0.10060289582574287
P 3.9347814732789126 4.215663780455506 9.778679299792616 0.03676857497860119 -0.09269392539131133 -0.38628485294443793
P 9.069224659362314 6.404514104631037 9.738574024811948 0.21604285666431824 -0.21751147079004474 0.12344251942807771
Ni 6.635405139617025 0.23594169011306684 11.228948833530088 0.686870723758159 1.393668011236916 -0.7271977055119798
Ni 6.181251040314296 6.251687850293881 12.998821136896813 -0.7924834140936675 1.1101072142262818 0.2792498283401062
Ni 1.3946856432443728 8.313770319330452 6.695391905822108 1.1562644295086346 -0.33710787699915495 -0.3809233315222085
Ni 2.8298298956958305 3.5180127115264197 11.464005347794687 0.3393167117250156 0.649572758638649 -0.08790396020183572
Ni 2.597558648887905 6.54363945628242 3.8149340002151506 0.8020643729138832 -0.11444545813578999 1.1890647638681069
Ni 7.8352600820765845 8.20140267420038 3.6741477936713696 0.5845367041739223 1.2954171605831175 -0.24742368496844483
Ni 1.4181492442173242 8.124248833354029 9.07954404308434 -0.07743905611476987 -2.326629045864077 -0.9165003179679764
Ni 7.77698753895435 8.305295818743751 12.759603744059678 0.21652570983800776 -1.1758117555129428 0.33162345684581596
Ni 2.319271139936556 5.817307585693455 1.4542555854792303 0.3601735005693668 -0.24383725316876717 -0.4666459678020093
Ni 4.784495079337016 4.661775845542407 7.716313427261942 -0.8176987370170304 0.08951347078080069 0.07885187730189645
Ni 9.022343464477144 2.2742946373656596 5.327083950777404 -1.038415345007934 -0.8340306414078347 0.2806762763739876
Ni 3.605923003171744 7.914576254777307 5.8294782935393075 0.1912707919259609 0.12661217540531097 -0.3987282209141133
Ni 3.7139751860052215 5.961539721086009 11.666510946450689 -0.7129293685184238 1.0272444159927794 0.06560195427052572
Ni 1.1267037158968298 4.8804842108467525 5.472314439387827 0.8426592636171101 -0.5874307378922657 -1.6384938535711977
Ni 5.781265654316573 2.7120702230480536 6.289625272572892 -0.7413688548060393 0.344254258235949 1.343043504211829
Ni 2.2451629665106148 3.2416114920650534 1.174280537540258 -0.344666148962387 -0.02045749652340348 0.6332423969097416
Ni 4.359343831119284 0.36152256308516084 1.4257450099440578 -3.014456477108551 1.3082029994938762 0.8200104158693425
Ni 7.799733429779892 3.936722971241773 4.379249246015278 -0.2968883673574758 1.3259613519185616 -0.7572508161436183
Ni 6.284904948141863 5.012598086442687 5.98855230672377 -0.4230295166636392 1.5096761858741357 -1.5026920412468183
Ni 6.12818649646684 8.685709801106388 0.9326091280837181 1.872280407372182 -4.23366305466736 -0.2690988559490333
Ni 7.472936075993485 4.531391835429968 10.028227118046352 1.4843428493156694 -0.790834822746651 -0.19880463840916085
Ni 8.475577151922353 4.90722351454377 12.375330689442901 -0.9863481919990498 0.4970181523359634 -1.1936346426269766
Ni 4.707092800362715 9.07633735095137 12.430922861206932 -0.3119889704443401 -0.5140542818826437 0.8562411160666028
Ni 3.5099062674255683 3.544365555913295 5.840548512492467 -0.3809189606468343 0.11293082126347648 -0.19612477758415256
Ni 7.028020194485597 6.072425938860533 8.125365884788584 0.8896618576188937 0.7526228304533038 0.0795879841369726
P 8.612991040914531 4.306628940933387 6.370375025286 -1.6892240329362134 -0.7581468455953265 1.0240881297519848
Ni 2.788644374929191 1.602701967634769 12.812206377017391 0.5485361177095972 -0.9501861402561959 0.059307893731697855
P 1.4668063116467227 5.221451739338393 12.892794184876726 0.6361711405207625 -1.5143365674642824 -0.07142576004115442
Ni 0.7384712936335188 2.971678865342504 12.582347740474214 -0.3992879500723252 -0.6384169991321457 -0.3809755249163826
P 2.3619748937073277 1.8106262779037028 7.242133374564102 1.2468243392760785 -0.6985602442809453 -1.2337320248684946
P 4.183688873247268 7.022821396622963 0.502133942798163 0.5544866788660774 -0.20958295997158743 -0.32531576946023333
P 5.144739566275061 8.074570409176395 10.450180875543259 -1.5985563939463114 -0.8304948603404342 0.8624788694461984
Ni 1.330965864131554 7.9053104327460275 2.1836119602406683 -0.2705314746305018 0.42193088428282177 1.0259694059350974
