# total energy = -340897.2165875879 ev
CRYSTAL
PRIMVEC
9.02081979565339 0.00000000000000 0.00000000000000

0.00000000000000 9.02081979565339 0.00000000000000

0.00000000000000 0.00000000000000 13.20288160938429

PRIMCOORD
 96 1
Ni 6.4161934237540885 1.992085686986514 11.240959971649295 -0.3296799599662 -0.21637144364833058 0.3086552780854168
Ni 4.820374310714935 0.22365228422007655 5.869895280467802 -0.7244353122754943 -0.7023863028952548 0.6470116827796921
Ni 2.8932385265790175 1.4637723522159545 4.794586493037296 -0.43263078719882914 0.6672264671646702 0.7688683457778887
Ni 3.42337406695733 4.517788950809719 5.035856438405597 0.17324170233839198 0.00819513421628266 -1.0921789118826353
Ni 5.029711455930344 4.545365597061702 2.668777976901245 -0.050156823360049105 0.8677138925928928 -0.1679485722602527
Ni 7.379914669759334 6.357377678394937 2.7042667842352075 0.2199121098117374 -1.211592512656978 -1.0067496384735373
Ni 4.956967564737675 4.424811360715123 11.366387254873638 -0.019874627436739966 0.17003579380658457 0.13657288616244867
Ni 5.753000790730457 8.063079397909524 12.288476515233635 -0.7235279699698764 -1.2396607316481039 -0.11743590822268163
Ni 1.9192425667756021 6.409842766586475 0.4825128282770806 0.0669417561278718 0.4049981130832251 -0.16350210645312485
Ni 2.726064693297455 1.5856165657997054 0.3258617813392984 -0.02623013734112257 -0.37779249920271063 0.09266564325653719
Ni 0.6188814638857959 9.116350322470028 4.507159718791823 0.3638985148294378 0.05046946950446147 1.0069445280931628
Ni 8.474609199026775 2.4534735593614383 1.3329361854153325 0.3577198968225517 -0.0733952250626994 0.6649500124256678
Ni 7.0281929041836735 0.6333292089421175 4.811182997379593 -0.18624377102501474 0.0339753285041802 -0.08666674536062494
Ni 0.9306328788308023 7.622385286248386 2.57549909142398 -0.46633126477506787 -0.7164360961201016 -0.12813632535932126
Ni 7.670348985339584 3.989565824237564 3.7416836179262787 0.4694353576216883 -0.40597410384324917 -0.18866420754104926
Ni 7.529714404028362 3.8824435886332815 12.713279550663993 0.8895237893791325 0.013058890066487187 -1.0360270472814157
Ni 7.905467633658742 8.516916844078064 7.109567013717615 -0.4286666603447585 -0.4539421470820956 -0.5801308617967429
Ni 6.830573803940894 0.6518471479104098 0.37828627584155405 0.6398241638923174 0.554523959861916 0.18928384340291915
Ni 1.8988374722967063 6.313265869375574 9.35630142397767 -0.6183402829869286 0.8914698573619099 -0.2622286111917613
Ni 0.20050846883764736 4.80173729692475 1.3864341574785908 -0.34353846311584707 0.2587856469484834 0.6667454137631936
Ni 6.1174870163802275 2.091819871141541 6.9246735840236315 0.9690037871833312 -0.124724728574611 -0.10840953635435524
Ni 3.5203117969618454 4.08428443256135 0.20664984298496486 -0.2851613087285347 0.649082963486424 0.4977329190148009
Ni 6.021298014422462 5.553153547987108 4.689030271757301 -0.38844303693802135 0.9485504044249858 0.9947022203906998
Ni 5.032354556143569 2.739117819606457 9.17719124188334 0.5396634978103158 0.4616929946721081 0.3907089501540626
P 0.12355546310746715 5.596327191743074 12.496382056340378 0.11895851551479511 -1.002254835926977 -0.08354285501966258
P 3.9461666599855887 6.092418158043865 12.536083586539789 0.02470084518078972 -0.1304462044394205 0.6940140196711595
P 2.351529274345523 8.538566811694931 1.2990963839481875 0.6650456574632675 0.4339574764300526 -0.437045371326757
P 6.369267118944532 7.688065875506052 5.7874567141926985 -0.02733416903857873 -1.4214500664461907 0.12742207290111604
P 4.75019233235693 1.0363298249003075 12.45083232863846 -0.03201357679211906 -0.6137557489400398 -0.012914394068822919
P 3.9746544090414475 6.0517523022035205 8.319875076305069 -1.1347422391661424 0.3089733235464679 -0.5565864988178996
P 4.922706490983986 0.9668424496700097 3.863493552394636 -0.5845724425078642 0.5718377685500151 -0.8766050244349355
P 0.2805096095918854 5.7435199090782385 3.5532125310836085 0.36025037655388925 -1.2343740293278678 0.0463410491583847
Ni 1.5815391552318623 1.2417970384042012 2.5684619498665144 -0.29133735563225954 0.31893403430360556 -0.5102729604633406
Ni 1.810000438508835 6.72991949616215 4.807617969378682 0.034714777773366026 -0.40128518300801214 -0.25805005433403944
Ni 5.854178306059942 5.578366739440916 9.271446180067331 1.0755811554249541 -0.5115569693820867 0.09785644342885727
Ni 8.642288198219397 2.1875939153866493 10.117447531319838 -0.11270045042022528 0.5048659305151563 -0.5516564085061337
Ni 2.299578372884886 5.310728035597258 6.958195852632395 -0.4297064144631825 -0.2869829353183057 1.1305834798027627
Ni 0.46127601420890363 0.06944227113109597 9.253662535834044 0.62133407550793 0.2993550837304135 -0.1709233386178605
Ni 1.3406652238545533 0.9351342679311422 11.568008892879586 0.30128469665295854 0.4214981676207773 -0.6649898645246677
Ni 4.088632467724404 7.0041163360297505 1.5483281049075908 0.5437844619572247 -0.2113559927116102 -0.2873197498324342
Ni 5.5377189252402514 7.69700550796785 7.951356544186657 0.20135234453167905 0.38862841347595006 -0.07734803906286034
Ni 5.171302244144644 2.9997202839746344 4.776775786344489 0.7610092547447862 -0.33698343560614863 0.11593618374870354
Ni 0.9671040534453802 7.435257399479946 7.153809624624663 -0.19560695740746958 -0.3307690792653207 -0.053197409958585795
Ni 5.140261603073964 4.765428497067299 7.018863572304773 -0.27621438394789205 -0.9500601562012927 -0.3852240157800914
Ni 8.338115174022278 7.122514596434485 9.171461217120743 -0.5949373306819561 -0.5989608500190523 0.48988874038003377
Ni 4.663980357142604 0.19480370237060332 10.223347445835753 -0.19565349437468885 -0.02379093177201064 0.4213313030256099
Ni 8.286425876337011 7.154123549155107 4.880748853742501 -0.30609265956456316 0.11332445715746935 0.6380742710807463
Ni 7.283094210412743 5.899318488541106 7.201049853964664 0.40348604731407284 1.1672553813024993 -1.1360794699203272
Ni 2.38699011713798 5.093678089418341 2.678759514054604 0.318820905764509 0.8730083082226127 -0.3033613766763291
Ni 2.0779278085873853 5.205752755114981 11.496752534878592 0.9709799370730954 -0.2490486221663775 -0.3187918522987864
Ni 1.1997239346687592 3.361897179745273 3.802535362323399 -0.6067937157999098 -0.004749084649211176 -0.11795218573746782
Ni 3.7504599735489657 2.610174220808342 2.7265933133401004 -0.6221622278361801 0.06826407448372114 -0.3458946220528495
Ni 1.0399381528364517 3.2993468149722123 7.89949494884244 -0.4012237336424574 -0.421689457695977 0.9904717272491199
Ni 3.5678605383403856 2.8442915581252213 7.031933838171471 0.26683448539488885 -0.528385096683019 0.20800738795435147
Ni 3.872872498782659 6.820578735557774 6.00007563366603 1.5732577672805228 0.5734760754843865 0.6622020173668853
Ni 0.7022491746044566 7.381998479142457 11.469303984268345 0.7425608182316115 0.1201803037370382 -0.5945290394999438
P 0.29089708363806066 5.421476640777365 8.159327937278235 -0.1716980120003559 0.34555292244271457 -1.3992030821225323
P 8.409605171257136 1.4135173648853057 7.725929864703981 -0.09596411150215085 1.5975366944325453 0.9984377761737321
P 1.6298546662968338 3.0806550795823497 10.50376414098328 0.5878050905125489 0.028639003892931322 -1.5305124058931963
P 3.886611207399528 6.377872981072237 3.828426017347218 0.5075578755250226 -0.9649848958319251 -1.0111210280683554
P 6.885312138732202 3.955602437538606 10.4528271796727 -0.2493512410084609 -0.024898563013892604 -1.0742218131835821
P 6.446304920381213 7.623016743637211 10.184478537307607 -0.8644231376567629 1.65506229945284 -1.1509674427757532
P 2.488447277882516 8.541002433051828 5.948980808008244 -0.05671493619354104 -0.027402817492985065 -0.8789804666456474
P 6.882163872607916 4.041606933896604 1.656447141104233 0.2056946806607748 -0.058184578760532055 0.38990933707090264
Ni 5.485344045247118 2.7221586783065788 0.3720068831506791 -0.40348141932838255 0.8288357274704564 0.1653630709212636
Ni 1.4415360313094656 1.031341311528588 6.980508850507527 -0.25117878113550285 0.40951502711697213 0.07722668299364766
Ni 6.70541894947573 0.7111013051138023 8.996654868172252 0.5555426309344174 -0.16299045692402897 0.35517501891351083
Ni 2.6858769409086487 1.4507823716458352 9.144249914072295 -0.34921108802059214 0.8846147821132894 0.4135287762620556
Ni 6.305823693007277 2.0015124437196907 2.577994250191824 1.0923000108415317 0.45331402657979347 0.46107207325865757
Ni 4.049644484374365 6.770305706587444 10.428243641443752 0.09287056017849167 0.534221757969454 0.5608704709052341
Ni 8.15532630159705 7.278295134257672 0.2126270382111878 -0.4744688062805376 -0.10417492944771735 0.746904697022604
Ni 7.602503399320232 3.768041551417828 8.12707309385704 0.013684696575944174 -0.95817661466084 0.8662182818839728
Ni 3.2229404709243576 8.28891562261295 12.40685312567075 -0.0672222634827681 -0.08921265171093022 0.27837102527957863
Ni -0.04521956569575966 4.713378366588418 10.190855354852758 0.04196914534293417 -0.1470125934385339 0.7113285996902072
Ni 8.668159909521552 2.3576002860980854 5.655969244199602 0.0656330646187773 -0.23106761220792463 0.4114904056757881
Ni 3.5599041752411877 2.4589491970045367 11.362861918480025 -0.06197361348931908 0.34371381235144677 -0.5469566890376194
Ni 1.0193436211409084 3.304064703748721 12.550210190409793 -0.27847284096476554 0.2294449890028371 0.9045122923681648
Ni 3.125010450737403 8.259841520267468 8.293232084906563 0.18387707056505104 -0.6089359589538933 -1.0758737469647084
Ni 5.659355659967674 7.837450652062423 3.486128302258783 -0.6551281412392395 0.5022151231558706 0.7537906255091599
Ni 3.1847463197202712 8.525261102430399 3.4430872645544697 0.1277246917431994 -0.5834056758932726 0.08403907792979075
Ni 3.0511028737853283 4.189485233539635 9.145530870489628 0.5598145188368939 -0.5340641493456673 0.6187213204754312
Ni 7.131129479382028 6.082188548344897 11.385174916355158 0.7927916893627056 -1.2354009279304852 0.7482640392639759
Ni 0.34773817153415687 9.301367337395822 0.5333848396848101 0.6330220533688194 -0.33030936602008276 0.06028954091867682
Ni 4.634798004959038 0.6061584995829513 1.5022235967854916 -0.26227334838676764 -1.3904057955458764 0.2073856952099525
Ni 6.016345584330105 5.484207421947232 0.37508839520814624 -1.368131043308076 1.8435377880218509 0.009785104411221858
Ni 7.9766870062983894 8.881664673503206 11.441445888437341 -0.5593265234568818 0.3419459218177466 -0.8199139995007945
Ni 0.1418704336293513 4.778274144519973 5.829983565166111 -0.4242641604016887 0.6186940667819215 -0.38326329250929475
Ni 7.915751368276753 8.850705219811088 2.5412380176702904 -0.25107310879557404 0.1466654945117603 0.08018576562197159
P 8.517349843430402 1.7300308706240384 3.4741531639207044 0.05483288867947976 -0.02336387153692105 0.39401281771631497
P 1.9163468836068465 3.25276330131659 1.4964809428751182 -0.2953960990826655 -0.07151137777642523 0.5000471689702742
P 4.564652109880393 0.9573345055582696 7.971979040423705 0.15911091936396468 0.07461495640241343 0.9340043882900109
P 8.42070980048062 1.7985981222306193 12.363270838776018 -0.627838452285351 -0.7775123946061319 0.3992411559947899
P 6.3022063442512914 7.765356259898262 1.3622998560776902 -0.2768185931907942 -0.34036829291798154 -0.32526794694143335
P 1.8220432329957166 3.2664929891136185 5.88231965563393 -0.018483917736800425 -0.4573645425000833 -0.37896286536172796
P 6.974203297439115 3.8561478987986306 5.967636765520093 -0.43203891925110116 1.2513605365835352 -0.702990512138157
P 2.3618490922428954 8.460672032373417 10.331426790425098 -0.01806945590720114 -0.3319003646562864 -0.15854733355101083
