# total energy = -340868.34553189564 ev
CRYSTAL
PRIMVEC
9.28338847058098 0.00000000000000 0.00000000000000
0.00000000000000 9.28338847058098 0.00000000000000
0.00000000000000 0.00000000000000 13.58717740598220
PRIMCOORD
 96 1
Ni 7.076318641726652 0.7728968708724233 10.320521320036104 -0.9588168193480002 -1.2403055643209542 1.5025028080541478
Ni 5.555940961222804 1.4407447733063556 1.4715999719135255 0.9899803894349983 0.8017843797796191 -0.583686440358485
Ni 4.409331071530965 2.2391069073792265 8.330420887729955 0.006440099198388908 -1.319625896618837 0.6424055514662484
Ni 3.2419728083737045 5.831072748424023 12.04275050334564 -0.11060808666757078 -0.11727932804015931 -0.42829590726890104
Ni 3.8372701007541137 9.25836984292311 2.0764740079480424 0.07682661934175156 -0.1886428673848106 -0.2512101485940706
Ni 9.080026665006228 2.0186171453312403 5.697456936662133 1.234036700593107 2.5284339045521422 2.009384997668384
Ni 5.019091883311433 9.025960209944653 13.343559333948157 0.4920764920599719 0.248939607392339 -0.7366948463691377
Ni 2.7943370946693618 1.008175999259454 5.784034746852682 -1.0887889123644798 0.37994939764471336 2.1962309210537723
Ni 1.676394308897534 7.316563454662521 8.081870227035916 -0.053098422486876296 0.5289867348227599 0.10056330083705907
Ni 1.0191860981095617 9.30622571102792 4.6716926294082315 -0.15141097961654568 0.47413636264178344 -1.232406878299168
Ni 9.176146870313156 1.5028692096511462 10.000054104728221 1.928401675845782 -0.540383920916108 0.42544506808366733
Ni 0.7322922575836486 2.4729276154211037 3.341698681803214 2.0237052709457983 0.3502973791062354 0.306906156604794
Ni 1.88082380871054 6.127444928685147 5.591571534913022 -1.5094584134363744 2.4627599593931007 0.42041573318987596
Ni 0.8526012601619435 4.441692964103879 6.7362504797812335 -0.09297031898114956 -0.6254696949428582 0.4447129151743438
Ni 7.343503848307557 4.786078830075592 7.873130449907475 -1.842202614150195 1.774144999250325 1.4596538312094216
Ni 3.116257160289252 7.8387076450708815 4.096099329278542 0.04095921602118107 0.6706329217430579 0.6427441657525899
Ni 1.2852944316157517 7.751657310401859 12.079286207421935 -1.8833299803181243 -2.1954729598418252 -0.36302228287207156
Ni 8.359533594301574 7.384527142421071 0.8129537642352651 -0.07566705181601162 -0.9249451063012201 0.09290527007116903
Ni 5.4754911158307005 6.576593834727237 13.499757916757916 -0.09355215962654856 0.262701951283754 -0.3814349810513044
Ni 2.1425596661978425 2.877989709119886 9.5542992055492 -1.7687551956933214 -0.860410416952944 -0.029035725110717735
Ni 3.903042908808932 5.427393879622937 5.191823252834647 2.2409290352920954 -0.03393110552980608 0.7359777656974551
Ni 7.811860085311597 5.595729564655824 10.175124888172368 0.6359916775201047 -0.10210904805762414 0.22819646130771667
Ni 7.671374566004107 7.365997498825105 11.67177979751132 -0.8354156946808193 1.0859445009371491 0.9444638930604379
Ni 7.632959904080207 2.5882830018557077 11.747080147260798 -0.2626662129498122 0.09470967026975946 -0.26292332326594076
P 2.544242606455276 1.4300688764449525 11.719592962028685 0.12074800331505012 -0.052487528375754766 -0.8690642359732
P 5.433140297150944 4.074915564888946 3.699720917252939 0.18014562854707686 1.0056404645697583 -1.0739791010451567
P 8.390725779914021 1.4380433072309917 3.86945189558867 -1.3563471632992705 -1.3884201325744152 0.04307857635702903
P 7.914357978569641 3.9833535033724083 6.114623640724032 0.43256959494359054 -2.0607152725112443 -0.8626123097002694
P 5.487308869486845 7.983064337414201 11.05388952235561 0.9697488928794717 0.8377499992409507 0.609587219384647
P 6.421375577751012 8.197362079282573 1.1473042871572585 -0.6472991321131238 0.2174150544214965 0.06016561374630283
P 4.992355724215049 4.255189687629455 8.066638971400694 0.013588280207395952 0.6978740168471981 0.7351565553477404
P 7.165856924533809 3.0490361436167133 0.1813992694358157 -0.9789513853143463 -0.12315918385970402 0.7994742435892038
Ni 6.828312915941971 2.0107262650423774 7.095237259303915 0.8211285886341858 0.7040840023126519 0.4355466752940435
Ni 8.143072822895196 1.98231909600247 1.673546165282683 1.160963891866833 0.515400511497893 -0.27612310978566634
Ni 9.133675367581922 5.042058986646312 4.676272124992345 0.3623489109541308 -0.4197418470513029 -0.6335905242777798
Ni 3.7238085255888373 2.942741344431439 4.272650813200424 -0.4592959551948413 -1.0945983199574054 -0.3358986871824022
Ni 6.873894353845874 4.858368576910153 12.750546683496086 1.7302691238029813 0.5378315868078996 -0.4563245312713431
Ni 7.45220304513379 0.5271154449903446 13.611227276734969 0.4999700358754357 -0.47687047374349484 -1.5469160440622003
Ni 0.8102114512501708 5.593956437437974 9.53141843772807 0.6623475418058142 0.15154981918725513 -0.9511724154288652
Ni 1.730107995193254 4.033845853832557 2.0399921475254845 1.9404858607038258 2.1727958299592838 1.290583229529584
Ni 6.3933583110312595 7.738641999619523 6.887870495345737 -0.60010396248456 1.5839422435775625 1.0557175837318076
Ni 5.156188965788998 1.2156040335822278 5.8501083366973345 -0.9997922333190975 -1.2824222909853462 0.03054573399734094
Ni 4.058548950830986 3.1542447863386966 1.768764953558966 -0.09688225244104605 1.632142971652505 0.34049916206889097
Ni 0.9317180109546578 0.3664580506479488 7.551929846902157 -0.8288357274704564 -0.5558593908438879 -0.12307279479348482
Ni 4.670844127692465 6.383582902861645 8.617001878060888 0.09381261237678683 -0.08596843374201969 -1.3670501515390716
Ni 8.491691914057167 7.154104154597691 7.787028877550831 0.7354964551856624 -0.2436883862957287 -1.229748100520082
Ni 6.3454745927607235 2.1447226957358483 4.1077704053951996 -0.69277937593311 0.24262857757264666 0.12875621833150727
Ni 5.476688672956893 3.736229699502365 6.010954183827805 1.5583206863547163 0.14120858516224713 -0.4894097438610862
Ni 9.121681229542851 8.048846428857594 9.828081188051597 -0.13411079777520127 0.4185059177616728 0.12474863983401097
Ni 4.696327029331205 3.942088841155942 12.774555383029096 -0.01820572437474929 -0.2744570349371532 0.6890672171888456
Ni 6.549300672316345 7.296901237660388 9.130257223908558 2.006134866162203 0.16167662320861187 2.112186186697027
Ni 0.9947615027683866 6.658287654188409 3.296574914956065 0.27679673881392325 -0.16005939932016308 -0.01945605184208262
Ni 3.3595840582320653 8.272418275912525 11.719891887140806 1.2305613404499969 0.5419024144431636 0.5427490787141749
Ni 2.2915487694401535 3.3368861731658654 13.28835473544727 1.087937620107778 2.2187406721205143 -0.8865269115343378
Ni 5.771464110383094 0.04775003747505458 8.61874065674101 -0.45112010425226823 0.7972522962372205 -1.907768572976463
Ni 3.746515694043613 5.952100285278033 3.0127659444536685 -0.36485985030144263 -1.45486823689532 -2.6348868314007587
P 8.978707762097226 3.674680833249233 10.237068298439944 0.20135054475946612 0.6942011959813013 0.404351994858794
P 9.038279266583855 9.324513986520932 11.775219026370882 -0.8815875652511914 0.008826597152694475 -0.3761909590435457
P 3.767264067509035 0.640732052744826 4.046953998500645 1.3029898307240526 0.8127763600147487 -0.1716260211118399
P 1.8353537714695378 8.137391389087215 1.9713637691449555 0.31760734507238203 0.20596721759587108 0.22202144284525635
P 8.118221191679563 5.835324540391435 2.7389171215535324 0.19760573300505324 -0.25089184602270337 -1.1566223270686855
P 5.4880144070185555 7.2018114884853 5.181605955368855 -1.9902984133505788 -0.5343793665932409 -1.0301700742800064
P 0.31228019492347203 7.8936838722128195 5.923547367037497 -0.10028510747500793 -2.0965513083732477 1.4361068971274171
P 3.3898107714326984 5.337493544661347 0.5152392059861769 0.38997695708404445 -1.1240953009752574 1.931964967717008
Ni 7.912937620117646 0.12418945900270047 5.805380042203486 -0.852958588660589 -1.3081806308963728 0.3922495551683051
Ni 7.171594058673242 5.967872762467184 5.714576433533536 -0.012805636405100528 -0.8262437983735642 -0.11698570805914046
Ni 9.302698023369372 9.232459905409913 2.4014789435914494 -0.06242201388064734 -0.1898245463977376 0.8913644421322972
Ni 6.502967279937856 3.6953642229946295 9.923326898154746 0.3942210770723792 0.41881830679576904 -1.9802680256977703
Ni 0.45949338593136013 2.0607544460737697 12.570883407723821 0.19183951994523735 -0.6512794569171106 -0.4357695899381269
Ni 6.038129447203792 5.139460299576608 1.8168909682713132 0.14868895269969232 -0.22568217952629518 0.3459815253397009
Ni 5.4001007172120445 5.838796527718535 10.857336977748604 0.40382543293136264 -0.24729950068575474 0.6741859292016389
Ni 7.788400962382235 3.752670580668926 3.1292631876830135 -0.40470732131568365 0.6857489514488899 -0.0008145254814953714
Ni 8.853576967493007 3.0224670855146822 8.168176033941213 0.017154914512731746 -0.694104779612753 0.07192969626076644
Ni 3.6996067315734655 1.659090072593486 -0.005433567333025399 0.2525059845873587 -1.5725509710214853 -0.2783792528096948
Ni 3.654145977721039 7.796421810111151 6.748927875219435 0.6778289252708649 0.003946129131941591 -0.6380475316078689
Ni 5.7124867427652735 7.530573411485064 3.112320075194538 -0.7074845433537686 -0.34349938234779553 -0.40814540046295517
Ni 1.1966844876661065 6.171299656314076 0.8510156573933108 0.7591189797006088 0.5144126936633269 -0.753269205788051
Ni 4.526060399474689 0.6436080465254023 10.54911176695475 -0.43965452681482997 0.993023032916064 -0.14184621874624603
Ni 3.9829543176636775 3.9153248318938334 10.305113680017953 0.5336414599859519 0.8909710633486203 -0.09193133619367393
Ni 8.023270693333101 7.394794570185168 4.094699394281412 0.15779631431759922 1.875329478611151 0.46902372400556647
Ni 2.866283356126643 5.326919765074271 7.795792396365756 -0.5229310155469833 -0.40320708262107335 0.3716161951886697
Ni 1.2571286306787983 4.612386629834852 11.574630992750267 -0.9615105641300797 -0.22164374779086343 0.4328822410880029
Ni 3.329561579580085 7.52226477871032 0.5364777423683663 -0.7787547516536654 -0.38166252368107817 -0.5401211541730246
Ni 0.662213813907684 9.101740510883465 0.23569688087291163 0.8340504389021764 1.49426550774602 -0.24908333205905492
Ni 3.212284531710429 3.3895694033297454 6.57608510503332 -0.4165457087115085 -0.2424866526781437 -0.06696849560074918
Ni 6.942962764844864 0.29017551838722266 2.8999244996452105 -0.4510823090357973 -2.364229115605038 0.16081093277420694
Ni 2.012118773328647 9.105936602519424 9.858217852383051 0.2868428101960157 0.5743548785449141 0.4409228520042922
Ni 9.340574248755912 4.158131860076439 0.5389489804070667 -2.605233013090068 -0.4797763345363802 -1.1759750205636843
P 1.5201734459551943 2.4318022040332643 7.453083110370713 1.1409704794640416 -0.12140517728307479 -0.2902958017416226
P 3.6313274086033616 -0.06173546236349259 8.439362380998 -0.16024991806441433 0.47616984813204444 -1.1144873455718483
P 8.01425652302665 0.6499003273016274 8.28324642034656 -0.07709298562926079 -0.6750351645758116 -0.2537126033009501
P 3.2635938203651893 6.768323658969461 10.10762351316486 -2.1324138265978116 -0.2576967847596788 -0.6309273756233198
P 1.2073975180818102 2.2163811721473006 1.0477083811678007 -0.9784600475002246 -1.8777627706429918 1.3902337887443863
P 8.988037567615233 5.912153864239236 12.614050236259333 0.5113898476766031 -0.3466813796202029 0.3392516628150351
P 2.018877080211344 4.272466073767778 4.3915524540707285 -0.720721610869333 0.5510982220098187 -0.4779066283174931
P 5.424228244118815 2.526409217002446 11.190154813216843 -0.6596018607398768 -1.1836101685114389 1.1865867346412595
