# total energy = -340868.46542511694 ev
CRYSTAL
PRIMVEC
9.26955306542447 0.00000000000000 0.00000000000000
0.00000000000000 9.26955306542447 0.00000000000000
0.00000000000000 0.00000000000000 13.56692789203225
PRIMCOORD
 96 1
Ni 5.356337181586509 4.773606717341203 5.539552682182194 -0.06629923744786648 -0.5185909934107327 -1.296680343566257
Ni 0.6898429327650508 5.609803845299603 1.033455074752847 -0.5316249437765554 1.1028564462011392 0.7674077020719623
Ni 6.85082090222517 3.1527233687625285 12.592429451957294 -0.781313513519777 -0.39685080138574236 0.3116752958586632
Ni 9.236442392858052 0.5115634692680793 1.8680439352246234 -0.7367856063107311 -0.9510412891676395 -0.9185937101618954
Ni 7.1064751805022 3.2103521812370865 5.530015238856623 1.85716103523224 -0.32928452429999416 -1.5678625644068802
Ni 7.3345710770055685 5.120491938576992 11.12804211676859 -0.9097979662471364 3.160432915973086 1.4734118042254623
Ni 7.214076154477537 8.44253296676694 4.265156891005439 -0.7053728963274045 -0.2659785651524968 -0.11156890791894333
Ni 1.3643670018506013 3.8975319713571412 13.190391646081673 1.4395544893563854 1.8363448698178375 -0.4514810871361128
Ni 1.679680124761097 0.6151071597915715 0.2241489207350447 1.8792882061485825 -1.8918313329209164 1.1880198675433602
Ni 5.779761103900377 0.13531415728805693 10.03802052034215 1.8247119135645995 -1.0606404749547218 0.36763561327436683
Ni 6.438668756647519 6.742774989694457 9.305053772007833 2.861927581837478 -0.02814355231375153 -0.3634933089712191
Ni 4.105049459674324 1.169817618512011 6.108102583885506 -0.5082734135348085 0.09216530658135094 -0.32296038185417925
Ni 7.642709565710611 5.446205500219425 0.10706148597694157 -0.569146337760781 -0.4931069902070153 -2.344880278764781
Ni 1.9184916248064612 8.29698244183924 9.167634499179647 -0.3184038728317484 0.8593634637456684 0.9782096220523152
Ni 3.708099381405386 4.722151427322502 1.0346341619245962 -1.5113373756266424 1.261529249586421 0.5551847333743665
Ni 4.910286279821074 2.9371320995759014 3.7387334009430924 0.9037913550417402 -1.5236138790011502 -0.013378478189435024
Ni 5.246112924045096 4.960499449706015 12.781863895819695 -0.04830640041487164 -0.7634533454099045 -1.3563273658049286
Ni 9.139557022424711 5.791765175342319 9.429340868765129 0.8479575359015717 -0.7890409640710218 0.15007914817899962
Ni 7.73539582852758 1.601686103824805 3.28889495972501 -0.9600483777622563 0.6765667707289896 -0.6789910638997662
Ni 1.7072292369815225 2.1025386043275067 8.378365411438988 0.3222034490834967 0.6739355037537297 -0.22516410223929606
Ni 4.815375324227219 7.979694904089261 2.281305646324746 0.8018594559919286 -0.22565749693594686 -1.213822430428761
Ni 8.757864628783912 7.982383074527997 9.29489248774941 -0.42157992870130623 1.8669373978927137 -0.02438279971973865
Ni 4.123301209998017 0.5642840533036344 3.486768404854396 0.5112785189097194 0.7915773573396303 1.5721735330774085
Ni 3.9983105541500303 5.237269770256979 7.836854796528066 -0.9266834291485653 -1.1214123548264558 1.4875636702458122
P 3.770186848986951 3.377370991461725 6.333435226568917 -0.16623313223104275 0.7673591082222139 -0.7352208329267725
P 0.381660877159795 6.296937287653472 3.3299479571011275 -0.1790919904715819 0.9621399701839624 -0.023235316378856757
P 8.804462672906412 3.6828954661539273 12.2210346050075 -0.16799459500683972 0.6436427663074593 -0.7669256202292211
P 3.8130678022614086 5.516301861797776 3.2982284728793663 1.8476068158849017 -1.3560604852967872 1.1431939694779214
P 2.3583782736692775 1.2118272337821887 10.226465902874162 0.043918298649505014 -0.778394282990453 0.8276764170550327
P 5.18714002635117 6.542144779432381 0.4819463197204745 0.5250089811219345 0.7045812536640447 1.0954490979934748
P 4.078288259479045 0.3560824719575602 1.0269107701675104 -1.1788297164036603 1.0802132548803267 -0.03300010907510446
P 6.490856341371946 4.136565940680194 3.5087604199092275 3.074653715423737 2.1514348477850045 -1.0389858727994234
Ni 3.222689956595561 8.323956841758973 7.107944404690269 -0.5768295653376517 -0.42728597794714795 -1.1244069186784056
Ni 7.839483641826086 8.065549506170546 6.900384276428196 0.45080334434279784 0.7644987559552834 0.074234176024227
Ni 3.628149484736083 9.41323131219451 11.905575950111183 0.37606086122358456 1.1248972280512626 0.2538043916838081
Ni 7.82590374633385 3.4104911051776 1.3321636469498677 1.7156025229297422 2.204897081369203 1.588991890186328
Ni 7.842042038519503 3.4016572209427194 10.032268762558578 0.44382588458370015 -3.881046540509645 -1.015236850008942
Ni 8.997130336937888 4.1705203141874 3.481301222355201 -1.8123276809676339 -0.5565124510468545 0.4039933259677945
Ni 8.74934590935909 5.656160881037944 6.63577468276888 0.03943840850128047 -0.014210487172427141 0.4157504665037227
Ni 8.31291680385368 1.0379767628218657 5.3842793228641845 1.221849928718928 -0.10368667695738916 1.490742067973794
Ni 4.844277791220249 8.03818578501486 5.2917942093524575 -0.0828021201988961 0.6310718716209842 -0.6348529359299712
Ni 3.450832200865114 6.003055371826969 5.853885086360213 0.7876127162649273 0.8660362477801535 -1.5422633757815374
Ni 0.8629685246622388 1.9679817695389143 3.426477376690166 0.48107705562567465 0.46931734398658526 0.42796372074046296
Ni 4.30440047158969 2.536047800563254 13.307026726641809 -0.23692561365059842 -0.40124970178438635 -1.8459515396696662
Ni 5.710165298196826 6.329223141578016 3.6044611414388767 0.993848871251469 -0.4418996140952648 1.767130515605705
Ni 2.3902006499319697 5.928175920778315 10.170149659137966 0.42388903645045706 -0.2942725270011835 0.28765759278782715
Ni 6.061648217838177 3.5854539225263657 7.473504994832682 0.15490485170241708 0.44869118309580147 1.654099164208622
Ni 4.314254006680644 7.450273640510061 9.116120810975552 -1.3548713500846923 -0.15457935004219828 0.3736129139037243
Ni 6.351618382198657 1.035409096575211 6.990590006798939 0.4357963294110043 0.2536881778209179 -0.40906945493912134
Ni 1.6804031499135845 4.451118960225253 5.670623237998344 0.275470563803332 -0.9187772869276113 0.750650022997649
Ni 1.8451323804886794 2.0453918086212743 12.206355340501352 1.0217126875412725 -0.3909290365846687 -3.1752195873639573
Ni 4.941153892100353 5.235554902908129 10.126464108642535 -0.8639346280561185 -1.4119624386707295 1.1367140181805329
Ni 2.917703115991106 2.7732556678986127 4.32359030070097 -2.3827472290138836 -0.41730958346072644 1.5046712764603765
Ni 1.6152938079767514 6.420685823367698 7.74009549201875 1.0183535412610525 -1.4626743632033004 0.5102739889046051
Ni 8.709737108377299 7.71529943710972 0.13702624377093464 -0.9392442965327114 0.528082992061568 0.358976137827156
Ni 5.93503539017371 7.356771657008234 11.485706901463711 0.14031949768907448 -0.48657895928051037 0.9355385655463502
P 8.188519399412863 7.619062935402971 11.412309651977658 -0.33438533586166924 -0.05718467674110797 -0.14464615008888637
P 0.7311582584977757 8.2825497474492 7.166811629477292 0.10634931139121684 1.2013716062599178 0.48656456110280716
P 1.6974405887632287 4.348467927678486 8.562645056746284 0.6277762315888479 0.5122596518760663 -0.9205557189842728
P 2.5583966934177105 8.486229640726256 4.704453996282382 0.9988666361810346 0.9431001799436919 0.034022122581715594
P 3.7763140236766217 7.417375996071875 11.34648284662028 -0.603527129233496 -1.2475506759191417 -0.9566624920091589
P 6.587204077717539 1.9641997918182101 8.951880085856049 -0.37982778446518456 -0.1606522957091556 0.659755869819238
P 5.963214832014254 1.1933066664146212 12.622683419812281 -1.1888814442127074 2.0391046362200047 -1.694525904765101
P 1.0711061460909777 3.1539469497898156 1.5287894102135504 -0.5300419155601517 -0.3821394633174967 1.614551483822987
Ni 0.7376191371039792 8.807651399219948 11.830211701428231 0.723542882368212 -0.19880438129884473 -0.5126365755995107
Ni 0.35720038007794486 6.009924110775601 11.891141401810494 -0.1486611847855504 -0.34354360532216965 0.4837977969909474
Ni 2.6383651291934878 6.857504250109062 2.379354345689332 -1.6528856035164954 2.358504811526751 -1.4543627580138114
Ni 1.9176759041216034 4.79141352910952 3.0140017237045433 0.04088979623582636 -2.4326083755103842 0.27155837323311943
Ni 3.2492008788534403 2.3962722073022187 1.7907803550834083 -1.0304603518269158 -0.602671208991104 1.0981839804261344
Ni 8.946082907261616 3.5351480571090543 7.625482101019608 0.7430608977964817 0.00906288153321665 0.02096914605249937
Ni 7.526515715884557 6.2459732839563324 2.1449041704419862 1.112033484714717 0.9388336913578541 1.21631562916426
Ni 2.6460959365931633 6.244045216883032 12.84660523649302 0.652240021058167 -0.5739393882740502 -0.24379842951103176
Ni 2.1979686549026347 -0.0029783074550547477 2.3966791406893235 0.5580929081600969 -0.6109910417107091 0.32448041804313144
Ni 7.800078771015511 0.6467561954087313 11.747684868959038 -0.06719166735514881 -0.6582031806201374 -0.20263403945758005
Ni 5.730641741297405 6.527906745660317 7.0010228889672055 0.2293349457875341 0.655888930664664 0.49424341780430364
Ni 5.476155426728238 3.4496178893910647 1.502957946207945 1.4482558737851252 0.2723320181743504 0.43032193655999434
Ni 5.951238569232023 8.679657408123168 13.500273737750597 -0.2144418307257855 -1.8323164653847348 2.102176624979825
Ni 4.067220412914042 2.82528567021801 8.392325358613942 -0.4118609016413294 0.16600687515284956 0.10133000379975453
Ni 1.5006108953283313 0.9084866658326289 6.228291611156716 0.0930040004325624 -0.5308019336546277 -1.1176040368239593
Ni 1.422978386968283 6.695769085229525 5.427314150722377 -2.1090057320865165 2.1403377094305784 -1.7087965557515024
Ni 0.9066716873088203 3.818008474136741 10.435843790526015 0.8518460723227007 -0.5647456375899241 1.3904965554874698
Ni 6.878091927848485 1.523367648525217 1.1468708394737663 -1.2552863540005026 -3.0730573174708944 -1.1741274258319843
Ni 4.843480609641865 2.119094026408826 10.598212992846964 -0.2546135178486647 1.5611699828780532 1.1936366995095056
Ni 0.4553603140813755 8.76017274753993 3.948708247823409 0.03498731470846232 -0.8806156882562254 0.7833724529313347
Ni 3.867795244572779 0.5343554467672658 8.862107243621473 -0.5716979005380413 0.5192903334706024 -0.7661262642563773
Ni 9.017328693441357 1.8212725504565879 13.559805589504716 -0.20992311691982557 1.1659042665912436 -1.2395805132294715
Ni 8.830408152416835 1.2072851526960486 7.779168512823439 -0.9011297490491772 -1.2786643666048108 0.29432112085093187
Ni 9.450865698336814 1.2359558808581537 10.073634143878785 0.044194178018710985 0.10524090881838649 0.319051019497444
P 7.367459451890518 8.676005204147781 2.1303472640385688 0.006142108341995874 -0.18511428540626185 -1.230939292614706
P 3.4317554603033256 4.008562680030175 11.69755512505323 -0.09040024426112818 0.026268960998857983 -0.24811016951250814
P 7.258013836821014 6.566699825957249 5.501606839051127 -1.5260183746775848 -0.23370942070614587 -2.299682856292536
P 1.5491740847370827 7.670156712845428 0.5049366656589332 -0.11594698238198096 0.5446869191668361 -0.1106916475203126
P 0.18591294058765803 2.992591836592996 5.426988789403757 -0.7737346727312546 -1.2423848154474861 -0.045727069723469634
P 6.011435047953236 8.458142894418083 7.98614465923158 -1.166594864900365 -0.004533369093979289 0.8386586270981493
P 6.121993009411181 1.3142187188383192 4.732768773600185 -1.1556579062728871 -1.025364682471563 0.3752260240271151
P 7.438853550922051 4.897410870374852 8.624387696947432 -1.3631251054530524 0.894047645391415 -1.080355436885146
