# total energy = -340877.7490906366 ev
CRYSTAL
PRIMVEC
9.19217799662340 0.00000000000000 0.00000000000000

0.00000000000000 9.19217799662340 0.00000000000000

0.00000000000000 0.00000000000000 13.45368165764721

PRIMCOORD
 96 1
Ni 0.8648240062762752 7.740199950818613 9.111626948120866 -0.4838636172318763 -0.4514687458409386 0.1609441159179615
Ni 0.6938393840066354 5.3247345680034925 1.2508467638995795 -0.2533616477194346 -0.5950664000606526 1.685540413437039
Ni 7.234850772872378 7.161331733196628 12.081931276037793 -0.9514390388266905 -0.07737812096984738 0.28031503637982697
Ni 6.7010885727158715 1.689752121579721 0.4335490755572286 0.6256519861569935 1.13760876208066 0.3647009561260751
Ni 8.653801330455153 8.692077559663682 0.29862720603276244 -0.020755230269480382 -0.8694907819876574 0.21163264341176455
Ni 9.431266553852902 0.9228027498185133 9.718159025445797 -1.1113760536363761 -0.03202129010160292 0.4370931938455569
Ni 1.1944959550818444 0.0551558256772191 7.023118144728941 -0.46624718970169376 -0.3237759357769392 -0.3626103921456335
Ni 2.5828733286234167 2.2224204525537545 6.529179217339033 -0.5260358797245521 0.9173595806444782 0.3208165960382991
Ni 1.4517942095909588 1.5811557306408237 4.37981911477863 1.644933181438638 -0.10113665684202582 -0.9908586782748935
Ni 6.665358576814442 1.23035464147533 9.375924126962202 0.32346817472853323 -1.3732100004928802 -1.5990742141229943
Ni 7.659143325179609 3.3885401541373446 6.11594945125958 0.16942644235735982 -1.645251484010005 -1.2325997110362643
Ni 9.390729048855396 4.403558833691681 7.341996638122249 0.5461820156551239 1.066233395661467 1.6058009913238667
Ni 8.758445084852344 2.9432250907350346 3.684828870085897 -1.4592933625462092 0.7203763117147722 -0.32559267727070373
Ni 5.268478438619198 3.5525102253721554 12.95662216618353 -0.5663698034569085 -0.02147591048558882 -0.03340017272700055
Ni 4.858617605778199 0.009152651638552582 2.237885372827633 -0.25189251937307583 0.654679483737595 -0.34246836998011987
Ni 3.181219771435813 8.845991388162151 3.8527304358530055 -0.4129513064920307 -0.3093217080248221 0.42660412138877496
Ni 6.4932350436901105 1.2639520520798389 6.828792744071621 -1.405634953790805 0.31304337985078345 -0.5228662237473188
Ni 4.196937056518451 1.4542209445840069 5.054547960715012 1.3998900808872277 -0.024943814429531235 -0.7874180837556182
Ni 0.7733995230665933 1.3870720842650086 13.49081364105282 0.512457369709169 -0.1697596573270625 -0.5398529881133024
Ni 6.740385133682842 1.7665527688028875 2.998098716547532 0.698371782419223 -1.074509005406698 -1.8989093228136202
Ni 2.4364878939101997 8.706904542784086 12.478182170126114 1.0045474886158958 0.33099842166730736 1.1061194332231274
Ni 2.218477008190052 4.957212907048778 5.54116807597816 1.1377339748046147 0.02717064687752095 2.1336124748916028
Ni 3.8986233037556244 2.8122089776444557 10.437124308808484 2.0582357006225007 -0.2497021965899764 0.6972502672202702
Ni 3.966645420985 7.617475182287614 0.5955124943337727 0.5479851303021337 -0.6993248903611118 -0.23346285191297858
P 8.499611736616565 6.222819551169331 10.582935232396451 0.24162764711195805 -0.0436421621699829 -1.0096195038221645
P 0.6370280470709012 8.747561546095643 4.481811845039475 -1.6171930352108923 2.2571089874860677 -0.37966400519381066
P 6.933292181274149 8.759401071364756 2.2737532513991225 2.0556519990557245 0.09875118732898477 0.8868768386745888
P 7.937151556731667 0.32719006074449736 11.849034577258019 -0.9208120579694529 0.9496050709417454 -0.2828411452357903
P 3.532774619197632 4.684582099629042 3.282240888481639 -0.425494433264364 0.7318575728814944 0.025543909907375362
P 3.5469121889677373 3.941495621966139 7.6202861503212285 -1.4660201397470816 0.0912772475494428 0.5745068307417461
P 8.114404325182214 0.18256768577244203 7.73333798993865 0.33116811447595224 -0.8886755824462244 0.5924611012273215
P 0.7306228035073202 3.129715998079571 9.601690453264299 -0.030543420004495784 -0.13321811075760281 -0.7454833911950451
Ni 1.7907373891313318 7.139665769641272 4.802318273157287 0.22528160165376687 -1.3316584023033389 0.6506217687284537
Ni 3.198225300743157 7.81415102286055 8.57619728687444 1.362978552572859 0.8820534491440163 0.905428376424531
Ni 4.7817985741990245 8.092802706872884 11.741983391441588 0.4182706618224152 0.18458540948598534 -0.9294933877935347
Ni 7.790536317568351 3.193178795018978 8.985660098407866 1.7159275103693286 0.9416482779885137 -0.26811412343826085
Ni 6.634169516846973 7.080541680719739 3.8611927549234597 1.1340166738540278 0.9761362844630543 -0.7120906746672123
Ni 6.344946828130071 8.581854153218082 0.2744885465943382 -2.0060862723124546 -0.49860118055236713 -0.6486402195220508
Ni 2.4320204954002707 1.733690732438696 8.882241661338606 -0.8167643981282192 0.001243899709430116 0.4277143237338183
Ni 2.2345725118750024 9.175282780798355 1.5373789021147186 -0.07313040143708696 0.7126331774342437 -0.300043882267322
Ni 6.596886042862873 5.314025680628868 9.391907486075505 0.7273830820499085 0.9551375707242001 -0.08648239726396073
Ni 6.811238441737441 4.081143190202446 1.5453972389875812 0.8200597810500393 0.1385858028274194 -0.17583697386939393
Ni 2.007268334192841 2.0755754089403395 11.40897743967398 -1.0597678425417811 -0.978776807409695 -0.439836560918649
Ni 5.902913372275179 1.0969853308157342 11.475977386709312 0.17361914028246875 0.6847613907246402 2.1428694747134966
Ni 5.516419055920271 3.248745511052974 8.152029748188061 0.07080535284833613 -0.20501719497777596 -0.582150720440249
Ni 7.416626092900878 6.575385538511586 1.6264832795961983 1.253319717192435 0.6540873586795509 -0.37183088230263706
Ni 2.875892386855957 6.810742064125226 10.785587827107568 0.03975876795517669 0.6961128111817173 -1.7731625807323976
Ni 5.705897421116098 8.1051110332202 7.529904979314997 -0.7928099441951507 0.5546064922733933 1.3985898740185656
Ni 7.146394443940178 8.008519626754488 9.796769612517945 0.793098421969847 0.23887116741274342 -0.4327277177880096
Ni 2.6146690723391477 6.9278504118957995 2.4948242131767926 2.0876856304525013 -1.8714052038560802 -0.4086681057356446
Ni 7.488214775195794 7.994372864806379 6.000005752442108 0.7057081681796362 1.418987463838311 -0.741164452104717
Ni 0.039635752335316736 6.132120330804162 12.708617203636429 -0.4500384411523152 -0.012319697907617493 -0.6184801509989026
Ni 3.9691365012240754 5.995515373487169 7.18173652992984 -0.18158801742055825 0.5037498146328421 -0.2800558691811693
Ni 1.3364967208871674 3.746979943224137 12.966402643579755 -1.320281527924965 -0.2161693549398535 0.9454331989522426
Ni 1.3375170526456082 2.805471111167545 1.968542607479917 0.8031794603549328 -0.5421870355631179 0.06934239514956445
Ni 4.503459424238824 3.990223357565182 5.6296657697113766 0.26826350453193154 -0.3264187727164249 -0.4058468342367655
P 4.138042772047018 0.9657577976310635 7.6945773329493115 1.2112423284064107 -0.23223823547725808 -0.32659000818696654
P 5.245185459557138 8.334832753717405 4.868363152898008 -0.4275366605053733 1.0806390295638355 0.9789704114777398
P 8.694853597420881 2.905950808928938 0.9027895398682706 -1.2126242963556018 0.459931274785995 -0.22601102362062367
P 5.200998659892056 7.082104350980415 9.630710159222833 -1.5739630208776636 0.04966548554592737 0.1953717014682119
P 6.1603954703443735 2.5795273758299713 4.732103821473965 -0.8369843247195198 0.21804831713012127 1.6300770902624122
P 1.18249097060866 7.451059991703747 0.648712224531747 1.1991838545799798 -0.7442947702035827 -1.0512189245305057
P 3.208483771395587 1.5747947434620768 2.7766784520057115 -0.5353823539364586 0.3234190666581527 0.5670262060939847
P 3.1647290040966913 4.187551842776399 12.018187198451466 1.3905235520706631 -1.088579881677467 -0.45467311171084923
Ni 4.7738289558695834 3.04760227197011 2.3841402786131933 0.03161505580211974 0.3441100193486009 0.6578689372091703
Ni 0.0913840376264643 2.073185442659307 7.481215850863571 0.8191863773061504 0.22740019065866643 1.1318168379892313
Ni 0.5087328186694968 7.473755479195549 2.649043221984992 -2.632861059219982 -0.24825235151732727 1.236118265712484
Ni 3.4803608202189973 8.605726239494391 6.338877232994051 0.49271618252649985 -0.41303203913129516 -1.1348759365305294
Ni 1.0813586282089858 4.88242534680848 10.844312975503728 0.03326261870787175 0.014016368883750054 -0.49298666257906715
Ni 5.075249664797752 6.108294205417874 2.3365679997892492 -0.6565887849451659 -0.7115463721279681 -1.145230540291976
Ni 5.900100565805965 6.264634768909389 6.02742418099235 1.254531735222665 0.1794645433196522 0.8901714502654604
Ni 8.620001691934556 2.5694067878476012 11.821979239738933 -0.42454749597006236 -0.3737352984142015 -0.5753450103723252
Ni 4.307518957906207 0.4993374935316394 9.852561536913038 -0.28130362554534133 -0.8365577787050624 -0.45558765310531857
Ni 2.400362634354599 6.008274116556679 12.766387284737977 0.09571497160582226 1.2063587750618643 1.3380311385989019
Ni 6.479419200150144 4.777413905291131 4.404143456212734 0.3137334639392726 -1.2670650918029853 -1.1324644988755592
Ni 4.832778393409041 5.71064977714415 11.788236592721962 0.29266353064285083 0.1636489164436343 0.7333871221521434
Ni 8.99243197594339 0.652526059185594 2.275569625772707 -0.4785494041078146 0.8938681823907574 1.4411226051744537
Ni 8.86111252097868 5.759506203235248 5.530566737086181 -0.2548078932476579 0.4595188698389247 -1.2774140391374773
Ni 1.2636487102057081 4.556057066777538 3.5502921528197975 -0.07258095669152016 1.4424117562995222 -0.6142103199789551
Ni 8.442555887745927 6.725686841054494 7.73616274623927 -0.6385848921685776 -0.3981746624034885 0.39102056785721045
Ni 4.199400560223515 6.393316068786961 4.592037089920676 -1.4687645352614382 -0.17262515180031562 -0.4661929394249906
Ni 3.1003377971788844 4.484541921906654 0.9934143035916071 0.6451841426526501 1.1684321752194198 1.6638554722644376
Ni 0.41324815043546165 8.301897179929183 11.482488206389524 -1.095953548433719 -0.9667049638468254 -0.5181330799377076
Ni 4.225405231796746 4.8753657541014315 9.63001063447673 -0.28618795022083615 1.3561399323844707 -0.929583890624812
Ni 8.578103744592463 1.220601740613118 5.461804649527486 -0.5955060587012325 -1.6258316847224967 -1.0335449042895102
Ni 3.366285891189734 2.2917202825256817 0.5658346284301563 -0.5447509396355521 -1.7572500232671993 -0.6934386067836639
Ni 2.106222130405574 5.59966341992422 8.626164128068417 -1.0940509320943674 -0.5641193168598349 -0.43990032427704884
Ni 7.124057451390531 4.558869873246753 11.702523209706147 0.5019952938355806 0.34034155344510414 0.27203042777353154
P 2.1711556758256156 9.039266122873617 10.397341481625102 0.4772273428622814 0.49279640094513194 -1.0042795796664896
P 1.8093515495893704 7.177298546389523 6.985044143436498 -0.5361230887572251 -1.7710553045814077 0.5275479454937044
P 4.381120727183991 0.6048269283051951 -0.2835428419282483 0.7688742593151597 -0.703330411976079 0.04621455088284944
P 6.1583731911835 3.169462975768736 10.305466581693226 -1.214568050345534 0.06959770569348013 1.7120235473292322
P 6.947199946594155 4.894871555825855 7.2057648832322165 0.5883110836146901 1.7364739670621123 2.072916956783759
P 6.080929091500056 5.870271948183083 13.613242421452092 -0.7709391122639884 -0.715921104156896 -0.49763650264625264
P 8.27243624942646 5.481856466625346 3.3384096921748956 0.8962796200457274 -0.5300874240861063 -0.5130587507385937
P 0.7464370265453496 3.377224583014458 5.5295978815245626 -0.20602301053447097 -0.8792249785562857 -0.09166676967837761
