# total energy = -381176.76457011455 ev
CRYSTAL
PRIMVEC
9.12433186776886 0.00000000000000 0.00000000000000
0.00000000000000 9.12433186776886 0.00000000000000
0.00000000000000 0.00000000000000 13.35438199007932
PRIMCOORD
 96 1
Ni 5.603160832104237 8.009028108180898 9.058156537076515 0.04868949478590324 -0.5117657429587831 -0.755228643507267
Ni 6.212447203360229 2.4911341554852395 0.165081970647374 -0.4904764945627037 -0.35958780326922585 0.27501779253662956
Ni 8.433081422307563 7.536570214571887 8.120078524008177 -0.3743348796714134 0.5669236190778495 1.6927585284520332
Ni 4.802026263261858 5.716412036729093 7.827136381307261 0.2921117719044388 1.4231621640412908 0.5679949977651573
Ni 2.1663991915311125 3.0513681197106792 7.730290725015912 0.7872249939082054 0.08064984974258368 -1.8827532818790478
Ni 1.9967778658804463 7.9957339569451245 6.567818023312457 2.0075623426373492 2.4803352492727027 -0.6185493136739413
Ni 7.270303967926499 4.832163930751054 0.9664154499200475 -1.0449857991366003 0.6676566127235534 -0.8079095188407506
Ni 7.086229700918617 6.25976598737445 6.814487030407951 0.8119111838009759 0.6936622927586957 0.9676711844148367
Ni 1.7952305037342617 0.553570464810556 8.25354194813714 0.3236784909671264 0.28419611660178795 0.13783812602811746
Ni 9.082159003954226 4.054068299362572 7.9724459252367765 0.39042227215157926 1.2376452438799717 0.7151916821900393
Ni 6.518586779381271 7.718290404010223 5.005262539199218 0.15271761424311117 -0.030486341514315236 -0.4736599372259972
Ni 3.5814917894419174 0.059221474671094704 10.22860207978877 -0.43714281613656975 -0.8334585709544485 0.8980102295835889
Ni 1.8575131916789336 8.488046396256978 12.527411747574714 0.4359012304199848 0.8757326491323112 -0.25338427342725395
Ni 8.338781454550725 8.326317617496459 3.6920321551291284 1.606787523606852 1.2662143137669162 -0.5575306078987237
Ni 4.227384979337526 4.1814713423997025 3.5068073098983006 1.331664572950926 -0.10171489794299902 -0.8218994053619393
Ni 5.438411899562631 4.6394580459881665 12.34553826936441 0.14658116232807014 -0.6455968047100366 -0.3418322790580177
Ni 7.683608819351902 8.517262506248018 10.464893984481764 1.631589156031564 -1.0608142815284247 -1.701312331559315
Ni 3.152201108939593 2.2099587508993905 9.6373764106303 0.479967881721896 1.0931016808072205 -0.4656116130002239
Ni 4.648792237281369 1.5490925327416647 2.06363914345457 -0.42204992635918925 0.3591985382506072 0.3751020968547411
Ni 4.014559943253514 7.371328568120377 12.433997752422538 -0.5696317620376318 0.7717716354676128 0.0393101104535323
Ni 6.38863804780963 5.7569696909796155 3.1755520985364294 -0.0069327225640912855 -0.10556486781670851 -0.12900407267625524
Ni 3.040190813421165 4.885887995594041 8.836754629227487 -1.6618836932500476 -0.41535528794783305 2.9070910657479936
Ni 8.502964678529104 0.720687161419205 8.613549753441474 0.00751893408486447 1.1350816247834323 0.09481045751368188
Ni 4.815393409150951 7.9160055468571455 6.808090873910849 0.1182190662456093 -2.1926367759446106 -1.8873635269575497
P 3.5044733058584163 6.530129058937381 4.8888789515137985 0.5555426309344174 0.1333212119943704 -0.08893394412824683
Ni 5.651775271214874 8.550374705859975 11.17009897993195 -2.8021337496082968 1.1809519049529855 1.071304125316155
P 0.9773254132917797 6.321975680665802 8.53023183127652 2.620126899482765 -0.8489746643121765 -0.4167722229000177
Ni 0.5897794625895827 6.028199574050713 2.2321983968994408 -0.9862502329686047 -0.19996857681027497 -1.7749374132446336
P 4.377799586833558 2.0969082815711624 4.309899960315969 0.7693640544673847 -0.30281527436487204 -1.735542713497095
P 1.9708008936304489 6.591444567725572 0.4367187989107269 0.3763837917806421 -0.3124581967712748 -1.0094814355824033
P 1.007417459122651 0.47832027670371496 5.022543110939389 1.8509970725133733 0.7109385633406401 -1.8070836589598749
Ni 0.9885027195812938 8.24703629966006 1.3803754283589909 -0.9940123934125269 0.16019361090518217 1.375687001278463
Ni 2.2037998270255765 1.9293399305451004 11.825384756843418 -0.7098864679270419 0.38407704665984177 -0.16470589695323892
Ni 1.909850358108854 2.539629978284233 4.045976842042131 -0.5372831705035973 0.040693878174936374 2.6518985354674074
Ni 4.771277265551113 2.716477774613508 7.284227698047151 0.02216882278755537 -0.5740987966700499 1.6833045821279848
Ni 5.282002606162754 6.371666790912899 0.6005963577783329 0.16599042009261736 -0.04814647779823966 1.6713232413963923
Ni 9.093883770143634 6.021730422900292 12.693232789086947 -0.695992226443453 -0.4589804808369515 0.7406764567247051
Ni 7.024412353888855 2.8990921485550056 2.4015715407288214 -2.0858107820272918 -0.4340508074748073 -0.20802435723521595
Ni 6.588944500849387 0.7652476599711231 3.3607906302647548 -1.5757504517953895 -0.961803155669834 0.5101654883511988
Ni 2.6593868313861697 5.617057189229893 6.758932624632982 0.10726590966821525 0.8088855096007747 -0.7234845183264508
Ni 7.755034087624813 0.3166343823020203 1.3780386870196073 -1.1115501173203952 0.5655614486230002 0.30818965130290793
Ni 4.871571919211798 2.2768309776715117 11.24265292803181 -0.12142831721152635 0.6076146690393084 0.7379729417506129
Ni 2.0240596175585255 4.870358383100364 3.491142657295984 -0.27088397287391414 -0.22336510135734436 2.044594198579666
Ni 6.098101078935584 1.5578792641349724 9.251742007411899 -1.018133969051079 -1.2064811595723415 -0.022436217516329102
Ni 8.050279211637953 2.2017924740592965 4.469938912852147 1.290673732360861 -1.5966517207244308 1.7188624246279363
Ni -0.03948737014622858 1.19942077034734 10.958926360312452 1.8307894872172468 0.5134444162127867 0.3824695929634058
Ni 8.622064579751168 4.078302524264571 3.3370865290324865 1.381691812711646 1.8786883677810549 1.024882857739138
Ni 8.061018550007551 4.272167199148902 5.829601195898627 1.0186469041317552 1.0458082950378955 -0.6438757082538717
Ni 3.283208262984363 5.107226033121414 1.412439242262649 -0.9721994113024933 -0.4249154208324424 -0.8369899811464747
Ni 0.03173442553055503 1.5573591772300726 2.63965363929447 1.3379730316674572 -0.4902309542108008 -0.07337928422309944
Ni 3.575478854874742 3.6396046578157257 5.683905692739686 -1.1280419443278316 0.7102780469385058 -0.49727551976240814
Ni 2.010099390111214 6.42093818190341 11.424179681638849 0.9472144592223816 -0.8896580009641516 -0.23688447600001783
Ni 7.774249930111113 3.0740968298879685 9.654202590653558 0.1929237541483516 0.5051657211437622 1.1612914504095806
Ni 0.34926937936790187 2.2837745940685075 6.404480624879413 0.9774429190896198 -0.8968578611467006 -0.7392718630676945
Ni 8.213039039876607 3.0511947574090454 12.24133383958531 0.8868107613233437 1.4679672361711236 -0.36898775642688714
Ni 8.652777080135253 8.985933802216092 6.2481945099570115 -1.1669561048945258 -0.4071215871841311 0.25684549250297706
P 7.479634384982852 4.817856978700476 11.270136327439683 -0.4151519136877753 1.2424076982656216 -0.7794576912579608
Ni 4.560687690725003 6.044523003399235 10.554902779056595 -0.47531572766186525 0.7521363777351885 -0.44460647150346655
P 5.839855119823652 7.891935559925114 2.517888520793087 -0.6592084819562001 0.48346895289661895 0.014614407479065153
Ni 8.938313915256929 3.4268069947267077 1.1259142420216635 1.1613030203738064 -0.9057752182409884 -0.721403724538022
P 6.783283640980293 8.852234970330173 7.437656072292103 -0.8189647482136476 0.7800932679594307 -0.31375660386772414
P 8.924098206523 1.3459666612174508 13.357052553404602 1.0205307514180295 0.5618184366408002 -0.4302268057430268
P 5.149818413333212 4.128896943346494 1.4579641826715481 1.8290555352452758 -0.2633154164980368 -0.1253973291616034
Ni 1.068878957217481 8.360041147329964 10.307926281983994 0.5886522690041927 0.31106388752690944 -1.0698105714897639
Ni 4.239976557035102 0.488900851702344 7.930459400647528 -1.3859346471484002 1.9001578505087406 1.2779411152855409
Ni 7.427707813477852 7.2104757251996885 1.1299380722858885 0.7582103518434102 -1.0080040797059286 0.801402313849852
Ni 4.361676892781664 8.610339813561758 4.4362856403724615 -0.359586003497013 -1.1501207785047418 -1.68989303397878
Ni 1.3114128172024386 4.100939991125212 10.824807809169949 -1.527548952389498 -0.6963665790637362 -2.862484225671896
Ni 6.196798974554909 3.248973770577623 4.940960636657101 -2.388608315780351 0.13973174350640452 -0.18732800522812898
Ni 1.9477528318448878 3.067974403340814 1.9644959804499966 0.5327102064209341 1.681836996443523 -1.0328856734389567
Ni 3.026568186245455 7.01338103690598 2.6436865938903598 1.4209924100834819 0.059077522888446636 0.2508201122445035
Ni -0.14160962743939448 6.423356129794611 10.27355218730278 -1.298437692576996 -1.4589799450708487 0.8167237746982708
Ni 5.468932788981753 5.512966813596607 5.53231952105788 -2.3383185663868633 0.4100156209024745 -2.6287532076991953
Ni 5.677350772871615 8.865638613545924 0.25892572182096757 1.1337760185981314 -0.6252832899636651 1.1033233585352287
Ni 6.959739091047977 1.2210819337198353 11.596370419086353 -1.455361631591971 0.3793161349360886 0.8839609505793743
Ni 3.2004323261203047 1.1422659567983475 5.7144731162503 -1.6573894049241198 -0.5830446930094281 1.6904555913504695
Ni 7.22941783773604 2.281739868107233 7.145983124125775 -0.2829473317963514 0.4348403932556382 0.12368291757365794
Ni 3.130594691557088 7.405763795823745 8.619945909938576 -0.863859551843809 -0.2405722092642502 0.3377887051162634
Ni 6.676601955154172 5.902502781034921 9.351632453179828 1.1634822874133124 -0.7261196419564526 0.6011092638206228
Ni 3.9558722419848165 0.7656509554307122 12.704423781873958 -0.2417592875938159 -0.23014150084922946 -0.4779297682459446
Ni 1.4985254866547364 7.15743598523157 4.205548628797065 -1.5851923139345796 1.1522735631816865 1.1042607827478337
Ni 3.381422569025448 8.716291552854688 1.2636232176743092 1.4945498717556582 -0.8678452759644344 -1.1316098641847478
Ni 2.390556647542943 0.4390172180571176 3.131802753069522 -0.6807633253088405 -0.11520264801678869 1.078942101477387
Ni 5.64658352649754 0.8801667924243245 5.811813311317886 1.107840786789608 0.4999674647722745 0.2551732470068767
Ni 6.876607305248987 6.936882640227378 11.987186530257256 -0.12929486444379668 -2.4782619116834415 0.6066175952333617
Ni 5.14442593331925 3.954713451863373 9.535362732883945 0.5072421440568167 -0.7458672568970252 -0.07975767694561749
Ni 3.745008937208759 2.9845141416018874 0.21497199132476583 -0.42396539821434726 0.310263246002485 -0.8264991089174798
Ni 1.5113086753172746 4.257677760465026 12.979377304697506 1.2782859002194693 -0.05925415767562697 2.134085300762963
P 0.9318406199422061 2.356787496051113 9.332308943579884 -0.812853235999271 -0.022705412017315737 0.15557770939972562
Ni 1.836107509593056 1.2207808307748933 0.8443026943822314 -0.23002065900064902 0.28171885870588903 -1.350448024206016
P 1.2827167941162987 4.296629532342524 5.699142414186919 -0.36836966322691395 -0.9764844118310925 -0.2895972330127013
Ni 0.49973599555442394 6.5300743129473915 6.348780229797807 -2.8342200886198805 -2.8509325162785544 -0.8343443159935114
P 3.35252581064268 4.297003629940786 11.290382306970951 1.2027939405287416 -0.3219705071370842 0.09225478097136369
P 8.408600840450612 6.257676515423185 3.9357102063048663 -0.06349082146479387 -1.1583477944002245 1.1062626436692107
P 6.135793693043325 4.329513623662858 7.151458635557887 2.117877323544533 -1.887416491682672 0.33952291419855074
Ni 8.560283730048065 8.362386100567845 12.817482463100685 0.2584562886335226 0.876462071099168 -1.46448879070422
