# total energy = -381175.0430681733 ev
CRYSTAL
PRIMVEC
9.18428559822877 0.00000000000000 0.00000000000000
0.00000000000000 9.18428559822877 0.00000000000000
0.00000000000000 0.00000000000000 13.44213033482608
PRIMCOORD
 96 1
Ni 8.85518482982383 5.8123300742122375 0.8507550445952923 -2.8815844368364565 1.8220546784474103 -0.24571672957966717
Ni 1.2250826353374167 2.654286012043118 4.198675940020747 1.226504396771804 -0.9480374693443093 -1.0994479347402226
Ni 0.3531477103520501 7.149846730509409 11.77638086829433 0.09808167206578593 0.7902162153260456 -0.32651184665086347
Ni 4.305262326513496 1.2797199487412376 0.37048764104736265 -0.1778648029327001 -0.3379954218104308 -0.5236619801757368
Ni 6.710516441944644 6.86609823536551 1.7963258956096513 0.02518292702353082 0.3620491203255249 -1.2567099738209069
Ni 3.1835488225191635 1.6173801987482108 2.639469922955364 1.5164101621638593 -0.2557214062008628 0.3060918882336148
Ni 3.412081394283709 3.8404272775986885 3.7715120742272124 -0.2717280660417643 0.026529670859412376 -0.3987937840447261
Ni 3.498018752078221 1.4809200873758837 11.173138639518102 -1.9332109243089672 0.3656088126523252 -0.45805771191236594
Ni 3.3894972366673035 8.606970334605867 12.510765507239183 -0.6528033497608048 -0.103280442657906 -0.6926449072377749
Ni 6.033680534851924 2.892012053418896 6.103977054736416 0.6617204497447765 -1.3995990320093703 0.6123976922502485
Ni 5.999358860589009 8.863818058030184 7.63026383790815 0.11445394277622224 -1.6202770734528544 0.7063198336217061
Ni 5.443479991238484 4.623580471624109 0.03325170502244651 2.109527923138573 1.629127838975265 1.6471196475669956
Ni 6.482314504451832 1.8419267906813126 8.475733326298384 1.3282290649068156 -1.3475761019748598 0.7595858920346983
Ni 8.350343034029372 8.916618514368825 8.261116783659652 -0.037735309767244686 -0.36754588177403796 -0.3900882858509282
Ni 9.214593467482553 5.977757421502475 5.7057675668613355 -0.029152196083923988 -1.114194496921778 -0.5074012953425002
Ni 1.488285884207261 0.10825884485059686 2.9778887949302573 0.3372390032603805 -0.053523168729120725 0.07826926532554908
Ni 1.5855107286673134 6.990710618667416 0.3565018113530713 1.3577468718602745 1.43685251704419 1.4731647212116628
Ni 5.69611212769821 0.32628459420230455 5.5109376485287385 0.34639547294866796 -1.2582652341231684 -1.057407826950037
Ni 1.865484482542264 0.4525896412897762 0.5419490637967215 -0.2441822952130117 0.606140398486627 3.031901926278507
Ni 4.189026011428817 4.281126024677013 6.616727438625015 0.5254301278197531 -0.8538029389387554 -0.1364859828755972
Ni 8.583164667041116 1.0705570347290303 1.922170810002295 1.0741081704238533 1.5676283369088873 -1.3036133232406646
Ni -0.18878849544521514 7.7681787400761015 2.7967563197327183 -1.029843287068207 -1.2389400514319953 -0.011990853813289027
Ni 2.621727720562777 3.0046297600851686 8.558778552643767 -0.2778930572018956 1.5027843438503086 1.1453760647309046
Ni 5.208656184025693 2.9067895685082803 10.087283340721708 -0.8097573706827669 0.16196098721825009 0.7960940142630611
P 8.827503393851547 5.199113711572076 11.23602068585899 -0.7152695866158263 -0.31650639869871944 -0.5892814179477592
Ni 2.0366611924465197 2.710833656794727 13.030464721405362 -0.9342581561720297 -0.42531368471212555 -0.7190154268115037
P 8.382827851227105 1.3835391100652912 13.010651462671783 0.6487872866228761 -0.3234951713117267 0.18037779916254099
Ni 1.6727430706927784 7.6188606292475045 8.562515638342878 -2.989220328249581 -1.2650197792381825 -1.1048094561624522
P 2.3181319848295936 6.753847900112273 2.6618639658655234 0.30515754934480344 0.09527274186208108 -0.11916497509864639
P 7.299072998484746 9.102664582215723 3.0632870351761388 -1.031190802235037 -2.298448726775119 0.24492482980599106
P 1.3414750832726368 2.297522448558258 1.9974332729625057 -0.9831304563927004 0.7097172893390293 -0.8694157057753478
Ni 1.114467102872192 2.186245647549568 6.610369157893889 -0.5986777715609948 1.7274349967882958 0.8086703082661749
Ni 8.788020151235473 0.7043942736416374 4.4583515048969105 1.0724251262944757 -0.778614369421059 0.7129627928595205
Ni 6.927752342758324 6.582909981626492 12.663077695084025 0.5345801697501373 -0.4618513746268433 0.5521510887543651
Ni 6.933823155358748 5.199986218678037 6.1781640378849625 -0.5327145772963083 0.7546275195881584 0.35262885545288947
Ni 5.697471401926443 2.5931554089138804 1.9757243777376592 0.08142837977982105 1.3808142952026994 -0.2047749970599828
Ni 8.162395819120011 3.579226202929892 0.5747195122680905 -0.24386630663448966 -0.5616456585083617 -0.9964438856721547
Ni 5.577129711301083 0.7435579031283702 11.61546576038471 0.15222550509804106 -1.586602821128861 -1.257760526572608
Ni 7.067996379684925 3.9312323066159314 11.378991537098852 0.2881360750861425 1.541809061852938 0.10941895145547607
Ni 1.3281946066913752 7.409716083805948 4.629684347651707 1.1869783136527234 0.1426723141919672 -0.9216890612577674
Ni 3.4640001592310616 3.3688785161106423 1.1010112064412056 0.9984362335118352 1.5358939819200839 1.211511008686765
Ni 3.015715192473538 3.9783476903378348 11.034590940091196 1.0695902279488418 0.42594797586201477 0.0832392077363147
Ni 5.513381586853963 7.4975178515216205 11.062913439179228 -0.765495572650914 1.849490663171176 -0.26011593572413266
Ni 3.4176470711912086 8.746966395828668 4.345450922242601 1.9158400371306874 -0.8196959699527174 -1.2101136141186064
Ni 7.907779877029888 1.7698668880142456 10.799366698038195 -0.22477817965478708 0.28292290631631917 -0.3423169320039201
Ni 9.129501063938022 2.041657443663813 8.693724175365853 0.1261033540896925 0.2656435504105812 -0.1661529138124106
Ni 2.9781422812052525 6.115558438532386 7.30551577464087 -0.731830833408617 0.0679642838551152 -0.334302803450192
Ni 1.6081959134223038 5.472483964297698 9.805697744772061 -1.3722111269147206 -1.0296782222452525 -1.023249435900773
Ni 1.1259750123855536 2.7218180620445125 10.768208091641522 -0.9715743761239848 -0.26027431567886783 -0.6178098644047554
Ni 4.260957334101321 0.9288251435796326 8.662028288277615 1.3949188529248815 0.7028375315000606 0.8501720270543874
Ni 1.2439655259674816 5.082271233655885 12.531036143381995 -1.0782982972458008 -1.836548244077895 -0.8861399605085643
Ni 6.582303818794982 0.23752490552714092 0.5379658392508756 -0.44666309692217915 -0.8014177404688198 0.25573683281983056
Ni 0.6105391434676606 4.637090555338518 7.494552245789885 -0.18905552944219697 -0.7488299390697749 1.2263856118057523
Ni 5.119182876380706 5.355678223522812 11.056984983001355 -0.3864995400584053 -1.5231914467517509 -0.6129839037710217
Ni 3.5152852084909267 5.991965510901653 4.705309589882291 -0.04789425257811751 0.6630201423928065 0.37076464582165175
Ni 2.0469384077262096 4.356767798621183 5.864008210884052 -0.23788103558533225 -0.3934376619391353 -1.7156053511432197
P 5.408001097024505 6.9436962620840985 6.043258826018312 -0.5077648493295062 0.32331082321506255 -0.29867939781962755
Ni 7.495772837309698 7.747734520940631 5.798733658215765 -0.0968107757731623 0.30928211303613834 -0.43241892829833917
P 0.45094198050230844 8.005647621462755 6.496998339830892 0.09613071898700218 1.1388009826165486 1.0160238646866115
Ni 2.1354932868386056 0.5723637430819953 8.348772521238642 -1.5034471742452882 1.0975157507145163 -0.6744170713758385
P 2.5796269566288195 8.705738139000673 10.36858697911185 -0.5121583504115115 0.8413688269404608 0.8841375853665547
P 4.089174461365555 5.088709417669346 8.84782454356365 -0.027543456835907403 -0.7184487556747562 0.9146120998063281
P 6.661187645459197 4.598369608404494 2.0552207962331126 0.047976013658646406 0.8557618624373391 0.3057309053497702
Ni 4.4931636199962295 1.8962518383840528 4.580392288307564 -1.351955204879162 0.9323884499531426 0.19174876000364396
Ni 7.693363551811262 6.735020115194164 10.093479978031096 0.19213879635321104 0.4498186118320253 0.6046257616143136
Ni 0.4502669355308543 9.23167623818874 10.02672675542534 -0.13904397341076055 -0.378522949610832 -0.26106004480495687
Ni 1.7693250151800173 0.4645971759248671 5.483018339566514 0.01748967214433117 -1.0522458231331233 0.732984487397086
Ni 5.791628695087643 4.124267615595846 4.273561847282596 -0.3008272974005658 0.5767552604562906 -1.8485799784314487
Ni 7.6102274010411515 5.829164869214624 3.8690344895318236 0.17081920893982838 -0.16387697329404033 -0.456596296875491
Ni 7.7233043219737185 8.786339427020833 11.742560656010209 0.05359104585257867 -0.5446054151966233 -0.26259242228908325
Ni 5.291443331953419 0.45407474022697536 2.6300202117835383 -0.2861882073311523 -1.3657748843710737 0.855309862501585
Ni 8.418655748283468 3.596667160763789 2.896819108358476 0.1767080636204376 -0.44072436284024097 -0.04175908621465711
Ni 4.406913996500635 5.624952284993082 2.165419362144541 -0.5931445004475914 -0.3037483277021027 -0.26462230823491845
Ni 3.7742453175402018 7.466612731399942 9.166806712503325 2.4581291454893086 -0.12739790453139996 -0.37312646118560905
Ni 3.5482108713843035 8.347624485572904 1.5491923907745464 0.40070617057609054 -1.2704203814284638 0.7539978564239596
Ni 6.011427011507251 3.9891300413104496 8.173930363060817 -0.057084660828133946 1.7374263036730528 0.8094393252217156
Ni 7.758112763358907 1.1452344587139807 6.58621356905822 0.6305028864913916 0.8380269070514214 -1.0758704045305987
Ni 1.172493417561273 4.477265622097084 1.4218816644438879 2.475681552550775 -2.3229991624209734 -0.32217645250030325
Ni 1.0492403084876 0.47738537481266 12.062779029754752 -0.6146054985348448 0.9073592748986566 -0.44400791868751915
Ni 6.900126012497996 1.801176116690263 4.009935202859227 -0.7579383291289463 1.5445089772826044 0.18833279234355954
Ni 6.3855029528314455 2.3409457495791464 12.849964125038246 1.403099588963461 0.2974231568150233 1.6345392397988237
Ni 8.521216662517872 6.639071886394413 7.849061067227234 -0.13685236507608042 -1.0069560980573884 0.5957189460429869
Ni 8.61737612988012 3.569968443321377 5.195074462885741 -0.8586535821628374 0.46585561069022996 1.141149685354383
Ni 3.2586946450557353 5.42167649787478 -0.23297592900521916 1.8865418023872027 0.17857597006711182 0.7270753210015026
Ni 5.951407706902448 6.385998904239044 8.57793421654801 -0.34396629468188505 0.29978368662739985 -0.735777733871507
Ni 8.697352886498118 8.238184541629394 0.512904679882073 0.31797218461096854 0.1139446072399715 -0.6826186333500244
Ni 1.153105391238283 5.0349905327981155 3.586924470890067 -0.0686224862644044 1.0911702681124629 1.4343307790636006
Ni 8.288450135218085 4.360009851341228 9.332722663772902 -0.2352680234425174 -0.19515650013361227 -0.22960722561231425
P 6.555797971344415 -0.25613594131155903 9.724198233647027 0.2862568557855586 0.2667144148772568 0.6187015229810894
Ni 3.8248966511125797 8.404557870308201 6.760557938971381 -0.3496232358573462 -0.17683430478565673 -0.19331147650507355
P 7.968331870183594 3.331691344826045 7.267017087411733 -0.03047451443977332 -0.18040016776004414 0.4425449609887475
Ni 2.910187754078866 6.61580809166389 11.23208246431124 0.22606270279416552 0.5078147287308351 0.6283287616582083
P 4.578853002086942 3.1731705801008885 12.39969259736473 -2.822079082381972 -0.8541533802996386 -1.6152066009084827
P 5.046544363738106 7.708242094039232 13.38481281784951 1.9490818299029526 -0.5097078319884898 0.4969626165076796
P 3.3439891028774342 1.9714711352032315 6.901297008877049 0.549223373584609 -0.5843675255859098 -1.5921142378653936
Ni 5.332717510208045 7.116966989042662 3.649605381382317 0.5865689041126028 1.335043773835804 1.6726612434815256
