# total energy = -340891.1764452821 ev
CRYSTAL
PRIMVEC
9.09468743925345 0.00000000000000 0.00000000000000
0.00000000000000 9.09468743925345 0.00000000000000
0.00000000000000 0.00000000000000 13.31099437244473
PRIMCOORD
 96 1
Ni 6.437355990525636 2.1588877428070683 11.279443828655895 0.7168397593164235 -0.34566605098181113 0.28684486707854473
Ni 4.893250910204602 0.48295426266649305 6.1209672852775086 -0.12296455135039466 -0.5176571687425537 -1.331222600317501
Ni 2.7522160382880934 1.5241968101328345 4.887198395901154 2.4448797366785704 0.12093183719108205 -2.240651613260993
Ni 3.5375331796681126 4.526880532743917 4.589750286127647 -0.5329943133202563 -0.39005820394394114 0.7972103872556916
Ni 3.750849066951907 2.8236820899732797 2.4867202929057255 -0.24986366186850517 0.20108494980290528 0.5157594374992085
Ni 5.272754015921001 4.701862313658015 2.368531195416584 -0.4676368709603689 0.2046415568059121 0.5767529464634454
Ni 5.20624456873676 4.371370477034447 11.525550610486766 -0.21820335465074678 1.1900618376740537 -0.03993257452887962
Ni 5.739302372423724 8.025406599192664 12.282573270650474 -0.799710527969726 -0.09511693301050715 -0.6947966634734549
Ni 2.193647637123788 6.502965063681265 0.2531688064088245 0.09954668664708663 1.1444856917061517 -0.6135665157473691
Ni 3.027748680417696 1.8877387398874756 0.13374465040366748 -0.24386167864879937 -0.5131999043021485 0.42209697754704084
Ni 8.019631472847527 8.546504889267256 7.247529821376358 -2.407800315327769 0.274626727745798 -1.5680219728028804
Ni 8.95017257876166 2.2589111121674246 1.1252383496486882 0.020514575013584023 0.707265228254111 -0.2147177100949915
Ni 7.066944803704401 0.6048840049835957 4.4486935072491915 -0.37433873632615533 0.2465014302644916 0.9313245274650025
Ni 0.954778447189396 7.589061698740656 2.1916149745440427 0.15727129505206464 -0.2662701282509866 0.32539753054076215
Ni 7.664229288099024 3.837857938989598 3.648104567193967 0.955528892625348 0.4798539818518509 0.5397730268049866
Ni 7.842203221088007 3.896755133022847 12.709403309398098 0.7994382481449458 0.3269142242956047 -0.5716379938343833
Ni 8.342720234124728 7.2812065384525955 9.23953369271454 -0.3593078101349618 -1.141631510086808 0.04303126805886138
Ni 6.830337422609744 0.9030251299185186 -0.010891797340058492 0.8214530618531403 -0.24520790826404865 1.1101966886162946
Ni 1.7498723772639397 6.64387814650263 9.108193677595368 0.7273409159580635 0.8694005362666962 0.01554668948534742
Ni 0.38781292137238826 4.89961719121499 1.3561770122379526 -1.361276482280088 0.9790015218259913 -0.13233030883601082
Ni 6.750777099354206 2.1108768893015832 6.714278300852935 -0.4708587203317762 -0.24858813759019122 0.6956875507188406
Ni 3.562016077496634 4.515630404729844 0.2557998994035464 0.7487214385163686 -0.38697853657735287 0.20755847334239091
Ni 6.4489244325902275 6.00454892337797 4.437765331160501 -0.8471306691249024 -1.5300115549973778 2.1090880073876774
Ni 5.3876017253484045 3.205813560278255 9.389775196153556 -0.47619684471523793 -0.8930469720410427 -1.505837785964652
P 0.4000189010067341 5.749806736090864 12.49226128722706 -0.5856569338212946 -2.4173519635719463 0.5720264875220535
P 4.064324743903423 6.3290382664774585 12.280922584931352 0.7497174838810508 -0.4118984397474842 0.992047299266356
P 2.6891716669109345 8.758411100041608 1.201084402669022 -1.1517138340234747 -0.27081918107424974 0.8222858421670807
P 6.5449097608525655 7.85881921452512 5.733258043338718 -0.3818093336715876 0.22145194349503153 0.1479047662355001
P 4.828915093251049 1.1360992250524105 12.446617780788726 0.21456627211879176 0.9572417615513965 -0.4307939911004065
P 4.122066912667644 6.534459965308372 8.057250736806626 -0.31964057345232694 -0.6640894641975853 1.164421254287814
P 4.835963475798264 1.0096194107503118 3.7676633245690576 -0.07853460317179378 0.4242057963599275 0.06783701424863156
P 0.2124227890049083 5.756764171766504 3.5975753948145153 0.8597743260308419 0.16688464977211256 -0.8805624664207867
Ni 0.8388784824578467 0.22778098720811202 4.346345535851327 -0.7449367746629558 -1.0069147032964918 0.3426048955579842
Ni 1.9444623036900348 6.571548099537463 4.821335580973824 0.25473821635198707 0.36677480793596834 -0.7515604506270606
Ni 5.941941096984381 5.804220249355368 9.236671594666014 0.9256400754857155 -0.6885668805136593 -0.007798927219128503
Ni 8.665954510396455 2.3123969673418436 10.046352493472787 0.7533756494589283 0.5368602240335657 0.09486753600386241
Ni 2.5737418975054385 5.643471653843066 6.980085994004811 -1.5119354142219572 -1.643089700471996 -0.4590552999389449
Ni 0.6180813055181306 9.058372071876786 8.787798762654274 1.4008892115757035 0.5634078926151072 1.5565512531591192
Ni 1.554491213055125 1.2447352631511068 11.388766515634998 -0.4820473899587441 0.9223956004064888 -0.1725858139219479
Ni 4.30472460954284 7.03961526879552 1.7340494405469777 0.3082930096499916 0.8187433762314609 -2.6815955483112077
Ni 5.572587662135971 8.132769381089282 8.11758943875437 0.6185914797657862 0.10308169638353859 -0.531442395452104
Ni 5.19513995571721 2.929462396304459 4.902159156275566 0.2505349769039169 -0.8261633228446158 -0.13785355264708518
Ni 0.6807155065044773 7.3813754228074755 6.782776756118564 1.803092792632927 -0.7058392944408618 0.036598367949324064
Ni 5.148911660894635 4.718451023033656 7.061695350276978 0.7704022659239118 -0.05399753726237798 -0.23960907402003254
Ni 0.8858789162201114 7.3689066067142726 11.383003212383164 -0.048446268426845594 0.4242806154619209 -0.4986664865726637
Ni 4.781586341282392 0.5105711896895572 10.210809902408 0.5528995368846156 -0.6802827861279961 0.710778383613692
Ni 8.478958647747037 7.449867511792095 4.686082121970695 -0.23098199447265383 0.24954433085587344 -0.10573790305946307
Ni 7.1322173734351955 6.128072964353818 7.075419233197944 1.0624698148539766 -0.07333660391062209 -0.7972499822443753
Ni 2.553460745143773 5.656222405238157 2.4460415761867766 -0.4311531742120381 -1.0028857846427566 0.7303912727486132
Ni 2.5139443294435777 5.3325515839828626 11.109182190376641 -0.9549347106847748 0.43719295264821484 1.5017947262435296
Ni 1.307461320477746 3.779815645549173 3.5606109483307695 -0.1732008217981275 -0.6054248604768413 0.1879864647477343
Ni 1.7270901859339074 1.3075340779750078 2.5151120872746255 0.04248593707835264 0.28266065379386807 -1.224049764583724
Ni 0.9050441504675274 3.2585809351672155 7.962423162219462 0.48892329114297084 0.15148965537328102 -0.7273789682848505
Ni 3.589072771790784 3.125416525804209 7.236681678534657 -0.9861013660955661 -1.2917903624638074 -0.4490789054525233
Ni 4.4126785461047096 6.85823992280956 6.013001525622334 0.5489369526924417 1.4441238538946226 -2.0484763072428915
Ni 0.6901903515853665 0.019192518308888972 0.07528400135398813 0.7829165963408388 0.1387243852878127 0.6588930075983104
P 0.3319006036642958 5.499311767706403 7.846857881975316 -0.7356769466275846 0.32308893701224356 0.181813503167803
P 8.637115257419396 1.4124049155904173 7.606966409348014 0.22860706648257403 1.952897604104617 0.47017583533213864
P 1.8676940493919103 3.55594992116245 9.962027463615332 -0.4869792800427226 -1.3810829754830538 0.31365298841032435
P 4.302905672111301 6.253334090576785 3.677627740645284 -0.13860405765986453 0.3738044610892401 0.8003527895394151
P 7.1339726480566314 4.090626579163485 10.439852322724885 -0.2326501262036961 0.49124705418014103 0.05219262284315527
P 6.42706989935028 7.82797003568621 10.179435960120092 0.3878359994816417 0.6031486628481548 -0.1696565560902949
P 2.523330046590321 8.570996881782936 5.790774663861429 0.3681395494939789 -1.717767906012177 -0.8652615743976583
P 7.19634401258412 4.344522960544924 1.5350904264103247 -0.01382405036728587 -0.51793767609745 -1.0698141710341897
Ni 5.710517687569611 3.1726270468398168 0.30347697789034384 -0.858570792641044 -0.5684891637927564 0.2554840933790761
Ni 1.6627543689803554 1.0349753985459722 6.8257846222186 -1.6154004620868436 1.4783565498252476 1.3679443812185668
Ni 7.1119816945093195 0.6612101309573635 9.135401343696335 -0.5089365010401041 0.6701017318299363 0.16851858583110976
Ni 2.9382660534731104 1.5396123048651318 9.209783152084281 -2.2273289280101576 1.3055205675657064 -0.16660285686563564
Ni 6.312913386146861 2.2407035484777147 2.543691232198974 0.2076644027926359 -0.22298483519979018 -0.2945692323059959
Ni 4.204692145495326 7.0671994549448165 10.184548083771434 -0.8812057564317404 1.4050346012026447 0.7732181381061521
Ni 8.217595528209127 7.345387745724467 0.0680882848748179 -0.3951111929868163 0.0020370850346868143 0.6541328672055057
Ni 7.62945120440799 4.011711978696144 8.328303336042348 0.031474673569513535 -0.1170985794879209 -0.9660488183200653
Ni 3.180493951231225 8.650648151910051 12.335538000250756 0.8618584622533803 -0.6601405068521663 0.626195003144657
Ni 0.10527009438163247 4.952420944852581 10.114585383873413 0.32672190577914056 -0.34348318439787945 0.3918515483989381
Ni 8.909346528110754 2.179487209219253 5.419837843978864 0.25784410897082044 0.8062318740280114 -0.007834665553070379
Ni 3.483101477029293 2.725705025223405 11.143604671799809 0.9668371185493156 0.5799092327042399 0.7239935967523854
Ni 1.4790507830820243 3.5397249992731177 12.536893464453462 -1.5728186228605752 0.4104473091232544 -0.484398920910056
Ni 3.223457253364188 8.72964460456181 7.984080340748087 -0.2539871971185755 -1.8217811130710495 -0.23093391484353773
Ni 5.817380261672557 7.934014087944963 3.3614518510766476 -0.31074507073491 1.5900090185969327 -0.23554827368709758
Ni 3.187342250660971 8.35788107761661 3.55672387903957 0.28534617104583115 0.5350735644467881 0.09959013829051236
Ni 3.502464065988031 4.713121536359245 9.135055745584342 0.8895376733362035 -0.4408706586101182 -0.551434779413631
Ni 7.4564611599814254 6.244866936832969 11.310671346480564 -0.1618637995187535 -0.9060153592762525 0.48009206600458604
Ni 8.11674454231742 8.94688939669773 2.219688454862423 -0.6573092080509583 -0.07307743671196447 -0.44774990222845473
Ni 4.6672934077716075 0.7239143610348245 1.539003870294282 0.2074152628963073 -1.2467821731842335 -0.17977076170616138
Ni 6.062391133700927 5.80504786588672 0.12090113319956709 -0.28357776629149867 0.4205556012018499 0.400917001035316
Ni 8.298856557963154 8.941659951582054 11.27839157335175 -1.0397960274055447 0.5541565492201682 -0.300771761572282
Ni 0.2241467502198961 4.828733199507895 5.596208383621943 -0.44082874962858914 -0.13576941642454682 1.063158099170253
Ni 7.521442699723174 6.325727800352056 2.446055218217513 0.5332529662982817 0.24467646124061085 -1.3488117741541739
P 8.476821396264977 1.7483262804471311 3.1439369467321443 0.5573436886988983 -0.008485411763191838 1.862540554376599
P 1.8916767394267586 3.443685102887832 1.4006091063468837 1.6403126519474913 -1.0611328412101082 0.5101922278240761
P 4.749118308129412 1.3694961815804005 8.070362547281878 1.4169542354583662 0.2248437427853999 0.4311243778566317
P 8.750589669085988 1.7515094209523252 12.309448071201468 -0.8312690195022974 0.14003076280406207 -0.36607495365546633
P 6.30055370629955 8.070970981852728 1.088177499481071 0.7981370128350189 -0.6155061559722432 1.1122106337225297
P 1.943552834974265 3.2265858257464357 5.734003807685649 -0.8047655738951301 1.2242703652349625 0.7009837661207733
P 6.859913345246576 4.0907175260350614 5.775280954819576 0.6020585151077695 0.6159555848048359 0.39381047189752183
P 2.2769913502369277 8.636342209010992 10.409676150735644 1.017362638102693 -0.1509414961792949 -3.2559082607642766
