# total energy = -381173.6006664574 ev
CRYSTAL
PRIMVEC
9.20147192368118 0.00000000000000 0.00000000000000

0.00000000000000 9.20147192368118 0.00000000000000

0.00000000000000 0.00000000000000 13.46728425933940

PRIMCOORD
 96 1
Ni 5.87202973826743 8.651628785837328 7.477224678478231 -0.9608970989157968 -0.573806976461244 0.8548529774698245
Ni 1.3216166166852448 7.872503350512041 8.928352012765142 0.03031124938903167 0.5187588864471647 -1.289859721099998
Ni 4.31382487497657 8.468335464727192 13.534486487994247 1.0123271325613146 1.5619202307805164 -1.9339562871154243
Ni 9.173619087707657 4.099559399305353 11.336557569171598 0.15240188277490527 0.6243731194445699 -0.28330702912861533
Ni 6.586404415527856 0.4740000249501525 9.72452409501255 -1.6561406201186832 1.383886763480436 -0.5043758782526151
Ni 5.190899979138074 2.3391153841731436 6.993628438438432 0.28765347902276917 -1.3197336258412948 0.6121912326663973
Ni 8.86105428726638 2.5535740907551694 -0.07268610746874576 -2.1725394909741036 0.04370592552838279 1.5848997223948253
Ni 7.413745563835931 1.2807896856729117 7.20457954391568 0.2714293038544228 -0.10104435423853567 0.6516954614086067
Ni 2.552138661132018 5.911117591082483 8.605257967979169 0.607296109357625 -0.11184478728814932 -0.05619531624464515
Ni 8.089437253046809 7.04102153982949 11.72685364414812 -0.3673497066028319 -0.017136145459654358 0.15776057598365734
Ni 2.4500483299213265 0.7845257792087988 8.644945756764924 1.5516548442987663 0.8906478756812468 -1.2900870066194556
Ni 7.868178658698699 7.5993576558757745 2.856437779326647 -0.31516916794453465 -1.0062493017983507 -0.8030390781223267
Ni 7.617502958547922 5.520340279123325 4.176353043849579 0.19771011979340145 0.8546169501996186 -1.4661792910327651
Ni 0.8442056060857184 8.645969880592212 2.8041448941257925 0.15832981822356604 0.0047084612192628585 0.2148915166686944
Ni 3.5527159217162243 1.9812977447148152 13.313986094934263 0.0802292172653973 -0.8502812989387419 0.2770602768879551
Ni 7.221250770782514 5.715485096096407 8.406292699855237 -0.861662029971858 -2.6178743560031625 -1.8216173337996757
Ni 2.8922250641556455 1.3967006277424094 6.108544373097497 -0.017503556101402112 -0.0025834444564600666 -0.6091743002169444
Ni 2.9422994744709747 3.1923310715857216 7.845541197423841 0.27151852113411945 0.12750923329828362 -0.3898129207023545
Ni 4.954854619377112 3.6104643596322497 11.881107119805266 1.2240137691394661 -0.3099541994024984 -0.03523516905321028
Ni 7.855811880406931 8.07804583078103 5.119911543242862 -0.954707425165317 0.002661863102879287 0.15753226202293516
Ni 3.8447890441398176 3.965098289798203 1.0362458464251374 1.008508530146173 -0.10118653624335475 0.152061468716351
Ni 4.714640992825846 6.745773909585465 1.3790770485294452 -0.18678730223331055 -1.1024255293113079 0.09648373145104673
Ni 6.605607887473481 7.6069488702289805 0.27855616013891443 0.4886692661506358 -1.3680654801774632 1.2230673460657968
Ni 1.5005668430381536 2.5510988948024274 12.175192604142854 0.10798170478831726 -1.5044691877518992 -0.9029495758667352
P 4.689447362645145 6.914777344767688 8.66553773082679 0.7230518016644063 0.686454976376979 -0.44689141088290135
Ni 6.37668446699662 5.142518639660308 1.9596917684447996 -1.1659564599854177 1.17813706121201 0.6442729436922904
P 4.643081145522958 1.8198027106383088 9.203043554687879 0.5110633175751199 0.21161104614520976 -2.4227985885088144
Ni 8.930829049012273 3.677460276851271 5.025411506238183 0.18305920264944603 0.5185511413117327 -0.00462978546252751
P 8.838621098668664 7.350457839810051 0.23951431468357753 -0.10488378258928388 0.5005498196383057 1.215979843091396
P 0.7765885895105255 7.015533462546604 7.0113909598777395 1.4900931215358852 -0.279173466576216 -0.5354723425471036
P 6.3421789472093195 1.2362637629393798 5.219623293956216 -0.4610003394804577 0.4304000980960974 0.9121124733129259
Ni 6.8647397403401325 2.7922234670760786 3.611858382631657 0.04917080529769596 0.04563656689219237 1.0279522406930812
Ni 5.186869734426916 7.349068417546616 3.4349794076131803 0.7941764855253742 -0.23380249464058442 0.7063481157564804
Ni 9.086738789619208 6.148671992242142 9.715298699242217 0.8564223788394734 -0.39666311085496847 0.6756681701741203
Ni 0.7550801488431087 6.863396325436413 4.584061984331566 -0.3754196280951599 -0.2928080266405151 0.08235269136630333
Ni 2.7879079767346804 4.347447053457315 12.35057726011774 0.11985865873156133 0.555235898327276 0.5795145683689825
Ni 6.549856168969148 4.080291517056125 5.663572231686811 -0.23029371015637756 -0.6850439549620654 1.8037674501024483
Ni 0.16714013711370895 0.17896402856082372 12.782378414588818 -0.2377807625620421 -1.013103605716023 -1.5032893085111851
Ni 0.8397419720460333 2.4543178129030085 9.544075869027274 -0.5510311162173092 0.6627925997630327 0.5709641076958102
Ni 8.077401727744999 7.839009992638501 7.993345361395941 0.6630332550189291 0.7728656398627399 -1.2990105343613305
Ni 0.5518159530272768 8.992920581685524 6.019714283104267 1.8082920774456794 -0.04164801455808956 1.0330345403119952
Ni 8.417276496913932 4.0907627921275775 2.117623072437674 2.532693965380077 0.29195339194970366 1.4607768890702713
Ni 5.667030144843094 3.8095474065970554 8.962073567142873 -1.2882098442014007 -0.01883435909768369 0.25452224368643905
Ni 5.301225627738 7.724240033089971 11.48467090260099 0.48709986478098694 -0.46676012478237033 0.6335758689897605
Ni 4.263069555737438 5.5147273812379245 10.434102044948943 0.7208450238210746 -0.10923408913817963 -0.6300783973594634
Ni 8.5036507140455 1.3942070288457804 4.978585215518831 -0.5933465891560684 -0.3855469463371489 -1.1304744650287242
Ni 7.9117844342379025 0.25528655774155373 1.275976395699382 0.6107776401483224 -0.6595391258227415 -0.9388277778205831
Ni 1.3864869938853686 1.0227160020797383 0.9997178431047044 -0.1923149169197591 1.248245130883005 1.086395986652271
Ni 0.8197103676255127 5.794995015158289 12.756736672724479 0.3642805807592049 -0.08858658809115712 0.3114832344525152
Ni 6.623302318020409 0.2187199082389591 3.334701766375315 -0.3194919636896046 0.45435763735295936 0.3233059381190561
Ni 2.897368686971939 8.339192806003258 6.851224618349843 0.048492291173432615 -1.1097847978898565 0.7035960069326398
Ni 1.3377191925859848 7.677330929123129 11.152177554224957 -0.9113979637444045 -2.147211810842592 1.5608647929328086
Ni 0.3375237930874241 6.154882985803856 2.0627031669970135 0.6314765632585706 0.19839351901367122 -0.55275246978379
Ni 4.07298554833316 6.4900558028097715 5.585960576286827 -0.8976713581869313 0.8775288218007854 -2.578062623322863
Ni 4.4198074288192695 1.372859613937371 4.03611801069802 -0.7076624636925296 -2.364793215638624 0.6909829461543197
Ni 0.47204655245659416 2.1552699747464095 7.169982009408947 0.6681862599747783 0.31974573157162356 -1.1531809054873043
P 2.3626803538198833 6.463463548893693 3.1449204873979713 0.01970622017967574 0.9847294254487041 -0.5016137421264457
Ni 3.3434560467821517 3.2128779584350653 10.285974909311635 -1.2640013652759972 0.03877583521661709 -0.813348944688767
P 2.7005400006332367 8.972796962545573 12.03051326004269 1.2043741405316677 0.6021716436468662 1.5186596203196685
Ni 4.992783086727312 8.680070535614007 5.356544877060999 0.19470552863912274 0.5923919385522829 0.39334253112216777
P 5.396276832912083 5.2625978485201115 4.176298755165114 -0.1468279882315536 -0.6890091102574004 -0.3574345043716489
P 1.937047866139582 5.06041390551042 10.480523470902792 -1.0458743723891406 -0.004550081264527648 0.058205661806454596
P 7.873773153640213 3.5854179530026413 7.5863504551367535 0.051805157596749495 0.3560872463151351 -1.2062448751918193
Ni 2.264169395195128 8.080373803182678 0.6245361059422128 -3.6501668759428108 -0.2746660656241657 -1.5842366348895296
Ni 8.423101028654028 5.777346591971079 6.389674184938948 0.515700559236815 -0.743521639482984 -0.11949459052392322
Ni 3.519967883070091 7.968410292576848 10.12035393521576 -0.8927865192908042 0.7076195262697361 -0.942814530382473
Ni 4.333838076453205 1.144120222899374 11.119640229286325 0.10750939313758903 -1.57485185124052 1.5074161861953652
Ni 4.500697568672643 3.2648846778584844 3.1823060679035176 0.20334623503325625 3.291997550287666 -1.5738133826736767
Ni 1.3925047565362736 1.9954680115074666 3.793680388378063 0.07720302884456381 -1.247730653140432 -0.9397070951017429
Ni 6.2225322075308505 6.57126799418116 6.088424434546322 0.7834747828371539 0.11347460958208844 0.4168712103717272
Ni 6.862899445951475 -0.007614218033064172 12.216429000656662 0.2747804797148429 1.9146879258041154 -0.36741655528502526
Ni 6.6330558782802855 7.301321979632936 9.747256331448423 -0.39974483510408576 1.0546608603325192 0.5605560249886088
Ni 8.08399918312833 1.9430196214307707 11.410264119878853 -0.3162783418483133 -1.4545224235201273 0.16444184465857486
Ni 6.748313515841811 2.9827583466055767 1.3310030382145848 -2.1397918642294376 -1.8691367195368775 -2.9670214235550385
Ni 5.489285311314757 5.547889486121506 12.939110766787483 -0.33772237065470223 0.3000287127586704 -0.1775182182265588
Ni 3.403330024717074 6.611929298698515 12.25389555411531 -0.9663799764072388 0.7754102606614646 0.47379800546575823
Ni 7.6826033725466285 3.1660332647718277 9.665415679543308 0.5986397192342077 -0.39307359373149725 -1.0674346150584197
Ni 1.4264305835911468 0.7499806930921429 10.638885403782611 0.7159118481855155 -1.0116517037608446 1.7605469488509162
Ni 0.8056845639423711 4.227772709363016 8.304978052729364 -0.8963336132121145 2.227977874448066 -0.8339823046684024
Ni 5.538568395042963 0.7279532894071249 1.2510367261443158 -0.2106499677835211 0.8637209693834157 -0.08626231083335466
Ni 4.039418578684075 3.5708244185005995 5.504914011410417 -1.1372030420018093 1.2300023826227333 -0.7125609294354115
Ni 7.690801884048091 4.968546409628713 13.347775740204375 0.8128478366826323 0.025822360379742622 -0.17362711070226872
Ni 2.252179877253034 5.461358843966901 6.249506322532575 -1.6880546952184605 -1.2646364277568347 0.20481947714467305
Ni 8.616433155654283 8.905773440910721 10.223042362102767 -0.17329081040877253 -0.4859485247853631 0.6345294911522814
Ni 4.595619953239519 5.2790408788827525 7.345541493350757 0.5264719388207063 -1.385900451476355 0.870430005972475
Ni 7.099165641039076 5.1164140637572215 10.657416248129184 -1.4699405578474103 0.1412360959660729 1.5198351286850083
Ni 1.665300795238695 4.325989220885586 3.3911426751282003 0.469502720524514 1.0090376631767655 0.20844344705050555
Ni 2.8010660816135706 8.48291979775729 4.430507820542109 -0.8093328815508384 -0.4873608317518574 1.1600488362517312
P 8.512833783044893 1.8774039250032413 2.372962078569304 0.7712885251836072 0.696268105812659 1.095843505218416
Ni 3.442289056924922 8.67514774812435 2.343011287393928 1.0904213057615801 1.4399722936200943 0.17546493524195586
P 2.964290992415414 1.929153003212248 2.0743255462085703 1.155453760681881 0.8086872775470394 0.5110291219030748
Ni 2.6433896583935255 5.913565182619395 0.894142914469093 -0.8020188643879285 -1.486455524783298 1.5227024229304742
P 1.761677012372609 3.2615077376553003 5.566324635159868 1.0223667761855038 0.19948006720963066 0.6835545149007324
P 0.17248619231275458 0.39885528417816235 8.353191005270569 0.028143809424067655 1.3509015668036668 -0.26731656723763
P 5.853129914895932 1.9384740942907903 12.749787721112915 0.9463176584397252 -0.9798363590224609 0.9252546671218388
Ni 1.3310665283709935 3.578756087315707 0.9533911923118727 1.5935378576857975 0.9416500777607267 0.647345154859711
