# total energy = -340888.52825898305 ev
CRYSTAL
PRIMVEC
9.10466025260132 0.00000000000000 0.00000000000000

0.00000000000000 9.10466025260132 0.00000000000000

0.00000000000000 0.00000000000000 13.32559059284506

PRIMCOORD
 96 1
Ni 6.583779971201518 1.8692868556998057 11.226490126083933 -1.071141888706678 0.5473783499560703 -0.4937266260688852
Ni 4.743819225462743 0.486129665384746 5.764610036063428 -0.6275540882757128 -0.7321306240372231 -0.07658904940964874
Ni 2.4170960404670416 1.618908704837238 4.648298595209669 1.9192873722493398 0.11070244615359 -0.8592423647867717
Ni 3.8215717922455448 4.608141581675325 4.953667982195684 -0.6405106484363807 -0.47093148255124057 -0.39390688826607
Ni 3.6449778062771676 2.791607126197255 2.4685792510804037 2.2517958028032705 0.03864959405139795 1.6496061614342752
Ni 5.226038439364016 4.70734595737709 2.7861680022945166 -0.5223134365676425 -0.393816899655425 -0.3852795516083752
Ni 5.511351170766937 4.816392470572762 11.741377770643753 -2.1222841943629773 -2.5887224170295546 -0.791920599611662
Ni 5.714476136066714 7.967324109567911 12.250681527206336 0.2527679799994937 1.1673091173585701 0.9725976751821764
Ni 1.9182790313285867 6.625734244626053 0.2736778863488368 0.07537214628341213 -0.009194264904758359 -0.0701414940120921
Ni 2.94386435590179 1.5898102113769919 0.4627461670261884 0.08592009700258751 0.22110715856110308 -1.7169356399188687
Ni 8.49023204914936 8.90677024558436 6.335838227363344 -1.3247814726778475 0.8777843894550172 1.090015328572413
Ni 8.82613937634658 2.3444408534167396 1.2775786421253355 0.3469796275869121 1.401008253652071 -1.049892235299282
Ni 6.869047179304281 0.8316050798089295 4.523478258509655 1.0175313024700734 0.06878240888103637 0.5840420239256909
Ni 0.6486961016427971 7.424395022577488 2.2627256191692258 0.285191904856154 0.8906972408619434 -0.2612271665104404
Ni 7.705082586684473 4.19476270227121 3.9495987902086056 0.23071691373672523 -0.25164106548390214 -0.48434261375082394
Ni 7.7207152879583285 3.995325124284135 12.282103529906585 0.9339496237926754 -0.17822115783085435 0.3918227520435317
Ni 8.39219306993161 7.248638665331996 8.992921270199155 -0.2701211265659606 1.176480756555509 0.6678126786854434
Ni 6.936321512276045 0.9891120564875505 0.15687056094242852 -0.6068083710879292 -2.2915201179760856 -0.37806940701318115
Ni 1.8935962979835532 6.752125135181478 9.360667593526063 1.528012522289478 0.6042583509725659 -1.5725239744382917
Ni 8.915292207373717 4.969696736180905 1.1976770561560697 0.7824160025553364 -0.41081163444120866 -0.48902125017341586
Ni 6.675518525677563 1.783693946744933 6.846008747560912 0.6724733173859063 0.227699209956324 -0.16020980885509828
Ni 3.714592036876993 4.5720142906708645 0.49677119202940667 0.10836479915934885 -0.2552213266359927 -0.15641768880251772
Ni 5.990074195216166 5.9089243603566 4.815961820153278 0.41540850978327165 -0.06991935069895701 0.4686061768521736
Ni 5.759088970220407 2.955509216081907 8.769571213105701 0.02519732520123403 -1.0131804817005454 -0.05007146273509441
P 0.1616823737690055 5.880636181639146 12.465996721822108 -0.6059143985187501 -3.2750848336927274 0.22842426104780658
P 4.170289376106898 6.248764900687371 12.5607680385546 -1.1639422577688665 1.3524401149353804 0.4295776021948021
P 2.1600988017616705 8.809796511590278 1.1433340718268545 0.7368159453280343 -1.8808560648563348 0.15872242567629438
P 6.484921572580945 8.019912625909082 5.7295370646906 0.15776083309397346 -0.11987485668147742 0.2135020925203355
P 4.711188123910326 1.2545584197020292 12.566097906536964 1.0247951831213384 -0.4055102768329532 -0.7822681641235625
P 3.8995258914341013 6.075648894850977 8.27604401144547 1.4279135626833475 1.652315589945638 0.9645490938460871
P 4.719400527258618 1.3612468259495774 3.7403199851936275 0.15458166403504345 -0.751583590555512 -0.606342230084788
P 0.2525732843961302 5.662661515828209 3.274816927109941 0.002286482041331546 -1.0404241479078469 1.1471843215842372
Ni 0.6208932013050144 9.188878136656237 4.317944200165578 -0.2670563715977078 -1.2416651636726421 0.07103315258842606
Ni 1.9839964674349873 6.337107416971716 4.36339830490617 -0.010467475190227135 1.0453789208099609 1.3682955939103982
Ni 6.270297421661552 5.793377119898533 9.123898178012379 -0.9998814505987941 0.9583794747002656 0.04625054632710744
Ni 8.609448467600068 2.6593528345816306 9.874808655963308 0.6657887062768791 -0.6178306903403618 1.2462512403814279
Ni 2.5561150944859703 5.21832679231745 6.983368932522126 -0.9549347106847748 0.14589519200463907 -1.0291069231228147
Ni 0.9757828342016306 9.133430757065218 8.34100667123527 -1.1600472935898343 -1.1251584521324494 2.165575915172077
Ni 1.6832786512589961 1.3869128625779983 11.214203387371606 -0.867092714069126 -0.6730261045655829 1.014961227750052
Ni 4.031707345769474 7.3504469738027325 1.3858876778584666 0.4426861145523021 -0.5695407449857224 0.3099102335384405
Ni 5.821109914354074 8.102455473753448 7.9062063477093565 -0.6408196950363673 -0.9166029049841117 -0.6527997502163789
Ni 5.653948356178192 2.9577125438094978 4.860268737729918 -0.5826759968160997 0.6194661690612557 -0.046622327844229386
Ni 1.0996153152882409 7.410473997389529 6.709967827838242 0.5085315522922017 -0.6683590381072166 -0.6676833521964307
Ni 5.30036888386009 4.792301540129767 7.0979820348609755 -0.338707617386107 0.24655465209993022 -0.45623737087417554
Ni 0.9569999205569223 7.35529975759945 11.40053571770953 0.8526852803945444 1.9345216727005912 -0.7420823359332962
Ni 4.594876092009625 0.35258160157866486 10.02670716206261 1.5896773462891267 0.0680136490358119 0.743025673683172
Ni 8.22551405873739 7.0841083539051795 4.63778544427145 0.7529269919572839 0.4504511032097016 -0.44080175304539565
Ni 7.412267615415708 6.319225864670114 6.896086198665432 0.2299970048515652 -0.1048711841837936 -0.0957100865098158
Ni 2.457302219165554 5.2923112597323305 2.355511209548878 -0.11554820428166551 -0.16776808081833042 0.14613790414306443
Ni 2.5318056522022228 5.1758444486110955 11.50935188300641 -0.683401534262636 1.1721839289523683 -0.5494606864063957
Ni 0.9736887623944164 3.3569518861849015 3.6281715143252695 -0.04997350370464942 1.32280686544998 -0.4160299454173545
Ni 1.5593642282321036 1.3326490887910563 2.3887987570895555 -0.24591161919929266 -0.6839810609151897 0.5067153250190692
Ni 1.4693919778021438 3.6182101057849514 8.27157999663209 -1.2515088892359414 -0.170568526381603 0.4523184954357436
Ni 3.813486854137692 2.9124714881136398 7.057219561434546 0.5565597593450221 -0.06046668992648942 -0.3264897351636764
Ni 3.901929521682382 6.978603553461709 5.880196426559631 0.4749421463725304 0.4575884855854313 0.06169182058284215
Ni 0.42095941934623055 0.15889816873141374 13.138751887597792 0.5161350756710723 -0.03132786357900411 0.6556413334302322
P 0.42470598694913764 5.769504701296291 7.960960862671989 0.04472433949056814 -1.0388714587087464 -0.33979005181700833
P 8.927911266177192 1.8131475219464022 7.882046221850124 -0.9844077804432273 -0.6373237660679669 0.5176736238027859
P 2.1782990171643712 3.2664970887732787 10.272017659151718 -1.1071617584447127 1.180191372637877 0.2584460042208775
P 4.180441072041871 6.464181157029493 3.658767724360675 -1.0657230316839517 -0.19180660982477288 -0.6514368084305813
P 6.914807200621928 4.079169938512986 10.153060723511905 0.6144504610142192 -0.3304924285651663 1.2562178646758366
P 6.400157187688927 7.846741992112499 10.133325462427917 0.44174997589127796 0.23318980075725002 -0.592290122867096
P 2.4454752657848093 8.835271350358042 5.620333951342389 -0.15404121815054117 -0.950988067332201 0.29182072302658135
P 7.024609400600202 3.9860474757121733 1.7777404095504226 0.25765564710909816 0.3771623218178795 -0.7400169687638352
Ni 5.653538646476781 2.9375548265000533 0.5291446317029351 -1.5267336555770545 1.1408141563918353 -1.1420035487142461
Ni 1.9186250084097787 1.5598285658937032 7.0459725748977995 -0.7880359198452751 0.24838604888171417 -2.3884730757540673
Ni 7.004551834551103 0.6703715657794704 9.058016858025413 1.0966199783731243 0.3365610033567494 0.2876462799339175
Ni 2.8565142475608636 1.5949907629348392 9.118434471527555 0.6474842515407365 0.11971493406484543 -0.18613449914066008
Ni 6.717582055022474 1.824601184265861 2.2724129774425994 -0.5329256648658499 2.5726432520795046 2.6556086373291428
Ni 4.228868758748708 7.131716621209193 10.465798511861307 -0.2534876317743377 -1.563134819913908 -0.8976960407772798
Ni 8.057797116299596 7.310477516265036 0.15604112641357107 0.5561275569036099 0.7484486444709562 0.5128584618023296
Ni 7.923184717735848 4.111755516765245 8.086901072555861 0.37453516860767755 0.13165873669028294 -0.6978729884059336
Ni 3.3442781994212396 8.416147430474135 12.471699880865756 -0.744985111402388 0.9106924530369478 -0.06739427028425812
Ni 0.30641915428763244 5.236754624220935 10.124930055412992 -0.8049766614646717 -1.571638743619861 0.8901927904216992
Ni 8.801620526882113 2.50912594406409 5.8763588123564094 0.26232091379525146 0.5490205135451836 -1.2970115016534307
Ni 3.611454448041678 3.1683124349950273 11.80656622600233 1.5088261791690145 -1.9558194057371023 0.741070349729014
Ni 1.1481522579154535 3.403349233704743 12.612111947869485 -0.5790142316937963 0.24935458344257055 0.3502819524872677
Ni 3.209665800857492 8.48349460072615 7.677019293069794 0.8616031517094644 0.1182846293762221 0.9549401100014135
Ni 5.850581698875606 8.013311747386341 3.5281094796485495 -1.0433066116619643 0.22748657972488562 -0.46482922630824464
Ni 2.9903982733221017 8.476156244740869 3.379409440618269 0.3498284098896169 0.2128729435767689 0.16713918898507987
Ni 4.073779979774417 4.259150858013031 9.542375667034058 -0.7724833168226567 0.8910870201011943 0.15312204877038146
Ni 7.129658968042104 6.202950251409536 11.514429551905902 2.498622991838297 1.2439066514086514 -1.2800491627674793
Ni 8.05176983135883 9.134523316268982 2.2181510245876637 0.9474939381360133 -1.9028474815257617 -0.45359093439026393
Ni 4.980221723177163 0.5922626873703806 1.658942805461158 -1.4832868972473294 -0.9851276893283872 -0.49901435683038575
Ni 5.9659195321529515 5.847185660683906 0.4788113396515339 0.281646867817373 -0.33938844550321545 0.3920397531503442
Ni 8.121857504280289 8.657830631006748 11.234006022939827 -0.7473384421259129 1.1174104327559145 0.021567698868446727
Ni 0.36244650072265 5.161559237021883 5.745635014092059 -0.5799483134722916 -1.117285991362908 0.009171639196939042
Ni 7.242702426991546 6.186889631114207 2.5010664990043248 0.4403937189736996 0.5267120798559703 0.32915005560465893
P 8.619500012274697 1.7109568177543493 3.424170680730474 -0.02386497954305567 0.687814318618351 1.1290611296209652
P 2.009189061741777 3.3425118953751545 1.4524090554456366 -2.6937103292968705 0.8048213668337301 -1.6971921387433544
P 4.918728849325317 1.0197401328330662 7.908405123106931 -0.5619737312717419 0.8279826354415418 0.8265849837630668
P 8.420699760489818 1.8857389763764842 12.344333881220972 2.169324840691548 0.021975475829826667 -1.1525831240023052
P 6.402833957738149 7.9189055275211055 1.3308463661048457 -1.1617136255486638 0.27421766523283747 0.11960874750428432
P 1.9244155721897274 3.402484291001763 5.63671141380681 0.5827536441315706 1.1299072796713443 1.5431948864568712
P 7.073665308849202 4.161321285976002 6.037052420046009 0.5367206131319079 0.03211307848446082 0.06752308255263854
P 2.5515354504901935 8.697217390302438 10.252149470031272 -0.765833672716623 0.08225293256364544 -0.48066027980323023
