# total energy = -381173.02264605096 ev
CRYSTAL
PRIMVEC
9.19906865049616 0.00000000000000 0.00000000000000

0.00000000000000 9.19906865049616 0.00000000000000

0.00000000000000 0.00000000000000 13.46376682610650

PRIMCOORD
 96 1
Ni 1.8961211818811907 8.038348365250439 9.960399881195054 0.747276735650042 -0.730963086091683 0.6342153023459722
Ni 0.42665555305866065 4.447878368221104 7.8183958795981585 -0.15669793904709786 1.1104643404553844 -1.559504165139856
Ni 1.365712095829369 1.573647838404082 5.61179233992585 1.2649567872107312 -1.244665898172179 -1.536689738348502
Ni 1.1721085018536384 0.08400313309456324 13.34894756667609 0.20385994144488115 -0.17147355469437567 0.5411886762055905
Ni 3.447718853281575 5.922590225763787 5.290547072082864 0.38493142424033705 -0.09460091260603706 -0.4568552069638326
Ni 8.136290846722433 1.1268858814989537 4.419804651215728 1.1961638368067335 4.442907657462922 -1.6194548346618753
Ni 5.286575834245778 6.185021249660948 7.103348611653127 -1.4797426315394966 1.8625724360557987 0.8131787376594899
Ni 1.287060060834952 2.368557738747654 3.299161257546857 -0.6399390922036269 -0.5847853298496186 0.7139400691711253
Ni 0.09506041333588358 2.034567161608205 12.332379673395096 -1.0469053847568162 0.4121084988757612 -0.45044390412085006
Ni 2.5276464280100455 7.279544808456936 3.1397772781881716 -0.23393850599781646 -0.06063895383829557 0.25600859842397844
Ni 4.4554767987363535 4.407365670897663 3.663598911344145 -0.6948851094222032 -1.0226123165374066 -0.4456840208383614
Ni 8.38178638565764 6.497072048617744 5.405998140479405 -0.5279464664837036 -0.6512486036791753 -0.5360474983242832
Ni 2.8202687944629576 6.758068017841323 7.43341302639075 -0.7476881121558477 -0.3913188158239196 1.900932781001552
Ni 5.19315929443662 0.9947688608451745 11.030150348734905 0.5592277930954884 0.012949618182132534 -0.5477226206693663
Ni 7.994128443353579 4.420474343396733 12.083757371103797 0.9623942522866136 0.008556631320759457 1.748469963081724
Ni 8.74020968852167 6.0939504722989914 10.674128002728597 -0.28270667654045506 0.7373216813198592 -0.4324664937068229
Ni 0.597234798684973 5.940510011046726 3.3577556437574345 -1.1516624119602488 -0.3813485919850852 0.4013993399883732
Ni 2.1711917257879803 4.310002730736154 2.4989287762152417 -0.03614096869693131 0.08803277247021614 -0.501556149415633
Ni 2.738792645463478 4.861054526323353 13.324915000427797 -0.1229846059550527 0.3257839673459034 1.2861858717928365
Ni 7.975067973586511 5.378364138944525 1.3893123058619041 1.219606641210706 -0.8717397259228342 1.2699514122118452
Ni 1.022936408348438 6.503768970427795 0.8763418938146337 1.1160390063296846 -0.2644359032557252 1.5082523089434154
Ni 1.9660065046709665 7.1490192266398855 12.302893899387188 0.10070085485618786 -1.3844081832015447 -0.602167272771492
Ni 6.072525841947881 0.034137742908103 8.799190435605905 1.18004173443389 1.0970501239320074 -0.301773463363919
Ni 9.08183549245005 1.7433982479657162 1.5183228011101144 -0.2786559035098491 -0.6088269441798547 -1.1321068584258245
P 5.8342147754490075 1.730179186645602 3.3795804335848327 0.3060538359068278 -0.19076119927939406 0.15002361235071582
Ni 2.20594580628025 3.309861613933466 9.204086512222952 -0.32738190796064265 -1.6027951146180075 0.7659853678031389
P 6.453532857783992 1.862378998915165 12.631530618705964 0.730482804021155 0.01201785039648253 -0.17501627774031148
Ni 5.438590439892882 4.1878666993185085 8.024444893239847 -1.8304891823680087 -0.6330405653115807 1.0718828806377605
P 6.457874818078421 5.9141822772275425 12.467582061597076 -0.6302488614990566 0.32426573092916416 0.8962893902377402
P 3.599144718549773 5.808503379213991 1.919287195884283 -0.42899987531446115 0.035281706020429564 -0.6631867498776578
P 6.446872732247623 7.932264708226391 6.421246887348916 0.35220333787969665 -1.0907666049161409 2.1668403837067975
Ni 7.01746334915975 7.151622563002859 8.420630371969619 -1.403169522969448 -1.6907201578657656 -0.40515803569985703
Ni 4.752395130141592 3.3902798700645995 12.51066681845086 0.7720331166591156 -0.35322252317283037 0.05285828145161219
Ni 1.6006747014232159 7.855774454310769 5.69260155646485 -0.12861095100289466 -0.41245405514063804 0.6178872546099101
Ni 4.5773184599645464 9.045296792684223 2.728876969613129 0.19997397612691364 -1.0494507768864896 0.578309749427604
Ni 3.3660587229136874 4.6687388019264775 11.089471461350694 0.7630249996232342 0.7329351222163893 -1.3855883195525749
Ni 2.85600717527621 2.299224360063102 11.521349325551617 -0.3097443973845375 -0.4214727136994806 -0.06722432036529713
Ni 8.769876684177458 0.1707273506278807 6.273536525815717 0.05918319522837551 -2.0825809622360842 2.2922587959143232
Ni 4.4146053377445185 3.8201891336235554 1.3645796905068177 0.1583886964859595 0.02192971019355578 -0.35049304005680926
Ni 1.2014903263883947 4.336293668281656 11.562574950677636 -1.267119856300321 -0.8301001960051768 0.7059490805458487
Ni 4.965831915631704 7.785741946426265 9.972477338124195 -1.6678157424637663 -0.9086576819951061 0.6336049224554829
Ni 7.519750883050411 9.2031160105046 13.326826566845556 2.5960667732097678 1.7026297648191582 -0.001333888320075122
Ni 1.6415001670729494 0.10672759181347642 2.2978205822221494 -0.33564594774164774 0.2330584173857083 0.22789512801721398
Ni 7.6040879423286345 0.7383485082539031 10.802828489371041 0.7942034821085676 1.7999653027475386 -0.4319237338294755
Ni 7.549528267527244 2.098289108556313 6.547699121669413 0.364692728595959 0.8190308255648926 -0.2783028910458046
Ni 7.213495497198467 0.17177696433464829 2.369111522666562 -0.08634021525914164 0.3866550917996631 -0.6590812123497165
Ni 3.3868946128858926 1.7163989821518433 7.302787174727917 -0.7320861439525327 1.3090748605758682 0.47751607774729377
Ni 9.13683672253562 8.389062848778174 4.155106976859781 0.682416030420915 -0.7484771837160464 -1.9053607348659187
Ni 5.678474547091642 8.17626999807749 0.19475899696933266 -1.0076189284523678 -0.876314232667394 0.287697187776511
Ni 3.434104232019383 7.844643581522084 0.6698577642366597 -0.9499310868225961 -2.0885456644599514 0.6496882011705908
Ni 7.6057345755758865 4.6845244033358835 9.080220136035427 0.045346546455599324 0.6994866127499566 -1.284734998278923
Ni 5.7272756050618625 6.082479233978753 1.7808789323377925 0.3584580605401569 -1.2057319401111428 -3.081067589369881
Ni 6.607322883636233 2.380608518378378 8.671769539380739 0.5071472703501653 -0.6043012883953592 0.11559499835920092
Ni 5.523304660976342 0.9605943216633899 6.709142772447427 0.0814270942282404 -0.1745010286667898 -0.028280849222564197
Ni 6.773697235087581 3.2089938287037842 10.8057225162961 -1.0045235773564958 -1.3919800820115316 0.19596819740163024
Ni 5.495118715336237 1.5590213196156464 1.2426414390602103 -0.0871169455241661 -0.48382993578046357 -1.223427300508377
P 3.9323533748734882 5.916794812658935 9.358529671933042 -0.4846341768493138 -0.1508309387433596 -0.7364978998669832
Ni 3.0072858554496813 4.421808208317691 7.35625216038728 0.16186354240843737 -0.4139365532234355 1.1186319638678413
P 3.2095089765353264 1.037691714094759 9.700859204595583 -0.21051729886039872 -0.35485363101835016 -0.4210955328657199
Ni 9.020440909812303 3.1564211526812 9.816553128398422 0.25898516455379916 -0.4216272369994739 0.698683657232687
P 3.2322122773968727 0.6814237529616282 0.6944330755217574 0.5237175160040206 0.7379788552878839 -0.4386787931651219
P 7.611989942101758 4.917656394314071 3.8230233666038806 0.24633636544153703 2.9720592430892623 0.6235521662051713
P 4.502410445817232 3.780651537552678 5.9560472376087805 0.5564049789347127 -0.07647257843644249 0.23043049284455797
Ni 9.224365858555723 3.6899671210643783 5.154199399862543 -0.3986575155771779 0.532344081330767 0.5287543070969797
Ni 5.9799556164334 5.50969003971415 10.373145522895227 -1.0770682814934418 0.3127456461047065 0.14098232808405395
Ni 9.176043152143363 7.03265101112183 7.4512923357726395 1.726579076545904 -0.9403177321025483 0.0809234151189445
Ni 1.4600209452753057 5.50576203749864 9.608901637037897 1.386207955414445 1.3713670337468704 -0.7640704101686131
Ni 6.487035864971088 9.029860755874791 4.751093461960106 -1.394913967828875 -0.5635287344636876 -1.667339059937664
Ni 6.326916880045612 3.3336228076633585 4.90219735983359 0.28381482200296926 -2.1517490365913137 -0.9843830978528789
Ni 8.160245220889156 3.205249807856682 2.99035680983562 -0.3756114323909918 -1.3419546420230244 -0.7929693525911504
Ni 1.5919447854922566 0.1224377608618349 8.106910862001362 -0.5274222185491175 -0.09056967995945692 -1.4128507548129539
Ni 6.774736729819086 3.480209962942426 0.6908822351114832 0.3121388657586431 -0.04969762433544345 -0.3049096950000555
Ni 8.385797179488932 6.664734269647947 13.030058180255569 -0.49749894862712385 1.118923526966331 -0.3418693029435403
Ni 4.040598812976331 1.5337054833227068 4.779314364060208 0.7042842912489161 0.4447887627176017 0.8235935052349107
Ni 1.9258617700843428 2.353158498211905 0.2737348391721475 0.5743389377053141 0.9570869811410874 1.0935053440035425
Ni 0.9342849859810469 1.1502883115604503 10.22052009910501 0.2763771347780014 -0.6646450795907393 0.08531177399462726
Ni 0.08035294274534867 8.260349483439944 11.640206808984232 -0.02648467655408987 1.2527713008881327 -1.1128683219111866
Ni 3.846259293526968 8.61635343130941 7.840287822625025 0.9620602659859624 1.6530354988307983 1.6724437281540807
Ni 4.795584756375368 6.796630512659638 3.557800425441129 -0.4681580335711615 1.8549241754819217 0.8483252036536357
Ni 3.5818688680562625 8.943306721107252 11.961007761822511 -1.0181098006813627 0.015325060392844574 0.18767099038984453
Ni 4.418395353933723 6.643493620665244 12.10601267733327 0.2051758320428273 -0.2867818750510932 0.2019848359093554
Ni 4.353045171875204 8.154652187289551 5.650083462225763 -0.6935131687753411 0.10895563866581234 -0.9077608812124496
Ni 7.206329422898975 7.159340581407574 3.1488788364833145 0.9111956179256113 -0.7867398267416709 0.5467096060238198
Ni 2.5232860695787758 3.603081919833704 5.156056691776621 -0.7752444245075616 -0.08489602661344733 -1.038875058253172
Ni 4.587878990511165 2.9543176194850207 9.842471503672899 -0.9374784628815402 0.1296321931785574 -0.42028460692865033
Ni 7.132635685783153 4.592147358258231 6.718150500244682 2.5782634264797593 -0.00894435367748137 0.28935580642585645
Ni 8.683911389788824 8.170640168204207 9.28977031511792 1.549482519237796 1.8901056084790608 1.896492228731695
Ni 5.924669215226798 5.593787923213443 5.062443291903267 1.1571414327969491 1.0742902045276723 -0.8293085533418169
P 2.6253681318399504 9.142954103035185 4.397333166878376 0.07086680221389084 0.785388454920099 -0.9917567646091309
Ni 3.4541765993126954 1.8623973970520056 2.495333780276549 -0.6558164255555157 1.7673955963416337 -0.30927491394728673
P 1.553621466452872 5.558417505137007 6.076534795965491 -2.7625675572799007 -0.6264539132329985 0.12794529239443772
Ni 6.941957395565111 7.886453347492801 11.374539552816772 -0.9362350773927425 -1.6788735429398247 -0.2785011230995397
P 8.927677503860993 8.058347139996389 1.8009135834505807 0.1476643680899199 0.023983250288474825 -0.08081568589648662
P 0.49846624086882624 4.12392397472831 0.25272140717942865 -0.24205290757483475 0.3587398534466338 0.024557634734706096
P 8.189498258466026 0.8989035290225059 8.458786267963752 0.6004284357035143 0.3474028311672598 0.15992750172798906
Ni 0.5232466913796987 2.213111880579741 7.5145184529328874 0.1790919904715819 0.11232095559361947 1.557008909521828
