# total energy = -340871.289239674 ev
CRYSTAL
PRIMVEC
9.26906460137163 0.00000000000000 0.00000000000000

0.00000000000000 9.26906460137163 0.00000000000000

0.00000000000000 0.00000000000000 13.56621297551617

PRIMCOORD
 96 1
Ni 3.7007575455613666 4.3786227929872075 1.174288551265279 -0.13369942126939555 -0.9033203289425927 0.6994200211780792
Ni 2.2025337174400152 -0.2811223934215265 6.476781279267629 0.18976978190040222 -0.07590307908621767 -0.4378817511851233
Ni 7.761423608492667 4.8223700015315485 8.819083224924215 1.0089926688714428 -2.305254179732726 0.028677570440350613
Ni 0.35748373001656436 2.193533455512945 11.034446254962848 -0.7132031910051008 -0.2806881034485295 -1.0686520324052886
Ni 5.661526245654554 1.0391270482575174 8.636739401332145 -1.3737257637870341 0.982030281349986 0.4320535745391204
Ni 8.38161673469273 8.617115864230394 3.556274144077751 -0.6032288812667869 0.2889616563112314 1.568465230987886
Ni 5.893317749269634 4.5854434360136915 10.619794640845978 0.38289279654375347 1.1162997161902388 -1.3401713248703566
Ni 5.578132469590858 2.6140523876523036 11.621469105846524 1.2717784381182549 -1.8615295966135814 0.044646949285413434
Ni 4.027899918840474 6.918124092401174 1.5684981698579887 -1.9232473853383523 -1.045715221103457 -0.26591068802903883
Ni 2.153973086918985 1.2470136337367435 12.075801586399837 2.034510846201735 -0.35678812903690166 0.05617654719156776
Ni 5.959471064793321 7.1455405974276065 3.847242138136697 0.8010906961467043 1.7202945290887726 -2.2004827543515906
Ni 7.917709310194344 2.6266305085946664 12.926118711456299 1.036187741228996 1.1434564791106887 -1.7152667368568781
Ni 7.677992756169744 6.981413266899665 8.754860655599714 -1.3839929500409973 3.421749042652907 2.1254142553515263
Ni 1.713636894223421 5.316281388808437 0.34640070922748323 -0.6314323402841965 1.2601549949467135 0.6373163098687992
Ni 1.1439045568297117 7.565327273447255 1.6166852570673187 0.7610858736189925 -1.1318502623303281 1.3663243291166403
Ni 0.5609897554682587 -0.16417460275845377 10.13615893881353 0.5897884394911649 0.7725733054333017 1.123940006344316
Ni 8.432485362350569 8.476661725218143 1.3294044969883818 -0.6268498631198366 0.7018713109320492 -0.8363533760037402
Ni 8.079213495382058 2.91699323272175 4.946078648064451 -0.691623407951796 -0.024774635841518622 0.027744259992803832
Ni 6.8050971161512335 5.047163361217753 12.792002758958708 1.6130764419393573 -0.1792035763487817 -0.4448080459913114
Ni 3.3970751753074038 3.2549526046299926 11.636989227958455 0.007635919278702978 0.37218260921510093 0.6432319040222857
Ni 6.405072086298952 1.0865475838073533 4.3610087891354965 0.967487864759437 -0.31313773933680267 0.2799363128841695
Ni 0.0805212928801759 5.369217017918115 2.3362918840360796 1.6474886008706402 2.911916255050779 0.08643997406179951
Ni 8.622899760669622 6.447774667862301 4.8696598432676135 0.11192012061077498 -0.7672233539752981 -0.8429564831425548
Ni 9.180091053380195 3.2166157525904846 2.2543922812191832 0.032406698465479666 -2.536946312898528 0.3486665283710318
P 0.9246911741569946 8.64033487157057 12.19561907952699 -0.7956199028401202 -1.0469709478874292 -0.9528503173519204
P 0.8934868674860558 3.350201514581149 4.827278898253049 1.755573149785409 0.4998232258849263 -0.5758815996020856
P 5.17762544836864 3.639739291940458 13.410825917380375 -0.27022551335430883 -0.14425868484248058 0.03342871197209082
P 3.8239619549687984 1.4306338075526643 10.41019698600348 0.45379405154000557 0.049090072658431586 0.6413578269280246
P 4.792764608539723 7.632203576025844 12.759268129688222 -1.4483867429360346 -0.1869135433985297 0.43301285312859616
P 7.8590639371638895 0.9652804089444714 6.230093461602092 -0.02287973281165092 -0.28034383273523333 -0.46023029408365257
P 7.524636078946907 1.1722122807486324 11.35861047771964 -0.007390378926800176 -1.0703880412597886 0.1893766602270416
P 2.4362809937292575 1.7586938182476102 0.9520080350481052 0.005230138050687767 0.3309770815110687 -0.03759852707906428
Ni 6.8335624141718645 7.524348737937907 13.440685282747898 -0.42153339173408694 -0.8001926098124671 -0.33008516582441866
Ni 7.04762219681219 0.5843793136008731 0.011327724099971563 -0.13500014235869007 0.6739671283226134 0.7825769536132329
Ni 4.510808926192096 5.223377552253314 3.3241294890935453 -1.6289126376406657 -0.06050602780485708 -0.6302660878902371
Ni 2.9066396873329374 3.654940558223048 9.323610472123939 -1.0543842096323648 -1.4225060185145308 -0.006648101444136938
Ni 4.377538312404853 1.0723195693294414 0.21750138640296435 -0.4099590566329262 0.7018880231025977 -0.04504932693015467
Ni 6.739101374729256 7.689597625307428 6.045145030799406 0.6789563540070886 0.15888646205798443 0.9696334503475301
Ni 3.686659297990745 7.814183125371023 8.27382956077788 -0.3459943808555073 -0.42709597342352895 2.120600121792335
Ni 7.728889191022002 8.19440943279671 11.065716371993913 0.2622905747779483 1.6854411688550135 0.8834097060615947
Ni 0.6622589230112088 1.228114010596377 7.988437836106499 -1.479513032027194 0.4383934007142192 -0.7713227208556523
Ni 2.502499192706589 8.245787859018904 13.507878587342868 2.3055393150733132 0.6308247886071846 0.17842016121553786
Ni 3.189355432994694 7.512234070235867 4.276599123569012 0.05242093680387746 -0.34410487714227833 0.032455806535860235
Ni 7.391170814798728 4.7619356989934465 3.258482264508292 -1.3488385136270513 -0.26083558749897656 0.5217760760069337
Ni 4.649298023465376 8.743193683727826 6.375374002659063 0.21744307944595456 0.8402280284677982 -0.8901002307078928
Ni 2.506271702082817 3.103496085692479 2.84606912954218 -0.9638438402489466 0.19784690248158185 0.2983916913758797
Ni 4.784320490501041 1.9969180528383712 2.5374519091852594 -0.27284880990976873 0.2830362919657319 -0.04390852845749212
Ni 5.489325559680189 0.18897583946109175 11.857697710784453 -0.40338885961457627 0.919828611010261 -0.4773070470602812
Ni 5.80259214294403 2.479956827097285 6.500699174094212 -1.4952816077153603 0.37204762629913346 -1.155081979164759
Ni 4.0196319130331135 5.573303286826693 9.80027305670249 -1.4498579281649224 1.585717076089798 0.6240427326883445
Ni 9.536477326123675 4.455945331602676 6.6883059726833896 -2.4255008179313258 -0.40246711913125527 -0.359492158231626
Ni 6.775102422437537 3.0949407388761188 1.1963257528426314 -0.2733828280363679 -0.0995446297645576 1.7364359147353257
Ni 2.2447635766982352 5.175002303028413 5.494683079138322 0.11442540353113197 0.3288996301567497 -1.048859937380026
Ni 0.2559911780117786 6.572267477277831 10.227608459100518 -0.14707352858345638 0.46196501738657214 0.22463651187060021
Ni 3.0368051644100182 8.936370263359205 2.227504578028612 1.1395211486120247 0.6902234422804757 -0.1671898397173572
Ni 5.868662036884457 5.625970113056984 1.2181590349942417 0.488507543761791 -0.09561315592063534 1.0107844706645432
P 1.1507358575920708 8.438806864548573 4.240187456289806 0.5613065300013881 0.48176405439037034 0.27378520568110915
P 1.7380516109236297 4.551926497673541 11.630667725760452 0.5364732730077922 0.12054411483436014 -0.1656579764538631
P 8.669439735062845 4.478506235341593 0.508346101899984 -0.12274497914042087 0.07626509041132673 -1.048949925990671
P 5.774423454997206 4.210815643731103 4.576982633658357 0.7499136590522568 -1.444678697956828 1.748927105223801
P 2.3013326792120448 5.638427736156863 2.5889081955518267 0.6069127578762773 0.1724076364728708 0.05156604500274991
P 3.7203894248214433 1.5806258142507577 6.406196423859975 -0.36865325590560377 -0.2175425811382963 0.8960073402209472
P 7.5092679694978 6.168025022938611 10.906828843801062 -1.3139699838846404 -2.174390942360546 0.5539205219499622
P 2.171880920125061 6.967018409255238 9.583416797210056 1.0059387125364674 0.20435256481058356 0.5415437455521641
Ni 1.1562046058278805 3.1743766242674587 13.199627495045801 -0.054230479208790476 -0.42560679047251215 0.6512820280202719
Ni 5.616422976306333 5.858197262717967 8.038171003325546 -0.1608222456281166 1.4174450590518557 -0.43193504668338517
Ni 8.98999180326456 4.461284312931195 11.059733190661344 -1.0318050387802682 -0.4658031601857397 0.1230339711357494
Ni 6.961901885482074 4.838804053433398 6.379145585128811 -0.4301481299862915 -1.5021654793193873 -0.8918845763018252
Ni 5.34348609401539 7.791279266234266 10.354914429684808 0.0883608452335962 -1.7360556485777712 -0.654329556597344
Ni 2.709208606955395 0.7414742046601548 8.672974956380028 1.4705707352322417 0.5207676893470774 0.1845494140417273
Ni 3.7422180724406506 3.316286006454321 5.050538227713784 0.8594516525841005 0.060648466919992323 -0.2579703501360396
Ni 5.018818561039606 6.133395796821687 5.514123088756905 -2.022636720471968 -0.8813859907633464 2.1433050195890186
Ni 9.113075714829508 8.404112754978003 6.163564748953744 -1.000327022776645 0.5311708869582723 -1.2165480568900404
Ni 0.7055463825638454 1.2273261400878281 5.278139187129865 -0.6051613224028094 0.39332813294446456 0.017207879237854235
Ni 2.169026048164672 3.175359145136943 7.075119804467027 0.3150182441889671 -1.3890521097314594 -0.2983245855833701
Ni 7.389641419105661 2.7676593296249155 10.029121632241521 0.04196914534293417 -0.3545579541548023 -1.0053571290013847
Ni 0.5868115162060877 8.044519385811489 8.193151620702475 1.129835031672512 -1.7272210810052768 0.2916713419329106
Ni 7.728916998216421 2.590249429229321 7.585737754151074 1.3993362652662866 0.10646938190884889 1.2659440908246649
Ni 2.082795938270199 6.600704968104042 11.93687035473529 -0.13823510435622 0.00017920589034162686 -1.2958750740561424
Ni 1.7732091737345226 5.524075283639598 7.951917720769056 1.0354493204010748 0.8756228630273242 0.892423993745063
Ni 2.9522156789862883 1.128045186945863 4.306526153109621 -0.47594744770859315 -0.08062311026970631 0.17907322141850449
Ni 4.096481729343452 5.525966172860115 12.72475569378786 0.7019271038706492 0.3882278356034217 -0.8173228417348505
Ni 7.762063173964314 0.04140862011636769 8.88344112259489 0.3704733398334781 1.4516021645495387 -0.641738864416527
Ni 3.0115840390716477 8.5716232941603 10.908754955467845 0.5674594369766613 0.3600413458668767 -0.6232354062957008
Ni 1.079790435563446 0.7250336644129413 2.3024171597944 -2.028700924388177 0.8398068817699793 0.8689251392921746
Ni 0.37670220898627305 0.9286768720237714 -0.0953740423260432 -1.2201010643486212 -0.012459823029907575 1.6076107908390957
Ni -0.16497266923828974 6.861295456072785 13.14308341900697 0.16997845820608792 -0.42185837917367347 -0.7089277035581985
Ni 5.448254333522777 8.645145516205119 1.5517712155082557 0.8989260565296389 0.7306357846592514 0.6154555052399658
P 8.30160616728339 6.291859728752882 7.025711054516206 2.255182459887316 0.3058216652913636 -2.3053631945067647
P 5.810535731483164 8.180589257170283 8.287572803166414 1.158065487273115 0.5685706677629692 -1.1055784731179927
P 4.902399107070502 3.9521253140476844 8.43889028613183 0.43269686455007417 -1.1207073583396312 0.2795802150963314
P 0.4851289483727696 3.2480378822843754 8.806520861392023 -0.564681360010892 0.2730388144333878 -0.041406587971244815
P 2.9582498401752924 6.927198506846696 6.576574811693391 0.1474764204488299 -0.8392708067608514 -2.1781956608186164
P 4.670385145900067 9.356472087582272 3.598953552979084 1.009000639291243 -1.623900272027739 -0.22728371968546016
P 8.027742378511801 1.3804603597553105 2.435338329838441 -0.9042238145934685 -0.9629478107972382 -0.26536227172473653
P 7.530688778265524 6.761949619477174 2.336007323746521 -0.11832962368154461 0.3850188417478208 -0.04900316937158012
