# total energy = -340867.2898224483 ev
CRYSTAL
PRIMVEC
9.27400820003046 0.00000000000000 0.00000000000000

0.00000000000000 9.27400820003046 0.00000000000000

0.00000000000000 0.00000000000000 13.57344843186276

PRIMCOORD
 96 1
Ni 8.884091971611713 8.518529109291324 7.67076325385523 -1.4266398381772463 1.0515439119700922 -0.7229623272743937
Ni 1.761848289995447 8.221371332781356 3.8068366928345854 -1.0465222903857847 0.2847812996812966 0.8695596875523799
Ni 1.263667107841947 5.583490937208603 9.983950414637143 -0.35433272551787365 0.14344853023635942 0.7282891388039457
Ni 0.6220541120843291 6.629191026096871 2.1114042138520634 0.8155685780479051 0.6984872249511648 0.24015003412516708
Ni 2.062177777371353 7.521944168783206 7.651963911468258 -0.659461992727903 0.5224844149278679 -0.553632301285582
Ni 8.960120292310442 4.181186678094965 11.590082539528405 2.039307239149114 -1.6332161501120257 -0.9890658480405289
Ni 4.901573101031775 2.6181824017737654 3.695927899218071 0.4027216583442226 -0.07521145233583175 -1.7994947908690233
Ni 4.618140856924116 2.1731969316875888 12.609054936265693 0.4696960674822427 2.719872589514535 1.27690316093933
Ni 0.9799288214577496 1.09921111724051 13.32391405020806 -0.5844935096408127 -1.275578014370003 -0.20816011148213184
Ni 6.540104901599189 2.544120170851582 1.499336353991251 -1.4928372599399258 0.5311660018622658 -0.30404091924185705
Ni 8.309863920742723 0.6624201609588465 5.2630368516482315 -0.01691297370525474 -2.642361285400933 -1.4608033714328326
Ni 6.852101091517057 1.3235586539595858 6.845836498856409 -0.7628995297889635 -0.09267078546285974 1.9867927141901653
Ni 0.48242649671766136 4.759875526994705 0.6536432394280733 -0.8732993571004701 -0.23444269932774464 -1.017964276242434
Ni 8.714767126610809 4.6149784200665565 3.2504063914475343 0.5860312864415778 0.26123976491593076 -1.0574759611838112
Ni 4.233028384938818 9.07223377961551 7.000437928153325 -0.15493956159509445 0.16709599445197026 -0.13630034922735235
Ni 9.30210862532903 0.48512245095370926 2.8512929490110444 0.25912606100703756 -1.0207130426321647 0.11806094340119021
Ni 3.984855920691682 6.325754745913686 8.291978995582014 0.24675956902188473 1.851364483155121 0.5990510957400135
Ni 1.9052430075660456 3.149304861692804 9.864585580179801 -0.12866340150738487 0.7553093761465315 1.7478834944506347
Ni 5.690781940156104 5.4582269060207835 10.120472164597368 -0.20318785507852102 -2.2494527564923903 -1.2745490588848567
Ni 1.4329919528428519 0.5753288756636885 6.38834317366821 0.028703281471963465 -0.2782545543063724 0.12283856729549168
Ni 2.932858780113435 2.3418355000683784 5.3062008688509765 0.8064216214413144 -0.3189594882249023 0.23049399909264176
Ni 7.975471000587305 0.8135466193157993 1.0223722482093731 -0.003374830009503865 0.27212838680397655 -1.520970270730716
Ni 8.229133677795364 1.418951104155626 9.120747044851804 0.22015765016364022 -0.3678580136978181 -0.1411805601377891
Ni 0.25084801566474807 5.5696726647224954 5.1626336547245115 -0.3571069458289011 0.07532406665429608 0.16420504605742042
P 3.0867794971952636 8.170976371244775 10.70413002718708 -0.31958503762404317 -2.295130203924847 -1.1333368741781835
P 9.011368462617979 2.63387402395262 1.9901391350776723 0.9455789805014876 0.49009468574325266 -2.2807304835597493
P 6.867050793025516 4.06566962971446 4.481016296419193 -0.39012145308170876 -1.7873036481194702 0.14327832320708228
P 4.383183854618391 5.965552260436901 3.0229288769002296 -0.8443723896534748 -0.2573355447655181 -0.22458200448358098
P 2.422352440822998 2.1434273647879882 12.053820054558816 0.7293844287506536 0.5386108881760853 -0.1282579385388501
P 6.823629885790648 0.39710283741971947 3.108048508013813 0.19119185905890942 1.7388692067671665 2.190801265397769
P 7.698641850446161 4.9160405541044785 9.555042365478426 1.7503746363036048 0.49922827261340474 -0.09549077141015812
P 0.3004203726580297 7.447223483266047 5.958268454255298 0.2646930135718539 1.5737797012222638 -0.010235561685079145
Ni 2.651578105949921 1.0895568745169946 3.0029628642590613 0.08366652508172043 0.8842859380189609 -1.2836448505385376
Ni 5.652202065295562 7.751874658547004 3.37840440030576 0.4795981570873031 -0.43076828006879364 0.15008326194405763
Ni 0.6861903718374652 8.373177575952559 9.667064040100533 0.48596318007338246 -1.9230339837759658 1.920851631412666
Ni 3.8032430145873595 4.67127165093278 5.5306105414261975 -0.13991017806579775 1.2317265644026916 -0.23402180974024214
Ni 6.803143601279365 3.249232301986634 8.591870749762386 -0.14150297647421436 0.943174227714737 -0.8921810244963215
Ni 2.5258596483514846 2.558587623924285 7.757755307260723 0.7829320229598065 -1.0496135277165988 0.23388631260364237
Ni 7.617438633071425 5.7936306930896135 11.780558615441434 -1.1957671155889469 2.670191420239324 -0.1867919302190009
Ni 2.670710385237733 4.936359906464921 1.533962719079425 0.12845694192353363 1.4804941649935404 2.405144365762161
Ni 7.604065512987556 8.186037360853792 1.9888769425371629 -0.24276818847430445 -2.899946484283412 -1.1282782287083535
Ni 4.102051564588956 2.9377369085212828 10.204790521386926 1.6628913085789554 0.6915712145576218 0.9659133211834655
Ni 7.910664230028299 4.3448729260008685 6.444687411580523 0.13698554821983505 -1.092472274753338 -0.037499796717670904
Ni 0.7125229912314606 1.419711572842781 10.8215269170662 -0.5587418545980055 -0.2926661017460121 1.016450924921701
Ni 6.769877733220528 8.09384444354883 6.16267130855248 -0.08604633816780664 0.4122049152443094 -0.2120617605293832
Ni 4.232184450176243 0.20963988682933238 11.746923641849074 0.4259019531154277 -0.36779142212594074 0.8336627165454545
Ni 9.280500185803774 6.188397407798427 8.040761874383744 -0.08741133683613332 -0.7917642765394557 -0.4629335519474286
Ni 2.8099596210624993 6.686170533583209 13.316625607022265 0.8706855736267068 0.2927643178867732 0.5520335893398944
Ni 5.3741672940650265 2.9376348944291033 5.8627934653846765 1.0242056291664552 0.5585233108292962 0.5145412488213913
Ni 2.9410662775296808 4.22224271319295 13.03839700901659 -0.11884358720348566 -0.9682586814871905 -1.768251773694342
Ni 6.4079873782185945 5.862527301344172 5.003078050151033 -0.6685392724388228 3.180461552489187 0.49645790895711917
Ni 0.6456267865844552 2.1008782143408338 4.267288426695984 1.7517841150566218 1.713360778083417 1.4395696588650368
Ni 6.926024212313541 6.210840508077877 7.455406868260504 -1.1589080377790686 -0.5359335984542383 1.4901481431435368
Ni 3.8142698105511053 7.584265505096388 4.926931022145039 -0.6802557895448026 -1.0241819750173717 -0.9809321631898009
Ni 1.4120697899377121 8.18664944540687 12.037164862909286 2.528275267487091 -0.7245304430924618 -0.8228494279800344
Ni 8.43385741278249 2.577024352583601 13.233664965059534 0.4033330666759763 0.4414252455620075 -0.32964756406636775
P 1.120986488916604 5.837830617028398 12.204838007017724 0.12501552034215244 -0.2938459809867262 0.30332743811460017
P 8.833539351932671 2.227561168810784 6.4881491244522635 0.8839532372698905 1.432457473300288 0.7848084140469128
P 8.8532187977149 8.961298091374694 11.646181943619487 -2.354705749495635 0.6590506162220973 0.2537048899914663
P 4.8739643780847 6.645949159239419 6.382140716863708 1.0865952471472704 -0.42768527026809566 1.793139280964641
P 4.878879602526068 7.8160600705445535 0.4212245332159377 -0.11768144857458442 0.4787993153350915 -1.4578252626411152
P 6.580613770202757 1.2942156914454626 12.903245957494919 0.5102907010751534 0.6051158138768545 -0.24170478020679667
P 1.016561154558504 0.8693789319655388 8.729791020186306 1.6247983583619758 1.9713858927167915 -2.2499140123995254
P 2.0032414541168486 3.8078707447689486 4.084576550598639 -0.27050113561319866 -0.4812801727754163 0.30036938392754076
Ni 9.174053117618849 7.837353193784891 0.0601632745631706 0.7397179494661776 0.5671246793450619 0.7596707384390208
Ni 4.943473070892335 4.828104406645908 0.9218410699700091 -1.2394401309968652 -0.7711877379396848 -1.2248424356883487
Ni 2.1410346706259644 5.809850933746125 3.8351103621825016 1.396051423867428 1.1121327292967427 -0.880451137653903
Ni 5.492550011034933 0.5126467804245267 4.963050502582383 1.7669271413456473 0.33508519014217125 -0.7086291984811731
Ni 6.400123019112407 5.1648436509214495 2.587940787847626 0.955784974500212 0.4628111674369514 0.46556224781952726
Ni 6.611023243680574 0.040341009051891516 11.081919742155577 1.2685439903413571 0.051693571719549684 0.24224625453256346
Ni 1.3489416148954754 3.923332149099174 6.30971256621807 -0.3522143936232902 0.012342323615436808 0.16806684300567185
Ni 3.4537983788313027 7.865193766941465 2.0335331476882392 -0.010511698164601251 -1.0647964061046242 0.6778512938683681
Ni 4.640212996868367 4.264402355288147 8.223704673289749 -0.40333820888229893 -1.4602914647934204 -0.6068410240980774
Ni 7.097092570889875 7.158189738096905 9.902305754463521 2.041315270718078 0.6635374483488573 -0.8986776879642586
Ni 5.7671812211900315 1.3340290094205354 9.361159946287446 -1.5413979424574487 0.6147469092087154 0.11283671888777341
Ni 6.945388341810852 8.157306482892746 13.083161720065712 -0.8809455607918183 -0.354701421711202 0.3761040557566942
Ni 3.350532295520695 0.7680381327946064 9.603866309995446 -1.8190130634076092 0.4083305198905678 -1.4838057458652767
Ni 3.2303875169586003 0.6605903991054848 0.4494360667077086 -0.2914150029477304 -0.150743778346192 -0.24779109561019258
Ni 8.5133171165818 7.42283284122681 3.927409930583833 -0.011109479649600221 0.06930948502909999 1.6261913820547609
Ni 7.099086482691561 4.387357158389363 13.519141200614131 0.41002770508733255 0.5828906839300672 1.299460991635188
Ni 5.180822767360083 7.2633106230835 11.428870597058271 0.07286969157653257 0.4509393557000298 2.3697585300636996
Ni 1.7700928834452117 2.7912168501266454 1.2750611545375388 0.6385658660051841 -0.3833525097889914 0.08429824512844837
Ni 0.15423603336674585 3.665830032421821 8.50821733937367 -1.2007619977003772 0.15722912896021954 -0.4865061970610461
Ni 6.873524050874714 2.795093385629459 10.987177399946972 -0.04508712214662557 0.1746388397962347 1.1293323810044809
Ni 3.590849674670024 5.602409914303676 10.969124615234586 -1.605941373556473 -0.20471123370158295 0.3838785574957905
Ni 4.920547722177128 8.254646474848572 9.340622654730074 -0.661915339364402 -0.4463723051546377 -0.22699601324171229
Ni 5.10675126242952 0.369732456488009 1.7769816168698294 1.2225664951699782 0.08503100952941484 0.43549319634828865
Ni 7.7590341930163165 2.482716961368013 3.6114333362692954 -1.8264633490380673 -2.7707110123226415 0.5419152699589699
P 5.56901421012752 5.178022016829342 12.290486256608965 -1.5576108047718853 -0.10954390706911457 -0.05085693475086725
P 1.6089569878437922 8.848943479851748 1.536446298523572 -1.4443084591016029 -0.048440097779258506 -0.4121154408542967
P 6.846638700581273 8.946849186318753 8.830736746600255 1.9439067134599164 -0.5278076269129942 -2.317576191633189
P 4.268918797369177 2.4139687372475347 1.5274746228168203 -0.9660439332240588 0.6870558431857716 -0.39831761573925595
P 8.013809751229967 6.298044008874432 0.9969661022525335 -0.8505762044713415 -2.0608793088929347 -0.010063040662956862
P 4.732415188181709 2.1561234822601234 7.698697494496441 -0.6451352916925858 -0.6682304829491524 0.4355196787108499
P 2.24014599818236 5.101390885585915 8.14339083331865 -0.72840175312241 -1.0643492912648767 -0.8062447295438179
P 3.4607631591246357 0.35201446347813775 4.764117458427689 -1.6853612075466977 -0.3383422636268883 1.126899603193272
