# total energy = -340892.9524230533 ev
CRYSTAL
PRIMVEC
9.05407796874519 0.00000000000000 0.00000000000000

0.00000000000000 9.05407796874519 0.00000000000000

0.00000000000000 0.00000000000000 13.25155830749026

PRIMCOORD
 96 1
Ni 6.374107197817202 1.9537795129246058 11.48894242979772 0.2059718455815614 -0.03226425935034444 0.3220823501246001
Ni 4.874905783995455 0.3537283447923614 5.9980261450147 -1.1944710224853428 -0.847117813609096 -0.13410848378235612
Ni 2.7820103610838864 1.5526566909166406 4.81221082020081 -0.4312146235775929 0.2869842208698864 1.1931168224502937
Ni 3.349456597765493 4.4103319826716 4.81149554803101 -0.1776953672343714 0.6165358827883382 -0.2110348619267656
Ni 5.045031911470562 4.34611140671732 2.626883219387133 0.31417029436637506 0.8843491871567286 0.6127900425926608
Ni 7.57638917446925 6.174700181770808 2.3657210528527415 0.16951925918148225 -0.43414799517430386 0.20346656266120441
Ni 4.926441596533416 4.55438236522237 11.462770711645538 1.174428759122487 -0.2864257772632551 -0.34495308407518654
Ni 5.557040027953653 7.987688780260187 12.464667831816527 -0.016590043148197234 -0.19998271787766203 0.08813433104508692
Ni 1.6922162507304406 6.4811897794908635 0.4682026758258243 0.8250212388203727 0.6193139597541076 -0.7997748055487582
Ni 2.651857988414666 1.6098603563444065 0.10383397845183726 0.06536721255190032 -0.4355099085188371 2.1400692862605406
Ni 0.5541258769827571 9.221306921211934 4.984321601595158 1.1284774892033533 0.44018494539700315 -0.5884604647083607
Ni 8.717755313673054 2.2010826021132734 1.2581085168009976 0.30164619375743534 0.4305114268629811 0.9099676590557811
Ni 7.015461874018729 0.860863556442718 4.858511564782087 0.5478766297487274 0.8801914562346131 -0.4594713044304409
Ni 1.1074224004116706 7.536904339880696 2.7540577057696827 -0.645015992505902 -0.10120890484085794 -0.845004623920835
Ni 7.866771567251669 3.849993197297496 3.847152932997925 -0.4804908441049015 -1.2141641300388961 -1.004803827601076
Ni 7.532712301720984 3.82945854816958 12.737570421421541 0.6702038046254394 0.28404827817001405 -0.37063917598738105
Ni 8.069347510632618 9.09744713282133 6.860198921150494 -1.522133952021514 -0.6206979845858277 0.3254440675079815
Ni 7.079039610428 0.556696329754986 0.5216823989315835 -1.155484099699184 -0.014831665696193812 -0.7073279631712464
Ni 1.7620231928716366 6.311452977374002 9.22902099575205 0.9296049736707346 0.08771832655359087 0.2594998994066886
Ni 0.2534598622958034 4.517124833846102 1.2225911792353057 -1.348816145029548 1.6956240229252861 0.26559264256798776
Ni 6.336867774597133 1.8702828046981321 7.011028997381591 0.5897421596342618 1.1393424569423152 0.45944662184009266
Ni 3.7784750343956404 4.19444654448552 0.45717480870157307 -0.33196027135994444 0.5199094551118402 -0.5163685318381172
Ni 6.5458449511938825 5.595592292498039 4.522094617314495 -2.0265982762228774 1.126529621448363 0.7970175545185951
Ni 5.449269336344489 2.7236658818156805 9.164777784602522 -0.2353778095475043 0.35422062542004157 0.627572600218474
P 0.17393789435467166 5.592713095662643 12.453191787826388 -0.6486132229388571 -1.3425035725479588 0.8018334878499997
P 3.9141322865488886 6.174772614395597 12.536331765375772 0.7055371898194108 0.23208936860421964 1.0716226849978383
P 2.3639835752655953 8.597354183116163 1.1940644953696422 0.5787758904307452 -0.12337978451094236 1.1276660490456514
P 6.558520660532103 7.662719809140626 5.816652136317543 -1.4307685156336394 1.31765257494255 0.6376168718283535
P 4.675625525042442 1.0702554098163903 12.649049605258082 0.26052217002361583 -0.4174237404410876 0.41134076747180126
P 3.9342685562404607 5.962427320746119 8.21501223530839 -0.31764436895790454 0.2632773641712498 -0.3413638240620314
P 4.787479605874133 1.230059888258947 3.8355311183503975 0.09451580909139852 -0.5441878680432305 0.9753549262123395
P 0.31329464281906 5.431966993097819 3.540498551056472 0.4191389233599814 2.0737757052396284 0.09567074863144814
Ni 1.5326652864746482 0.9236155609293849 2.658752668886847 -0.11046564755243557 0.7688575471446114 -0.13671661082916453
Ni 1.7703710528786643 6.693942506654784 4.773462987569491 0.24048093510202456 -0.38611001792947053 0.9750391947441336
Ni 5.869342343813093 5.7687696442924175 9.224369915832732 0.27151055071431945 -1.3863959030555348 0.2701496658110509
Ni 8.473956152708594 2.4036223291818284 10.213440123561256 0.9558137708556182 -0.36560829843169296 0.33707393843742595
Ni 2.171167928075075 5.584510100905195 6.945128889939997 -0.13642967571636505 -1.2376714691322168 -0.1836299875512515
Ni 0.4695327198985275 9.137194535674746 9.311790661507196 -0.2587311395614641 -0.40299316683805436 0.211155703775346
Ni 1.3511038583608472 0.8624000334960721 11.471874587173808 -0.23753779331330058 0.19556273443309544 -0.6376904053787663
Ni 4.018670672276807 7.189879634512633 1.7477349522240333 0.14252781819430294 -0.8507937197987863 -1.178051700587055
Ni 5.745192824923329 7.9470450236749945 7.995129421641721 -1.123276147508072 0.06671729882189155 -0.6092061818961443
Ni 5.2230984654382535 2.9932782194396155 5.08989667926538 0.0512827094343762 -0.5125956950592463 -0.8856277967588361
Ni 0.6755455913257545 7.6253807910614695 7.157285858765021 0.947553330619039 -1.2658669577298265 -0.2179555003059988
Ni 5.131987277530749 4.334685160156725 7.15052789487213 -0.6870134199836104 0.3243726888206736 0.39842611629266217
Ni 7.935374317005734 7.223696616211384 9.03833124609911 0.8667751828287074 0.35437592005098323 0.33917607238209324
Ni 4.733218515828454 0.4905943163717896 10.49031835885942 -0.7552808369014411 -0.7313196981001534 -0.18187238143019646
Ni 8.191124861060516 7.471017813556249 4.596382422706751 1.1326074522113267 -1.303707939837 -0.49579739255498484
Ni 6.9780685314709805 6.0483505219030524 7.055911873332608 0.5246102030216191 -1.0684342599675276 0.20080649933053804
Ni 2.3331634934175236 5.323598732334139 2.4500941958391715 1.0056579480712553 0.1365608019775906 0.8143758432913847
Ni 2.5961935162636833 4.966207107543032 11.347998501442625 -1.6392340741713318 0.5085917161061757 0.0673950416152065
Ni 1.1625255197205318 3.446362395656183 3.429993527861492 0.2442797400228244 -1.5617384537870136 0.5697430908045155
Ni 3.469504619276533 2.617814654763447 2.8005848023034283 -0.15715559540980675 0.31292330933315143 -0.9767219817631951
Ni 1.1585055090446963 3.241704014312526 7.93646442800882 -0.6893574947357548 1.2918021895383496 1.1082729892310201
Ni 3.418702187064568 2.604215429459157 7.038658422107671 0.4728469544063985 -0.28662298087572574 0.030482227749257178
Ni 4.246842494442862 6.756162131349246 5.900998117069677 0.1472455353849464 0.22329079647598318 0.17571818890334254
Ni 0.4891583395853312 7.185497460712848 11.173396037755506 0.1025196532324815 0.8919195433048188 -0.09067998028507608
P 0.05408725174618383 5.547053379810756 8.114008561670216 0.1085972268851291 0.4210320266176362 -0.7884308412908486
P 8.35180758507865 1.8097925089205278 8.055754623182997 0.25014776876782724 -0.31760785929301427 0.5655856169927164
P 1.6423826048750392 3.1593300117702947 10.489019098652252 0.9648072326034803 -0.4931954361557636 -3.3638184888847102
P 4.2784412270074235 6.199789032182384 3.682104332520585 -0.4316185438842309 -0.4562756803112787 0.5768203093662712
P 6.835086530135861 3.902162795302369 10.575247422241112 -0.3992956633818091 1.1918752367337087 -0.8555471753233717
P 6.198711596888636 7.800758283833839 10.282215806207008 0.6180880577668065 0.029855392798535683 -0.3476134045161691
P 2.606641922389616 8.615706799422286 6.0018424389333145 -1.0226058887795035 -0.2387133016786405 -0.6348513932680745
P 6.9327347624306475 4.02455582304098 1.6562462092598123 0.923751343103435 0.18437046526170184 0.3481695341299552
Ni 5.634171719276721 2.637815113283538 0.6023958835505078 -1.0866926919570832 0.193156438984448 -0.7497614497451087
Ni 1.2119970024519837 0.9871480269481622 7.2873630825860225 1.4475153960746747 -0.1417937682417558 -1.0371002257409365
Ni 6.750539548849935 0.7247517895689137 9.186523869380048 1.1635943875111443 -0.48387390164452154 0.17224951362845176
Ni 2.6856478078791204 1.5647710474127392 9.334888520144862 -0.47979818891325104 -0.48642880685589124 -0.5958405592225158
Ni 6.473910300699486 1.8239711952231363 2.6069262204419155 1.6242098328483576 1.4044463327993426 1.1373133423274284
Ni 4.153196164667714 7.096486818924249 10.200400440283467 -1.1683087622676782 -0.4935548763777114 0.7335359890251819
Ni 8.007806941795561 7.2390523326668275 0.11346842295669417 0.2747650530958752 -0.12434754774085036 0.1610940112322645
Ni 7.517130233313073 3.9051868573873443 8.342664777014553 0.4806607940238625 0.059641108701400505 -0.24798110013381164
Ni 3.1539971597701437 8.268736418522815 12.423998723812659 -0.20120682009275023 -0.09480454397641093 0.0777560731345564
Ni -0.07513798332572741 4.853013023152729 10.335460123282198 0.45294815859994253 -0.3965692655895815 -0.10258187392898462
Ni 8.700235672552013 2.389063371599073 5.8502979959402275 0.255797767964753 0.9434596201656398 -0.18822454890046939
Ni 3.5591852628444376 2.4816594283147686 11.388389649248861 0.6801082082233448 0.9126462343292089 -0.3863612147083281
Ni 1.0282988119068828 3.2377564362614804 12.389200280048005 -1.0987835616833463 0.5415635430465061 2.3436170957816413
Ni 3.0620348885213593 8.389825659015209 8.177496662706309 -0.17310286276768252 -0.9504867022157503 0.049698909887024086
Ni 5.813397195241049 8.257971119663427 3.850292887282564 -0.7399508914125902 -1.7277784961706437 -1.4640840990666333
Ni 3.2662586741162776 8.423343856136702 3.8115984737120283 0.3484117320477484 -0.429297351950222 -0.08538350777282713
Ni 3.5280663964191086 3.9523404961255224 9.2493754687258 -1.0521427218963557 1.1890447092634489 -0.3291336005444267
Ni 7.12823947081649 6.114065020743623 11.389025245531393 -0.22594726026222375 -0.5640650665831317 0.17678159717085037
Ni 0.47754286279247254 -0.02053193290448644 0.38354614019490374 -0.19087921291449705 -0.06683762644983973 -0.08234214984334207
Ni 4.789670692774025 0.4715970497050376 1.8108518360580788 -1.0446659539033363 -0.5875883465160525 -1.5555618926626564
Ni 5.937673471224196 5.602654473415047 0.41019229203946145 -0.6322748907901498 0.8968133810620103 0.08046267343244207
Ni 7.821329149274151 -0.20689745485747274 11.32218441937534 0.3262719627259155 0.3079942474626502 0.1870798937730649
Ni 8.880076825827057 5.107885321631934 5.797159611578791 0.8346939860234464 -0.3695978792070602 0.09900264121815854
Ni 8.089012968263056 -0.19619734536039551 2.6137376033955895 -0.20265152295907682 -0.14369715591205576 -0.19453660716142623
P 8.673064384177732 1.716037530208195 3.5194949006830423 -0.26713813267823666 -0.39037316408119865 0.7697396926392486
P 2.002508561251962 3.399453217026671 1.3118471865403805 0.511661613280751 -1.165826619275773 0.23949131749524563
P 4.565093339613165 0.9042642798089725 8.199574126742249 0.6255835948129033 0.9278054585681506 -0.2896746232178559
P 8.460818685387338 1.6301143290512623 12.455497861518136 -0.10656322717423582 -0.4389276759511344 -0.9091217661157182
P 6.263493525685037 7.750942746134636 1.3647383945697222 0.1540630725274121 -0.4230688545420068 1.1054324344584319
P 1.6998488385676684 3.3979502400622823 5.838186355667559 0.2398875244923998 0.185876360383267 -0.16084075757087785
P 6.935034498267724 3.9367222114052156 6.0409479076495325 0.3091021358148483 0.09305053739978168 -0.3878295717237385
P 2.253315578664838 8.16452397960645 10.405428228013552 -0.399915299243679 1.148551377135093 -0.9730699868329049
