# total energy = -340866.2017755365 ev
CRYSTAL
PRIMVEC
9.26110641533636 0.00000000000000 0.00000000000000

0.00000000000000 9.26110641533636 0.00000000000000

0.00000000000000 0.00000000000000 13.55456536582958

PRIMCOORD
 96 1
Ni 8.247811802689753 1.105627939640095 0.6280354552296394 -0.8805596382073093 0.6010311022845197 0.5477501314731922
Ni 6.015718433761117 8.187207121685558 11.273142097002221 -0.1549480462355267 1.9211179977001753 1.2136113428592197
Ni 5.821892735604516 0.8124222336308186 4.5380551756056935 -0.17353095144403663 0.608283927192191 -1.0297787523788589
Ni 4.8586820918816755 2.547693356590762 8.631004902328836 -0.3230156605721469 0.7564499175088779 -0.3228097152089279
Ni 5.146582109971131 1.6713796752552004 11.643195538724319 -0.6591676014159357 -0.7322393817009455 -0.5582003802722386
Ni 1.2230587701922324 8.505696574578936 5.509999042767862 0.31640304035163574 0.5199395370188271 -0.9236860370831382
Ni 6.8307328511042025 2.0848788198389854 2.543975022326828 0.3836764687873134 0.29989887204902543 -0.33872767199076503
Ni 1.808916368041462 4.259599633935564 2.9073863984596526 1.057145574427586 0.7264626271181682 1.4403523026673324
Ni 2.6287187774504353 0.07410089152183115 7.332979327156049 0.0877311820693973 -0.5961200381361474 -0.48583359647405366
Ni 0.8815934381571527 3.0297895170972353 10.80180919448216 1.1821574952253127 -1.1035532151578478 -0.5663158102905215
Ni 4.265239647800411 8.036575224293562 3.4554651645209216 -0.45890591884527415 1.1667568443995262 0.19995469285320402
Ni 6.2091736876573 3.4428904341010718 4.358945375694152 -0.3796339232868236 0.6264842522503017 1.127815173029006
Ni 5.988046247507979 8.717118375105336 6.511789603991815 0.890830424005698 0.7139768359463318 0.8748322488052289
Ni 0.6542768005269173 2.7306187323845967 1.5779953077573707 0.4272983192423222 -1.2121311587692674 -0.6024408381478528
Ni 2.1482618327963063 2.136565055273645 8.354423808616417 -0.8085037007813237 -1.20708562592556 2.2324212549314004
Ni 0.194593443886314 4.987142900287724 1.3766560738888662 -0.056042849827180906 2.5163304364203887 0.4000369124232078
Ni 3.780133627678051 0.7306198059349214 1.984631972416934 -0.23521094495233685 -0.3943465469066499 3.6407697509986265
Ni 3.0514234619055784 3.7215756512126594 7.186847401417466 1.0460412369843084 1.2067932914961217 -1.1219494582768483
Ni 9.361867349254332 7.878256608497916 9.463432052132816 -0.7463189997224631 -1.4652346677313088 -0.987980328285834
Ni 1.4098182440813816 0.2640471121612159 1.2033955888493066 1.8584051920519866 0.4409627041032922 0.14946439741313614
Ni 6.206663927792976 3.5973842129079143 12.204706613668302 -0.37304392877413173 -0.4817617403975251 2.564109760687197
Ni 4.110616213502422 5.119335934617473 3.95507315132795 0.33594239593614406 0.07733415510578939 1.0127351666330107
Ni 7.641431592813431 1.1569437308143373 11.662741104014563 -0.642182636822165 -1.8510448950321734 -0.8514681201579917
Ni 4.701993430831863 6.185696782653383 10.282628785176007 -0.3702679086908913 -1.2859279901457594 -1.4044357912763814
P 8.797690001745998 2.490033707456881 12.69212883652892 0.3936222671461157 1.9792015321064689 -0.000933053337230651
P 6.478218092891539 4.542359737911737 2.2823580245139468 -0.9175747819790778 -0.2987084512853501 0.7053189031610175
P 7.154075123809039 8.124435341757927 13.259225284809338 -1.2920765262456586 0.8225717488386155 0.0756146013115214
P 5.588596201500502 1.7691306544726935 0.9408997120285864 1.1291166654492488 0.04047379174433029 -0.20041029233338387
P 2.387809613794855 3.8900814841697686 0.8053976843426643 0.8980989326426533 -0.892777777540056 -0.8346029689715367
P 8.137428674192046 0.6352822710740439 6.064068818630722 -0.2345460576748283 -1.1324243896662431 1.4220586465644671
P 0.7779042374451777 3.7398385532512095 5.145285555059672 0.4164914584348053 -0.5546370884010126 -0.07767636893655654
P 1.3583913196290138 4.20141210173059 8.757495873380119 0.8074852868191383 0.2415338018465711 0.05165474806181426
Ni 6.976150745530832 6.8302697957786815 9.80999469719123 0.31409907480880744 -1.5798634455224985 0.502313853517264
Ni 0.16456523213692512 0.4758143519604545 7.888228041877686 0.6044570972469331 1.0828586629229737 -0.37530341423226976
Ni 7.266884662212477 2.2316673580291573 7.251909452985126 -0.6734670487577433 -1.630646846722953 -0.6680389357636367
Ni 8.758246949118115 3.957057806453133 3.4722731467266845 -1.5785521829102427 0.34144712780445713 -0.0600681689364901
Ni 4.977863271564282 6.353119066148773 2.2089878342957876 0.5095185987958193 -0.734766004777541 -2.27071809362907
Ni 1.6169984578260086 1.8092497678758372 6.01982666060914 -0.4716315939420587 0.6761600222088742 1.4751647823608272
Ni 0.5398141546113696 8.680314737832923 11.662144688755292 -0.3740471732276655 0.2732648144012649 0.07596787088588207
Ni 6.617014296163218 5.909715808642838 4.055729339657762 0.25684574961329315 -0.032855355967124064 -1.7523970660502726
Ni 8.818138524921007 5.371793698091548 8.916572973798969 2.030388339392929 1.4385738706106708 -0.2164416347646337
Ni 1.5434004443876932 1.4484741026558783 12.917622888397904 -2.090057216008472 1.2069195326613409 -1.1438478010118365
Ni 0.8492675458825283 4.242466586891285 12.655925318958381 0.10096747825401321 1.0147126020743558 1.687054021868088
Ni 6.427309790403755 8.541833412182598 2.2105872273901377 0.5506505929494387 -0.04444126103251056 0.5526902490872869
Ni 8.759386065218896 8.242820066280636 1.0893209832965456 -0.8624210196250695 -1.4466592187219665 1.5007549721251057
Ni 6.435098380979019 5.5921432052939934 6.25963375258998 0.4254607518129511 0.23583598013084545 -0.14045499482567422
Ni 2.037350821227505 8.957212561387998 9.736962537360702 1.3765154107170292 0.8545223336032832 0.18101209031243018
Ni 8.276919460452007 4.159199978256091 6.366321699590029 0.35973949835574176 -0.3260971277109481 -0.6254828075689809
Ni 3.4274892139742423 4.16774797956521 9.731825401579373 -1.56870537202315 -0.28719993642511826 0.7987561344762566
Ni 4.850810151347817 4.210932519223302 0.784557416362264 -0.20073116600791235 -0.1810473144257398 0.011781823126276484
Ni 4.295829082604332 1.5218683717509647 6.381109834465869 0.5592560752302627 0.75525435453888 0.4150662959525045
Ni 6.791882509292986 2.1753135249132463 9.6751946613788 0.4513299062702292 -0.4567029976566845 1.220859796891517
Ni 8.943876568012993 6.119498393316894 4.972221405478133 -0.412341955042806 0.23688936109602426 -0.3705538153624263
Ni 8.349193135659332 7.878006558622135 6.811725356102214 -0.41750318752877125 -1.4122545159898516 -0.0071772344747295744
Ni 4.53911835063309 6.758653659133596 12.411333013243608 -1.2772931972888972 0.43565697561966255 2.4486014085045316
Ni 9.080857594408629 6.516910995892078 13.158107893375306 -0.48440329178543023 -1.5622421328963094 -1.704849655288612
P 0.21001596455811802 0.9646368541254463 2.743037876215071 -1.4283974442983012 -1.1386909394012454 0.23446738191809297
P 8.44574943213698 6.504001013416551 2.8400609324608452 0.6920787503216597 -0.06632623403105996 -0.6508079165973307
P 9.35834812878037 0.9277591280009501 10.06334337911161 -1.068547131396308 0.3098696101084922 -0.3318288879884027
P 1.2653171991992833 7.691423045756684 7.418820523401141 -0.6018924218435505 -1.217431487936258 1.3709625992196002
P 6.346219541798509 7.967783725134155 4.559606696566094 -0.5442655153587013 -0.27333860506199376 -0.9233219688755001
P 8.616987291514663 6.553622022099386 11.015185088482259 1.346848736890532 -1.3353502493326292 0.6601788162892694
P 1.3836741404024633 7.817513010896064 13.349511812179431 1.7685955301870058 1.148777634213286 0.7696103661502359
P 2.8763607655390913 2.1739336200431936 11.442398079586674 1.5677882595255193 0.8639711377210089 -0.15959454386860256
Ni 4.393533756289273 7.829024566288518 8.108666455702632 -0.8438725671989208 0.8806791945043091 0.8231319922174598
Ni 8.595964579736009 8.477061233248714 4.0941971977700975 -2.9528690433140565 0.9216875185958708 0.7138233410876028
Ni 7.752111076719473 3.660776486971746 0.8013079797076624 -1.1217355424938293 -0.48481672517376506 -1.0436891918123639
Ni 1.8862095629774351 1.873864507999044 3.87473490457135 -1.192060099051005 -0.025257489015208114 -1.9300129861969602
Ni 4.755430015396993 5.507894919368694 7.914673131518193 0.45736942759608973 -1.7020826340664363 -0.059106576354169174
Ni 3.897175491756751 7.834859063390083 5.714130500249258 -0.567656640589132 -0.04017014446098243 0.5515281104583856
Ni 3.318254462683827 4.6097157655620284 12.18198911939824 0.21639355513551764 -1.0288079038251574 0.04851183155745838
Ni 7.31184733432057 9.013955360977347 8.996287021976766 -0.7889067524860026 1.0804472252680037 -0.17849472320721516
Ni 8.258573208454862 1.7124156382028757 4.356627320734594 0.6879837543166797 1.2745567721943405 -0.06645504629944039
Ni 6.96202755810244 4.316212778033767 8.376342069394632 -2.1012700540051554 -0.015991233221933746 0.08551129159994306
Ni 2.45392465317275 6.034435130018677 0.4462473433152846 -0.7875828914682564 -2.9437822505214397 -1.3174278605262537
Ni 1.0189995493416173 7.876932270266926 2.8977224338160283 2.5761237544289375 -0.9479428527479737 -0.3665665485799042
Ni 1.5795743264173974 6.180584651859631 10.906423579734524 -0.04159016473696063 -0.11719422452552074 -0.022646019534290032
Ni 2.112087950766602 6.4111769428626015 4.634604063198134 -0.4293084076938155 -0.12463576840523052 0.7241110961668562
Ni 3.6950888865928557 1.9646696573337215 13.801664963116412 -1.6892739123375424 2.828419422777703 -2.3172118663152355
Ni 7.667677568663964 4.252533409668113 10.672959419602673 1.7858347768834277 0.8990432988337936 0.47426774601332516
Ni 8.85847064377389 2.8981891935841535 8.893042354377291 0.37637453580926145 -0.646591564523138 -1.1382739064684848
Ni 3.7265488654087555 2.9540984935875647 3.184862115060979 2.1579510516369673 -0.5537053206153625 -0.5787499222888162
Ni 2.6216247698634527 6.189836497263541 8.326786814568019 -1.3708674684026325 0.2649861193322404 0.9408640915243216
Ni 3.2091401057780473 7.90762357724246 0.9939714089972047 0.26805755916871254 1.302674356366163 1.535418327835246
Ni 3.362698512827337 0.0697370581341208 12.267356146989998 -0.8776311517066046 -1.5041208032735451 -1.4065610651495002
Ni 6.734167293520043 5.995223605053555 12.976924531716083 -0.2551336520181929 -0.49964427710490084 -0.2088280840834339
Ni 1.148442035037771 5.22820024164747 6.690194633697913 0.18096298224204962 0.616357448228945 0.3303193933224118
Ni 4.975723955960375 9.018771136362766 0.36063119195839605 3.176454488212323 -0.3182454928770132 -1.68933716147531
P 5.521564312578076 4.23067719830352 10.37531486524295 0.0007219657676890792 -1.1228454877285565 -0.9097388308744268
P 3.9494081324755252 8.061996961664669 10.347080529824632 -0.4972410669800468 1.7245332497604686 1.6132728742208797
P 3.5265552703162153 5.546763783392931 6.085863906692347 -0.2702288557884185 0.6436229688131174 -0.26564406463121343
P 3.526462659251111 0.6843948450094574 4.561748790501954 0.05301074786907645 -0.4767920550970756 -0.4334679383881438
P 4.021394713381027 0.659023117613508 8.868670826484468 -0.05833241719230599 -0.048954575521831814 -0.33105807126064923
P 5.5366136106575095 3.575009379578737 6.776944344491677 -0.043557315765660465 -0.28749972705372423 -1.078546151590549
P 2.6547980533837805 6.30948073227167 2.6273490597975435 1.292548837896387 0.6949578716416677 -0.7230044933662387
P 6.322594459090425 7.019955779325123 7.904236790591599 1.2741325401727281 0.5507048432261419 -1.631545190167506
