# total energy = -340868.0193936639 ev
CRYSTAL
PRIMVEC
9.28160646295687 0.00000000000000 0.00000000000000

0.00000000000000 9.28160646295687 0.00000000000000

0.00000000000000 0.00000000000000 13.58456925769135

PRIMCOORD
 96 1
Ni 1.94343841804996 3.343939993606867 12.0444045095312 0.3557422042708906 -1.523960977927924 -1.9798615342879708
Ni 5.793606501208481 0.1402209391117265 9.328849682394402 -2.1838883403280196 0.9577384986821571 0.12238399625657632
Ni 7.64653069455945 0.6567386174145408 10.544342855769184 -0.4097047745302751 -2.50182452949473 0.2716923277078225
Ni 3.4120020126509307 0.6470467641095071 4.020461426702646 0.7075660473239814 -0.46254788647323564 0.6623336578487432
Ni 6.55074425403822 0.781369242413583 1.9366025150053734 -0.4290366420896676 -1.1649503873184066 0.20714735394690129
Ni 6.287090945301593 0.9671805035412017 4.283173580559813 -0.6291808252458583 0.9240483055185635 1.2247717303514132
Ni 5.085364250400308 4.452832062232586 5.7031284747740845 0.03969603303804131 0.22171162491432136 -0.16179026596834073
Ni 3.9652321565376654 0.3020216128855897 1.5190128375182084 0.5018651960156195 -2.0646097224696445 0.38952418581734205
Ni 8.38624687235227 7.061446077829509 4.739275427093689 -1.287406631573815 0.03396581542248344 -0.4706589456161443
Ni 1.2963248263750478 4.070077181373578 0.41569437347941957 -3.01549520278571 1.059579637790375 1.0757683317350955
Ni 5.441230317789979 6.045759899731608 0.3920142113101682 0.6146574348187026 -0.030431319906663718 -0.7770151432547393
Ni 7.301180687114812 8.208671180500229 8.421020410378807 1.373867431571221 -0.526437486038345 -1.2012402228883765
Ni 2.3146748254828555 4.603723135954029 10.001340113871356 -0.7345482323397801 -0.6156398533366301 -0.576700238848639
Ni 1.814154923809572 3.0181648938622057 7.882975902569802 -0.14066762505711256 0.36238182107459527 0.45992279014556275
Ni 0.9296364060322369 3.787879223236974 4.544826703137432 -0.34031429975159455 0.16530393554855402 0.6333267290934318
Ni 2.742389807289558 7.188084314272603 10.712030852423132 0.07805252132905269 -0.09242781621411823 0.5711523124472164
Ni 1.7639971233303517 5.133155241271424 2.6817029526164764 -0.47293077236945646 0.6683011882860878 0.6982691954030879
Ni 6.099528245063977 8.177392167248012 5.8840474012176545 -0.432838532334261 -0.3492704805036178 -0.3358909738729183
Ni 6.705255154219118 4.244005201947247 10.616571387884145 0.4209685203695524 -0.12242384835557625 -0.7443598191135632
Ni 0.670519946458128 5.216550473933486 7.223662567565894 -0.927588714571654 -1.7947894149735542 0.9056813729756015
Ni 4.666123375151253 2.411417008013372 1.5660696533304952 1.0885868236560028 0.1008162973881296 0.5578566237795748
Ni 3.7134871486920162 4.852228863198781 11.934532566719797 0.10057872745602679 -0.22034842601820762 2.5407471747018566
Ni 8.483193250221525 8.288353770639773 0.8124616953790418 -0.7978459639571615 1.346545089607184 -0.4881205927360174
Ni 2.6523303812995747 6.138743031708074 8.167395877256133 1.6811245437575306 0.6171465197891436 -0.7643216069474709
P 8.217600085766884 3.8559505238873437 0.8892474961903927 -0.1198170068603485 -0.11304677801605047 0.08899205105969189
P 4.525377097122591 0.7838576410643007 6.199685130554579 0.7841466120931979 1.1796545262978007 -2.892735054136638
P 1.9228239704436778 8.044822984375196 6.57638469145936 0.9803171553136213 -0.8124477730307362 1.0676716707698901
P 0.32746806473492907 0.6403992776729384 13.229387186655927 -1.0822768222775747 1.0328738463644147 -0.2382049945836543
P 5.872908545489469 3.3301753714546303 3.745170839979186 -0.1509947180147335 -0.248103741754605 0.8197756741507173
P -0.012793766132597521 7.274291873645474 2.595671743763425 -0.5066366492623339 0.32449301644862183 1.9584884679288335
P 6.275730259182689 8.47173046643325 0.4172741028727511 0.37008073238074973 -0.06454883041566302 -0.3728521244782998
P 6.691184239058774 2.0634310243777465 8.615822763535334 -2.812906157633452 -2.1379771796182023 1.9666926010061807
Ni 4.778987707835805 2.776703905803932 9.914534819052362 0.010623798262433317 -0.3907853119179528 0.4412385834724982
Ni 1.1485338091599067 8.666319342644734 4.779580802478777 0.374358019599865 -1.6534350482620623 -1.1001914977744665
Ni 8.581281265666455 5.140181417245289 2.7088173091190573 0.39250049483684657 0.2507823170280326 0.10112637242938068
Ni 3.183600244665614 6.884120989347736 13.23934449390132 -0.5816552688610692 -0.06495429338419781 -0.9857974617019023
Ni 0.8794349820033771 6.642706409320994 0.7323567921525597 0.2388058613924468 -2.230351002665933 -0.5581034496830583
Ni 7.819103600612399 4.475711221777604 5.152070226763022 0.28108045379094176 -0.473637568628494 0.7906769570125479
Ni 0.979701390448394 0.6422064064207741 11.180534781303479 1.0820683058111946 0.9438933652689485 -0.5930845937439334
Ni 6.069864231309056 4.135466097801428 8.072467320597866 1.4908634240430065 -0.19943918666936622 -0.09445950193216636
Ni 4.1181744652528005 5.364647784156736 3.2451772053834693 -0.3201635358353325 0.3831061981061402 -0.06447606819619864
Ni 9.14049804562075 0.6035086052479368 8.422894366692047 -0.5849262263028572 1.253463698969467 -1.4157414460971876
Ni 3.6181279255011383 0.41249686010690084 10.377075315880914 0.7024521231361838 0.08300960822401189 0.37592407853540416
Ni 4.645518209151277 5.296084558372132 10.059726986501738 0.8264834251881961 1.7253086944739127 -2.0747475822345947
Ni 3.2301753451106046 2.9620297389217316 5.883042203254683 0.08194465729460726 -0.4807523252964043 0.39757996624228303
Ni 7.75458715517734 6.032682116446038 0.24378046147421698 0.4270190974390065 -0.9559978618419663 -0.5171897421878319
Ni 2.127687584836229 7.719419148882787 2.3878278055859226 1.3464113922427972 -0.26375430380766834 2.8143578024783147
Ni 2.2447750483901454 1.7687771505780938 0.6479934879527491 -0.12957331491616395 0.8381629184086533 -0.33466018678961074
Ni 6.371999079791584 4.638278556232367 2.111979394323455 -0.16794805803962043 -0.9596033198050378 -0.9113761093675338
Ni 8.7811235310473 3.4840922488319266 12.27524733997507 -0.5629870030276046 0.1562845056587631 0.11314370860523096
Ni 0.42743282097499136 7.897273288924019 12.122584407609756 0.09406946558259928 -0.6658193024044984 -0.10159482742536696
Ni 9.269057574569247 7.423354470924577 7.486008097973964 0.833369353674752 0.5294703593273978 -1.4095054924898047
Ni 1.1041213229842832 6.172658021151278 5.2365254188652655 0.7233816741999993 0.8859535555293709 -0.5679242924282218
Ni 8.452508259772912 -0.029379068441316696 3.7989382571509243 -0.6771421836164854 0.2402767895110184 -1.3308919564509594
Ni 6.168202850124256 2.3432436096936327 6.421398573035579 -0.37998205065486174 -0.7178854269721184 -0.6768557627243182
Ni 6.49812682788783 7.007195088969213 10.197378776987883 -2.0968585552010213 -0.388000550083964 -0.9978978445098621
P 1.5790611176774167 2.9224344064190757 2.396534880461858 -1.0173161011354739 -0.03019657818803832 -0.1034827884766992
P 2.1385749090335135 1.8538337907689846 9.675242942387868 -0.13894421460810266 0.43743155102158215 0.1507116395566759
P 9.297106588826873 8.383053999782906 9.869691666344124 -1.3150279928355095 0.6697487193658916 0.9135340362508009
P 3.804604677800918 2.3900878767215055 12.783025457779878 -0.5254373269086048 0.9648260016565576 0.33247757731599514
P 0.13995177252884394 4.280027116021978 9.352540982491222 0.19512101890998657 0.9368153753762446 -0.6556601024833094
P 3.9635707490088388 6.727725923086659 1.5594268076970796 -1.9982433792292686 0.4811565027133584 2.6498056574941202
P 1.3092076959281858 5.955988203537119 12.290217642786494 0.4967080772947122 -2.1322292213908307 -0.8073878420093257
P 8.989588408686695 1.934453823145466 5.879062250470543 0.5483461131859781 0.17293522684156667 -0.7925667178360931
Ni 6.158206560132376 5.82573014063457 4.1025395994298455 0.8358360700476896 1.3150796720090514 1.0684193475691923
Ni 4.047170177009641 8.404735832114412 7.405913404514418 -0.7794841736205221 -0.5048551318818789 -3.5770776121563035
Ni 3.784510000147789 7.006415434039483 5.153319530971849 -0.08085296689232527 0.44229787797494796 0.2640772343647259
Ni 0.03140802757987286 1.187071038543645 1.724819463111479 1.0043073475806317 0.21538568269629355 0.45565450178751205
Ni 5.531828076945727 1.0440600485762461 12.605393148129366 -0.9691547109388986 -1.1611060738716519 -0.31872243251343174
Ni 3.88770289906118 1.3758217843884673 8.089732964648837 -0.8465956225570387 1.6554484791476651 0.8520131940281843
Ni 7.5507073910532565 1.80629340326814 0.15496291440801543 0.5838761877717881 0.6251524208127556 -0.6124092622144743
Ni 3.4109346279257067 3.115825955417046 3.4398301246784655 0.25898516455379916 -0.43842605372436755 0.911974919293797
Ni 1.1318454810211875 1.5282071967252244 4.094416337590576 -0.734200104971742 0.6756239471997462 -1.2151653176099007
Ni 1.8315857804527946 1.0815020484158415 6.285186359687542 -0.08908126833938852 -0.4820358199945182 1.4164762673806832
Ni 3.3385195355239903 4.25857732384813 1.1491798089588248 2.286166566973656 0.8295790333943842 -0.7536348166575859
Ni 5.605821042419515 6.467599624746425 7.749873955495004 -0.495250004691947 0.07385056743256313 -0.3202252423112033
Ni 1.9481441924472518 8.924227337077763 8.852139885378659 0.3942395890151404 -0.9281960091383498 -0.8651345619014906
Ni 0.7058856509670053 6.551347558448128 9.451069874235701 0.9700926493721358 -1.7625102432248743 0.6425796151502675
Ni 8.489811035517913 5.726036407298651 11.064400538717221 0.6538711289036868 -0.075873768510179 1.4579502182547535
Ni 7.400428903348028 7.870273096179005 11.973154258720923 -0.5502086203160137 0.807466517766061 2.309502156375803
Ni 8.2195399414849 9.165614072285585 6.234854993170394 0.25684729227518993 1.0979163285870446 -0.6114965205922179
Ni 5.537267098241217 3.5094217524418068 13.315377556441232 1.209828735888336 1.0028811566570663 -0.8821902318321968
Ni 1.8307411542789218 8.76428669720768 0.547477404298093 1.029901393999652 0.9257439480534315 -1.9889370142266778
Ni 8.967340398370505 2.319844680195462 10.056480280615796 0.9579914952332276 2.3692165415173 -0.13014204293544038
Ni 8.13463180699491 2.9097557322046765 7.641876897157473 3.855509572580805 1.9136767109307817 -1.2371549345071147
Ni 7.801997600189897 5.702080581422104 8.723453198423766 0.2477869818451345 -0.3708438357990194 -1.0397453766732674
Ni 7.969660536506817 2.432124271682717 3.194139508626413 -0.27213584300314425 1.1717707526743497 0.5724514908746142
Ni 6.948294015349462 7.224793067214001 2.442940127511443 -0.5113008875072226 1.0495104264798312 -0.2875699181700273
P 2.807528120347139 4.9853363792373635 5.143429979452492 1.0614935669836363 -0.8513565342807918 -0.7581188205708685
P 3.3491841011699237 8.885188900953484 12.271579249162825 -0.3726207251937841 -0.6262055446676182 1.3974246500658707
P 7.494015339734404 6.265993854167384 6.555559551389925 -0.4966671967544478 -0.1898163188676215 0.24482558522396544
P 4.2333591995139255 7.682441229358507 9.18426917280061 1.0726634675575268 -1.5663944645017862 4.110899306473861
P 6.874477400395495 2.358186995846768 11.487124800813028 0.4273685103586253 0.12321626234988456 1.556360477304552
P 4.084389418297885 4.192557258191451 8.221258894972825 -3.214482389519322 0.15105925270408177 -0.4256409861445573
P 6.1294057357639415 5.752479703665287 11.989292187605677 0.18038782646486998 0.3334882779686967 -0.04128780300519341
P 5.24903609600552 8.491992212999895 3.7701662057620395 -0.14769316444532626 -1.315301043991238 -0.40138494181067
