# total energy = -340885.2290878088 ev
CRYSTAL
PRIMVEC
9.13452212541492 0.00000000000000 0.00000000000000

0.00000000000000 9.13452212541492 0.00000000000000

0.00000000000000 0.00000000000000 13.36929646219505

PRIMCOORD
 96 1
Ni 6.44109859547974 2.5874081722460134 11.494092386913195 0.05148531236348553 -1.3190687385637863 -1.1247452758544307
Ni 5.076738981451507 0.589860846661568 6.032895074984747 -0.8719428430725757 -0.0340876857123284 0.8178913126438108
Ni 3.0306060466395097 2.1925775920035413 3.829380719754195 0.01797252531802066 -1.1721458766255812 2.3473616504257384
Ni 3.798709735132685 4.666434520889519 4.873803699667294 -0.7871324341943993 0.18704081300501335 -1.4979581261062591
Ni 4.191539855050497 2.8124097188990898 2.0892734554572203 0.8906558461010466 1.1265568751418729 0.36467884463888806
Ni 5.08858645652495 4.9529022662852284 2.6581906700074627 0.7667057909089312 -0.04820124229557505 -0.23837725849546046
Ni 5.690332229800284 3.0835588708498007 0.2647294098677386 -0.28504946574101875 1.194529129416788 0.849935485563549
Ni 5.862253068934645 8.437420981659907 12.108692259589724 -0.07678342480864195 -1.4050474567184512 0.7136086539736355
Ni 1.9520473578987667 6.375083404765962 0.19904032159044613 2.866175558480554 2.789315771908022 -0.7278008863136175
Ni 0.7391956666235342 0.2686855713591095 0.1070876555713168 -0.5650695965882462 0.13136023161325766 -0.267570592229965
Ni 8.293881102474034 8.97302368091304 6.802538843892249 -0.36161897476664173 -1.003212057633924 -0.7172879025974357
Ni 8.930319790420869 2.7423296658817784 1.4073987414789195 0.019385860725779514 -0.270687797702708 0.31489585967848993
Ni 6.947178519530585 0.9809197827576834 4.652193801044109 2.1283525120442444 -1.2300743735112492 0.4024321521282617
Ni 0.9175353343886635 7.473409199180515 2.1132314798385816 -0.7375895902692652 0.23667647375426978 1.0041314841243996
Ni 7.75600390723533 4.1158329364624535 3.7884973395026855 0.8814196722147595 -0.23053256564006103 -0.15947833000571243
Ni 7.911409530538707 3.779043109201211 12.750605266589384 -0.18621266067676318 4.290229895318811 0.7629825764210731
Ni 8.394598342381341 7.580675891383627 9.005010036706928 0.5990644654764521 -0.03564243179395797 -0.7574035396713988
Ni 7.158295592697437 0.7958726354656235 13.775054700630788 -0.4373950413566919 0.5725497070153752 -2.084342167901565
Ni 1.792695621078252 6.826968209610379 9.02956911263789 0.9725411109126282 -0.21007661177855433 1.796618240652177
Ni 0.41726222599255164 5.126193283724151 1.0484001508051395 -2.053737812752147 -1.1443031433817004 1.9664717432446261
Ni 7.150238944266614 1.9725360908129779 6.976887638982292 -3.4827919167978405 1.240539020487999 -1.7294072900233184
Ni 3.6917810202446972 4.735555449093637 0.29529260712928973 0.8862402335318543 -0.4617734702010564 0.025134847394414777
Ni 6.185697359509457 5.850305114118867 4.632648664255639 -0.2242917269366718 0.7141264741503185 -0.47284001242786305
Ni 5.9483916116814175 2.972684042444676 9.194653675484691 -0.38860990153318875 -0.4724954846042507 -0.6674992612100827
P 0.38489770098660353 5.8046233694447835 12.31042087101372 -0.4088485971775669 -0.3503444302940869 -1.2277678368652598
P 4.1530104411262245 6.702300252939334 12.488928613984209 0.9887061507082648 -1.5644576524903895 0.47020103214311926
P 2.52505592486643 8.47283552357181 1.1031122839584873 0.5955497674549742 0.662191218733608 0.4610080527899415
P 6.52895442836823 7.9997951657049615 5.7298801429309485 0.44361556834510696 0.42227644054769864 -0.39098354397168794
P 5.058369457648351 1.3342887675041215 12.652408241310267 -0.11604699829495498 -1.0578122614773073 1.0847085716475189
P 4.066798822203209 6.43931736368381 8.212437704050892 -0.10937601403268259 -0.012598405490300883 -0.7283691001122617
P 4.9519614105160965 1.1258207057260883 3.67880269134389 0.07644172519850706 0.6233706463219845 0.02975717665777456
P 0.32993893573843447 5.625385778164064 3.2741543268231323 0.10702114064726084 1.1510281208103597 1.2606512178568416
Ni 0.9752746481428897 -0.008971927538269388 4.218654770245569 -0.7779808496021182 0.659951787880128 0.6804025995353121
Ni 1.8229765616090634 6.814810160787903 4.640589304256675 0.7116654142043356 -0.2820639007501336 -0.109028915105909
Ni 6.27227435931369 5.801517631954444 9.069195582658015 -0.32053403180087375 0.3500053017871133 0.06390451196344478
Ni 8.583792562675209 2.6032748370128367 10.25124201183789 0.26034476390548716 -0.46859332133636716 -0.3252396648066592
Ni 2.5909249632277214 5.57232333968941 6.946151799254366 -0.957338435030261 -1.1962057457882624 -0.3572918081461976
Ni 0.8766957998429004 0.1902766611544701 9.129678906830176 -0.45159935788153194 0.6487754595483344 -0.16318560365397056
Ni 1.6403135245669407 1.618838263273445 11.504947852894135 -0.5686557712776077 -0.8720454300887112 -0.7663833745725059
Ni 4.411608759807152 7.136619371919272 1.6743569747220781 0.17743157205002347 0.5174910754783346 -1.065157903209101
Ni 5.884303805116056 7.784275252919452 7.95566720322825 -1.107153016693964 1.6746402215847676 -1.1454071750791563
Ni 5.622919457215854 2.8706148932768665 4.92686613814195 -1.085916475912691 1.0121173305433537 0.08355802452831416
Ni 1.023751556558279 7.569769272079316 6.980537793985644 0.19795514592467198 0.47422275170800254 -1.2018140931139754
Ni 5.099757976968141 5.057510812577492 6.655262031743735 0.8385766089073042 0.004783794541888535 1.6255192956884004
Ni 0.8978449586999103 7.880306483025159 11.558478892348951 0.6241520045726993 -0.52499201184107 -0.468171146197284
Ni 4.832847243239541 0.856780714912199 10.594672636615242 1.1341693973818079 -1.1223274104415573 -0.9354143812636598
Ni 8.446500696558136 7.48287256400402 4.377722423430938 -0.5563466148929515 -0.48128711475395175 0.6006541785610752
Ni 7.296637928848007 6.19156172265298 6.696292477799933 1.4528869447992332 0.6438492258913106 1.0184908381698654
Ni 2.76171312163031 5.572067573072558 2.4395759811580495 -1.283311635568835 -0.5505433779476132 1.0305955918531993
Ni 2.707262235807032 5.451848128630322 11.413943350261762 -0.6548363210304335 -0.012322011900462651 -0.6958569864171693
Ni 1.2745033208150836 3.6241946917416885 3.7541917285652753 -0.6260541066914186 1.3766511649639452 -1.9025566897582198
Ni 1.4590572039175012 1.0578415927757718 2.223421219091426 0.6796479807574746 0.7617173365554043 -0.18008057963709628
Ni 1.3177004754968955 3.4905657689588105 8.167289415463385 -0.5167747661376003 0.9404118344782515 0.5035194437895909
Ni 4.09550862494479 3.0042438160597444 7.269568686263087 -0.09039638760638626 -0.5534433252032275 -0.36062112962974674
Ni 4.158920476879901 7.339076918201295 6.148873360848262 -0.3449381716768511 0.7790936230503228 -0.6540338797337962
Ni 8.396260825390877 7.284388534805226 0.21872064930496599 0.30328604335370346 0.6380992107814107 -0.47091734148385345
P 0.1152411299356614 5.908711247981313 7.991135638820133 0.1684234550141422 -2.1505169639564254 -0.24818781682797902
P 8.906378208179163 1.6571119105808658 7.7851549073909805 3.817230988715581 1.125171821868888 1.2280390882487753
P 2.362178262542177 3.621381258956322 10.214329408313 -1.3154475968714314 -0.2966466836603149 -0.024757409450338004
P 4.2573997588897585 6.852526602251469 3.974397651152386 0.19679172174419013 -3.6557482266853296 -0.40996008507419074
P 7.233490978051777 4.465383691000179 10.345148552119324 0.48312699617616794 -0.7223131237261688 0.9067599507517611
P 6.569438630007011 8.073812197717379 9.927504503105903 -0.9733378957823108 0.458207864336985 1.9020100732261307
P 2.332399720723038 8.901116723489645 5.820310084127607 0.9716044580309718 -0.2132712074564521 0.21025556055857983
P 7.006516374640132 4.181309190376437 1.6460545716630537 0.15181361437160307 0.5159921223353049 -0.6450609868112246
Ni 3.0724512920608213 1.9455527127351446 0.3328108294647956 -0.8842609983182964 -1.8397361548875737 -0.16809306825791695
Ni 2.009037640846499 1.6548100110292023 6.978224933007544 0.9483717127552763 -2.1731768674477867 0.525381791080321
Ni 7.459817030399263 0.8425308605447582 9.106041504172083 -1.740677206510183 -0.7448583560165366 0.4616821960388307
Ni 3.164865251442486 1.7444653447576834 9.42669063100559 -1.9362512537971877 1.4353777322708763 -0.4925151222592873
Ni 6.7573814207827105 2.0706773955077105 2.5470381521326133 -0.7144725446358277 1.0720453743575538 -0.39919667591009955
Ni 4.305365134071445 7.08608719604704 10.199543357502375 0.33583852336842807 1.2168650739098268 0.8771968923826634
Ni 7.726691226039742 6.716687125137231 11.170649009790584 -0.0028585524947176578 -2.1777531739645593 0.7732070823625586
Ni 7.782338734249004 4.121642492473795 7.993047494281097 1.2280871678778915 0.05696896118587608 0.5948841088465174
Ni 3.407332004217708 8.784752047344245 12.395249523301333 -0.41783794516037076 0.0931955476180782 0.9921848532854849
Ni 0.4576843128815251 4.73250451873548 10.336645225561215 -0.26579293150425193 1.280624061434343 0.008318804278340511
Ni 9.540094808560935 2.560324314425846 5.631040960753092 -3.3403353181611055 -1.1983569878033105 -0.1612372216783481
Ni 3.7293056367456243 2.867043295162976 11.719164269385905 0.6760078129017261 0.9931968394897668 -0.6799446860622871
Ni 1.4095115564245535 3.609077057781359 12.78139499999729 -0.46491175871972196 0.5952738880857684 -0.7039798726346198
Ni 3.170674807453828 8.85538930620541 8.224149074746082 0.4228546816486718 -1.5543244207111295 -1.021749711426795
Ni 6.075809059483616 8.159393534620298 3.4487570616256207 -0.8759028561615883 0.16450946467171668 0.09475157925128844
Ni 3.282645778502602 8.536521411167833 3.455829008581565 -0.6531563622248493 2.214584740970612 -0.27880631304478437
Ni 4.0599479306804005 4.546945838209717 9.253157548732862 -0.3170938957710733 -0.13726605557473134 -0.24600083647898927
Ni 5.271304300699255 4.757176862739619 11.419183825550608 0.3253962449891815 0.6733901727732209 -0.12045515466497966
Ni 8.029244864731005 9.218742323531087 2.3241850450610895 1.8705066033012108 -1.1824781117895247 1.2972135903619078
Ni 4.920657403517879 0.5543805361910467 1.5829377647895249 -0.3155766877955985 -1.0456085203222638 -0.8678409050890602
Ni 6.190310293134815 5.894963792325545 0.021022189000787183 -0.2990807470231042 0.37317994013136374 0.7769012433846942
Ni 8.015305584112598 -0.04472170640868774 11.344810547179005 0.5606089897137312 1.7548267585376875 0.3223065503202643
Ni 0.34957450429500536 5.138479215855052 5.7284898686779195 -0.4604035864367232 -0.1291141158915583 0.24823769622930794
Ni 7.423589516026654 6.3917356384274004 2.3873950240593285 0.4858755054555826 -1.931689088347802 0.1821855417952411
P 8.84336827521339 1.8368244970071659 3.528210961150539 -0.23869941772156952 -0.06757861838092233 0.22046875364615579
P 2.070777875250045 3.4857153377606624 1.49975423991959 0.21957349552539607 0.03929365539330007 0.9369549862779025
P 4.8610181091813285 1.114466494842288 8.277613432190076 1.62081931910957 1.0641094073399286 -1.196325044974946
P 8.647524122881384 1.9944954817740852 12.459742902644843 1.8345219576764857 -3.529805823653534 -0.5407893838846428
P 6.533439478685162 7.886262191388987 1.1807401925295267 -0.712955850880985 0.7546313762429003 -0.7657699093582232
P 2.2166105194655517 3.51702847928091 5.824801528609961 1.5998913107076511 1.099778064386132 0.5219874206867913
P 7.098336590089821 4.128794823223606 5.914001963141327 -0.03616205174285385 -0.17565828219968457 0.08208606796847799
P 2.5576753030370263 8.81960938341229 10.41922769888155 -0.18924527685549988 0.20746334252542334 -0.8784652175721258
