# total energy = -340868.8518841838 ev
CRYSTAL
PRIMVEC
9.25709299822094 0.00000000000000 0.00000000000000

0.00000000000000 9.25709299822094 0.00000000000000

0.00000000000000 0.00000000000000 13.54869132419486

PRIMCOORD
 96 1
Ni 4.071260112937098 6.806879119653166 0.16193247120522347 0.4666493102361189 -1.87511967659319 -1.066505161265615
Ni 4.662658737252069 0.44696113260592507 7.480611252162729 0.12941750606459004 -0.9308977243402291 -0.7403458128581636
Ni 0.05944627219990988 8.035545262618026 5.665385167237867 -1.1202479022047094 -0.14977190135122592 -1.2992481042934334
Ni 7.067392222453027 3.3717941884272036 4.663242859801521 0.8318035518495288 0.38575057770752275 -0.29161709165620747
Ni 6.0738840053791785 4.7421956777416 7.6962931807194845 1.1165930790609415 -1.1225274422675056 1.6377315214838761
Ni 8.020919056149978 5.550774953921667 1.0433465527590828 -0.03915173049879708 1.4902818405079237 0.21664526613500754
Ni 7.628779352230396 8.189120430532519 1.7194910836266037 0.482701221492659 -0.7563866683711101 1.1922925267767852
Ni 4.056069223814273 5.0332386722703335 6.744809387381709 -1.0924241951242217 1.0677565171742127 -0.6083798293401071
Ni 6.697395484274943 7.393899139120423 13.160236605103 -1.5369789874541466 -2.1960542862665924 0.10525067901039939
Ni 2.9082175001317236 3.465031626114653 13.604511329407007 0.06698829309509109 -0.15329302713060697 -0.12091718190306272
Ni 8.428194106636179 1.5769735129438074 6.101084120863396 -0.4450795544851432 -1.2033580405623274 -0.12177773013114511
Ni 3.054396250977882 7.530265371703209 7.428002268631996 0.028557757033034686 -1.236628115469367 -0.4807890920716107
Ni 0.5960530905251814 4.524579942519543 13.106787077554987 -0.4888682695353194 1.4029376094643 -0.9230358050936491
Ni 1.1445654557735891 0.7641035742966912 9.917614962520403 0.3100565293083177 0.5415586579504995 -0.9394301872912724
Ni 1.484226701169527 1.3316235279886692 12.991799174856576 0.5645931711724599 -0.429299408832751 0.006690524646298155
Ni 3.387901529727458 4.281035090641158 4.139071094101899 1.6861333098260316 1.5319738209300713 2.127050248293053
Ni 0.5738795763777681 8.702481763375568 0.7470446038667437 -0.1676354118952081 -1.3117971446030376 -0.9226311134560627
Ni 1.0861809721065179 5.373122087891102 10.769610929178816 -0.6599330188270505 0.4281038458627531 -0.981157906047362
Ni 3.920156588773851 9.229506565045728 5.182861987310645 -1.0740981431215242 -0.11465860258786059 -0.3673054836284578
Ni 7.714574087386004 6.740209538018435 6.964799566881648 -0.21699313639272952 0.32536693441314285 0.8843350460893415
Ni 6.447278096578637 4.254550548422751 13.418135504924013 -0.24261340806399506 0.2719903185642154 -1.9799155274543578
Ni 2.21919357618889 1.421722811250379 7.813245438489113 0.08970553218694874 0.5040341786424803 -0.4296565350618536
Ni 3.7577501544223213 1.6463461656473166 1.9190638194645653 -1.3821659241345872 1.0996150564457063 0.18033640440164425
Ni 5.549395647109173 0.7068503073577181 2.8021265892285254 -0.0703384405142466 -1.3926038316384595 1.1793020280543884
P 4.162414704766756 8.195609652516127 3.092230914557347 1.2274479916319958 1.7113920843928205 -0.060448177983728146
P 1.7682528194306781 0.7713842777062602 1.996507731294334 -2.1764583664125356 0.6730929532477764 1.085370373601234
P 6.4506013928584025 5.039663094605032 3.138066483358542 0.37460947348903867 0.4467980798381466 0.09451503776045013
P 2.2336253837102102 7.093848993393329 9.74638651882454 -0.03233085092222174 -0.9228239461931592 -1.7018368366042174
P 4.449254979209101 4.7984510300873735 12.789543733553778 -0.4565489885773234 0.4472248829629202 0.8345147801331046
P 8.086968412573722 3.320380295564208 1.0335034860897954 -0.13205262969459192 0.22358107402289235 0.11417060720784852
P 9.106470545952808 1.5388065197363656 8.146163817561428 -0.007474454000174224 -1.0396913835068804 0.5524346814330551
P 7.360444006097941 0.9044420253576024 3.7079377385966494 1.5395300360107744 0.03786463625625737 0.4417656596205618
Ni 0.6808054770426231 6.213573534241729 7.239878705046997 0.7117237782460968 -0.5558632474986297 -0.04557537463695377
Ni 2.191718525051445 4.356054569892457 7.978891855286096 -0.152025473272093 0.24186084616868667 1.220905819638104
Ni 1.897713260858297 2.5093941752818054 3.6987787710779876 -0.17970674123744534 0.22459588844065193 -0.6467167772470926
Ni 4.596711208848038 3.9733200721573914 10.877417179359563 -0.0696396146750091 -1.9288436484792073 -1.0334536301272848
Ni 4.209496278245546 2.8223672224199086 7.902816141757579 0.2895193285869143 0.3447450818294386 0.9910394268271318
Ni 2.645603037288669 3.189059178503629 6.037107427495471 -0.7900953734774652 -0.9373056847491018 -0.18969830523251846
Ni 3.475242199364182 -0.3686544597363955 9.339681705248736 -0.3068102544568781 0.1804096808417409 0.6979488359491914
Ni 7.909528459675289 4.124340282486328 10.452489778801262 -0.15116621059559127 0.6067199251391809 1.8152206862447127
Ni 6.531619468180142 1.9445726641122554 7.68439781659832 1.0967660170326854 0.6263045321393279 -1.4947239354396773
Ni 3.2734560926613407 6.398919044307069 2.567476877726815 0.05369646108219139 -0.7855177814091118 0.33212970705827316
Ni 1.5963948934311256 8.068787482508379 3.709509592937329 1.117481909423798 -0.9296335129158247 -0.8297829218750741
Ni 0.4438646350973417 3.26773520937194 9.216347607770837 0.33051608271425015 0.5201148862544268 -0.8017257586275418
Ni 5.856545982938161 1.4510400238353822 5.2921049382786345 -0.12083644926379834 -1.1475908129940366 0.06194584557517719
Ni 3.1821348731630597 6.339340395681531 11.618449301516817 -0.2087473514441695 -0.6802647884058671 -0.06783727135894768
Ni 1.449438546798058 3.0110452858577146 11.36361264796139 -0.1975597102584662 0.4155113539097231 1.0095940499008678
Ni 8.452456946606274 1.0707864269442633 1.7066339075737744 -0.10164419260606365 1.7368748020449571 -0.1551172248235393
Ni 8.741555951667737 7.396000499163617 10.080185247412745 1.2349676970478087 -0.2071398977477336 -2.650558990720377
Ni 5.651779092385503 6.1744993459495605 11.400965942720388 -0.3629410360121749 -0.4842832212677982 2.0628577727755437
Ni 8.682754898829106 7.505160136297294 12.23503647507201 2.4554760241371776 -0.42599168461575665 2.3572480563015143
Ni 5.735278068551188 1.0723323614253797 9.663928965587749 -1.98107560920073 0.005720190313228858 1.137630359347215
Ni 6.966563968750515 8.744786677020489 11.06438916061252 0.5549728744738766 0.2951402743181175 1.0459054827373924
Ni 6.026182206689403 5.636079063164106 5.563607135824203 -0.1631390666867513 -0.1692734617192633 -1.503600669104017
Ni 8.704083240412892 4.295068843176322 2.946190094392438 -0.5426948284374717 -1.0866641527119931 0.010135545772105124
Ni 6.03237520170657 1.598949851016683 12.144382691957494 -0.3138813023710465 0.13304816083864182 0.2546957931498259
P 0.13054074414586 3.1948448614419385 5.082506771045169 1.1178344076672104 1.0595521269865495 -1.4205560938770116
P 6.890202211057527 0.08201691562420879 13.562781281218838 2.741135098437737 3.5664851813524385 -0.47354912267974575
P 3.943401148546804 1.45845495508912 13.423351876661194 0.31303180988655765 0.3544142294880864 -2.165700356565083
P 6.306727658094866 3.226513375573071 9.382089372622643 -1.1031030149943066 -0.21789353671981185 0.7343158046139999
P 1.7663458583342113 9.422331806013714 5.479401843485407 0.10216484099622405 0.3814375521544656 1.1324845534802173
P 7.808635406323868 5.607567217644115 12.31197957818664 0.09244375705371821 -1.3098479912964667 -0.3819299184098519
P 8.981397966465604 6.8193947089853175 3.1313328741276196 -0.4772957342063715 0.6433244637360921 0.08534699810793689
P 2.3175316719547534 5.918929530652192 5.7448212054169545 0.7666132311951249 0.0636707986860839 1.3196102128895533
Ni 0.29793490004484785 0.8053772478146877 3.966243950496521 -0.47548310647766495 -0.0444065511398332 -0.30741960590610284
Ni 8.290383767591992 3.9652386302291602 6.827998250941902 0.6783385179174317 0.383211870446069 1.0107261066227817
Ni 1.1390297143382144 5.35945861906399 4.115048938542038 1.0429924228556553 -0.06444932872332126 -0.07270925473926834
Ni 6.5880599623799405 6.353762946110149 9.456417347049156 1.513670394635193 -0.01750561298393114 -1.5763227793590917
Ni 7.309752166465645 8.842236091887026 8.622468082611919 0.5423263893544595 -0.3106676805297553 0.6088999635096352
Ni 1.816574843331441 8.276322243778724 11.478613510589586 1.9816204259606065 -1.1256091665166228 0.9885493134154266
Ni 8.415669260211327 2.4838260852408274 12.508341028566521 0.3010954634602879 -0.21193680491574468 0.4672036400776921
Ni 4.717368155116726 4.786740807820235 1.5513387718353797 -0.5983597260999437 -0.7637009426443363 -0.9750538500321531
Ni 4.156406851603616 5.718124675775687 9.387251127512885 -0.5026586384511924 0.7129553366603527 -1.2242037736630853
Ni 1.0164935782511648 8.624342643883931 7.652896855845081 -0.6906109075268816 0.8672665206428289 1.0076862913551934
Ni 6.13019490028116 8.290485595611706 4.775168516234345 0.7921918509951775 -0.39783913344094063 -0.47727747937392634
Ni 5.482050297707247 7.12886857508233 7.49226315474585 -0.964866625086506 0.9856041147441735 -0.5872479324574983
Ni 0.8555118104663643 2.9277499657314574 1.1275897991779533 1.2933682484738886 -0.8701248160272305 1.9977630971587401
Ni 5.194515741312306 3.2007231153072615 3.1012139973146846 0.5000026888855841 -1.1941838302622272 1.2933181119622434
Ni 5.721883055412413 6.881944884367972 1.6289456084966911 0.44281081305562453 -1.116782055143296 3.3556480372587756
Ni 1.2047365583320107 5.8815308761389575 1.6682364127580702 -1.7828679809456198 -0.24993025344038247 0.2139453507053412
Ni 5.053187707041626 8.946258042571486 0.7032891037955298 -0.0018846186172225606 1.1408141563918353 5.071421538548743
Ni 6.267292443187348 2.2936761440635145 1.1003193297892067 -1.1436454551930435 -1.3997977782837376 -0.17838416577127988
Ni 8.179937394572834 5.604669747628609 4.913581492013387 0.6866951174122432 0.7632779961743048 -0.4651133332075667
Ni 7.978012431479473 1.5750943231254444 10.253514125442535 0.7542917335152945 0.18105605617648818 -0.3972297819917159
Ni 3.550992988938884 1.2001357832594668 11.173253496489028 -0.24297901893352988 1.2281509312362913 0.6836049085226937
Ni 2.842436599396317 8.301621878131366 1.209827959317723 -0.6732914424118276 1.759466571302544 1.3635866184705032
Ni 4.154231434818811 6.83884386075074 4.760928330531942 -0.8517190598265331 -0.7406345477431762 1.3673789956334
Ni 4.428889375266252 8.724198902852807 12.360226619636522 -1.1072224364793188 -1.6496053901033267 -5.126961994818209
P 1.8446423484017693 6.821227613340174 13.473103195675035 -0.17471802977360232 0.37825581199237435 -1.9558011509046573
P 0.1509248622741129 0.08305648713456427 11.629315276929596 -2.9068141579375233 3.695584641955977 0.7578509116214626
P 2.6535085944555754 2.4832984309568538 9.766086537802167 0.7143406470436536 1.0058091289371387 -2.3242615740731645
P 5.301157449231231 3.351437841577055 5.972953923656952 -0.8301410765454412 0.9646550232963322 0.37978921791776526
P 5.25364079239548 7.994730740898013 10.182884359550188 -0.8762445557717231 -0.12421205060425058 -0.9388036094508672
P 2.5539948479166474 4.3165823266141325 2.3268924440943035 -0.6754146594024174 -1.6280070951072605 -2.2539046216161567
P 6.846175478170165 9.041550554838622 6.644833711916986 -0.6025516526941043 -0.36309478798121986 -0.9298111761442696
P 8.63312762485746 5.486743643706804 8.911231055208324 0.5283545005553998 -0.08184824092605904 -0.80276191320154
