# total energy = -340861.7134746426 ev
CRYSTAL
PRIMVEC
9.36076085927433 0.00000000000000 0.00000000000000
0.00000000000000 9.36076085927433 0.00000000000000
0.00000000000000 0.00000000000000 13.70041971775767
PRIMCOORD
 96 1
Ni 2.886203326010161 5.207157121189318 1.2513670751089923 2.5942734287547706 1.4464748706253023 -0.022770975147928526
Ni 2.3025037359712757 0.34264502651901 6.81630089238076 -2.5611527349414023 0.7973476841645042 0.3884114123691375
Ni 3.438123133699601 9.249339499304844 12.552433660871674 0.8681329824081824 -0.8714458488314992 0.6423875537441195
Ni 8.95295909613897 1.8994387438697238 10.775886726897816 0.009169839424726142 -1.3064227676650015 -0.905246342320712
Ni 4.67746912000354 6.220656035697949 2.6340422199990874 3.131874130498787 0.6141015623152327 -0.7530604322113547
Ni 1.045793538692898 4.790172678026315 2.6113273982467566 -3.0411758953812655 1.4968353253557254 0.6555932538011161
Ni 6.210471528129114 4.385544438899032 8.069779755088584 1.1676114790903376 1.866572044133495 3.4417226575613564
Ni 5.842453223837966 9.295113618800803 0.2884920901803424 -0.643802174703459 0.3749393460246317 -1.0911697538918304
Ni 1.030235954520651 7.13532403944209 1.4653418941933127 0.7938820942134069 0.01596217975621122 0.7896076352077691
Ni 5.971219847107177 4.351929947465495 -0.03238823179059825 0.14870489353929228 0.10078595837082643 1.341962098222192
Ni 4.434557381574053 1.280589497653469 5.943502634872506 0.05117677998413121 -0.3354772833742674 0.29718147311786236
Ni 7.972110514718664 6.461592653633848 8.816384662425673 -0.004943202937888261 -0.39189731403520894 1.208755557428815
Ni 6.900462555157087 2.649759873178161 6.664185723864356 1.2062037375412389 -1.0621394280977514 0.9515339125333419
Ni 2.9645809747912826 1.0412161267433018 2.7276301687329667 0.3903808773906825 -0.9391900462560083 0.08455612677552533
Ni 9.088924144335051 2.8088740824199494 8.61927606185011 -1.1076464113906148 0.1987853551354512 -1.4933543087856604
Ni 7.506159932683807 3.7782650928253148 3.176551655024052 0.18806179807036 1.6798623892156554 -1.6705583382059102
Ni 8.15179031507142 8.863741686544694 7.847038583671347 -0.15302126152645903 0.17762003391174572 -0.721877321740331
Ni 5.5335762052268755 0.35255432772523176 2.568486005057152 -0.5125015926835431 0.4601529038784978 0.8230702857415889
Ni 4.72135236585161 6.765021709556461 11.874536736581694 -0.2872063641830215 0.64480824737047 2.3890567161716794
Ni 8.304089890572296 5.288464688048607 13.14915594110336 0.6683932337792617 0.4405567269141251 0.3218578928186199
Ni 4.292844826349236 5.863664707432618 5.173949822843322 -0.8072734279186483 0.9341985065786879 0.4515407367294546
Ni 6.133170366820801 2.404816849691287 4.648579940537602 -1.7224416573387624 -0.6437594943909817 -1.9594361765540835
Ni 5.271212806201764 2.317106522558944 12.321979222692747 1.6488967940720765 0.21098729651828177 0.18362278846239988
Ni 1.875400310563869 1.1000578680830997 11.31436822662235 -0.19700718018910587 0.5105997476751399 -0.5552937481484049
P 8.627728828701818 5.947977078455137 3.7353918730495583 -0.13647852667642946 -0.5892850174921851 0.21532680443390012
P 6.458073007635794 9.309276449638716 11.761015048079585 -0.7696977836577197 0.15574200289173176 0.7697211806964873
P 2.630495427795198 9.138994852961615 0.9427783679254027 -0.3149827629653414 0.37949945459148837 -1.0561325597820392
P 9.300346283994719 0.21065362121168899 12.097196469381425 -0.2467958215764588 0.49140569124519234 0.5018294576816777
P 3.85485483632551 2.521816996844665 4.145732984391235 1.9902691027745398 -0.8232065542091371 -0.08703852687774688
P 6.7836496232163705 7.960362760124098 2.886308166529252 -0.2992476116182718 0.03713135763465863 0.34791988001299434
P 2.8248809831025867 2.7192541601184503 12.64113061217475 1.0319130251130422 -0.815200653185525 -0.5461025685674401
P 4.720116745448039 6.175649498573904 0.42342745470677984 0.6633032208508641 -0.3265200741809796 -0.8144403779807329
Ni 6.1639485477825025 6.785334560130333 7.142781757438497 0.5722504306074014 0.7893348411623567 -0.05080037048131896
Ni 4.102643531044853 1.841093122843481 0.4942125905383767 0.5196652003115179 -0.8694095351277609 1.8728421934129231
Ni 1.209035843373893 8.078645331484214 13.0197144069925 -0.4027334854187644 0.8936365259959255 0.26300071347109544
Ni 0.9690165799800404 3.46301339622307 11.887511686895264 -0.6489366677165469 0.45650116605852353 0.16158020684006366
Ni 2.778694990138768 4.1452911564893515 5.041219853522048 -0.9636718334474565 -0.48246056623676264 -2.579403967842106
Ni 7.79621246166169 1.1571023433813383 13.581800936805573 0.69376693665736 -0.15730600494474198 -0.7199212264552247
Ni 8.608408218755056 4.990773778394097 7.0745680225528185 0.5427462505006976 -0.8029676014544429 -0.43680034519548644
Ni 5.20971260884216 6.209881800209226 9.785524804446071 2.1197994802679108 1.287856317516724 -2.3363164483551695
Ni 1.904034877340586 1.893270002612497 4.7465374923350225 -1.7477809074344997 -0.6205429470652023 0.982603894465269
Ni 7.728599687608658 3.1530411686179054 12.157834540686718 -0.5769452649799096 -0.28109228086548366 1.140935255350732
Ni 9.303042183057057 8.402995687421852 10.268779688587315 0.004649582956869412 0.3903826771628954 -0.43275625703309983
Ni 1.848506845264913 2.0433229955614247 0.7482767391861637 -0.44280618506993413 0.04225633756604981 -0.31123538010776725
Ni 6.956589675913279 1.3621123620073188 8.640005466272155 0.01824403381185245 0.18019705061030256 1.1001526741167311
Ni 3.0141274808223915 5.778172880570326 10.081795686712535 -2.512083231108261 0.196513528382139 0.0799044869361269
Ni 5.1682725215193335 4.1112741523485905 3.364822761485885 -0.5351458124456203 -0.25254892201015217 0.06047594589787004
Ni 8.481401418484872 7.0813966974346805 5.709595012096019 -1.5391070895407428 0.7904946657984129 -1.1913425041586903
Ni 2.320410871062436 8.813165496843943 9.130480305089728 -0.6155352094379657 -0.10842419164237456 0.008741750748372041
Ni 2.7578766584907073 4.950971824182066 12.40371551238903 0.4139640640272612 0.374969942152251 0.663495025146696
Ni 8.493776344041859 4.45584375125377 10.387014520068202 1.2659001249606068 -2.1006082520514404 -2.160526782783944
Ni 0.1464191456711502 7.933937332856798 3.4942642955967442 0.30854857730422347 0.8437072452656502 1.112027571177446
Ni 4.9115536611559945 2.5366631632087944 8.37623046454357 0.6106886799789418 -2.662605637472266 1.5551176060363865
Ni 3.872921104347433 3.4719903656702327 10.768885814020306 -0.407363270881292 -0.3877274989282355 0.01551917868152166
Ni 4.50842314373001 1.0498654695683056 10.611454669540352 0.32267936027865074 -1.1091376512241606 -0.8443374226504814
Ni 6.694170112324368 7.175659557010208 0.11663507748868618 -0.8099229497263535 -0.7240643020893207 -0.9245841234173754
P 0.6600010221115806 3.6030690968158243 5.799935712966268 -0.29927460820146523 -0.37548313434324365 -0.054056672635087545
P 1.1208106744067285 5.418373324115057 14.003883250209373 -2.7148160009272337 -1.2674111622884945 -2.2071084871982247
P 2.399200393311414 7.224110854047241 6.546238267734907 0.2681102667835189 0.3254821198347685 -0.35467262535579563
P 6.192723525968717 2.9398124021560443 10.266779294040019 0.6346552180968683 -2.7306588814967614 -0.9808288048427174
P 6.197226051833248 2.358471723796705 1.0896009623798404 0.35641043398250877 -0.5860197164773521 -0.07303527062011939
P 6.120879688109514 -0.09212486184692247 7.059593613768015 0.11296964492121189 0.11779740532715842 -0.7676524710929167
P 3.9881052639379857 4.328237862303066 8.810520145889022 -0.5924004231927152 -0.7848433810499064 0.0399423447208925
P 2.840045415328242 6.044439716779448 3.485002759026334 -2.0581251431865653 -1.5875376742383047 0.8285292519736313
Ni 3.9411048847990857 6.0029902686959895 7.701060329826016 0.394246788103992 2.402206623290076 -1.2200720108828986
Ni 8.39921394012607 8.274088652743144 1.4613822924455024 -3.1632531590307003 -1.0641690569332705 -1.1010646444080392
Ni 8.390218249157641 2.441922904840978 4.625795849156586 3.0327709591470215 -0.8040106980069766 0.7274949250374245
Ni 3.17750083615225 7.945891024185293 2.662648704493905 -0.38994096163978653 1.215853601926177 -1.0123854966030759
Ni 6.024791480210528 4.631900937241507 11.321602222439624 -0.4354795695015339 1.6865606271714373 0.9134515038393236
Ni 4.567152555942211 3.862745957539231 6.537771459742248 0.5743533358830173 0.32339592672970113 -1.907601451270979
Ni 9.164858634590928 1.4459098911950168 6.6015332168708145 0.5876819346711234 -0.2003773822129194 0.8119816320275951
Ni 4.082106022215785 8.494759223908336 7.341123170189443 0.9455370715199588 -0.6288486387174201 1.367749234488625
Ni 2.675146256015185 3.3618797383428323 2.51143778545466 1.290745466139061 -1.6491366779970242 0.7991235451180044
Ni 9.241270523639093 3.1949773762542866 0.48326705313006846 -0.9410625806883728 1.1027021800114623 0.21892172087401007
Ni 0.3440116975714457 7.323952726960109 7.480730490347871 3.307070899681021 -0.5642231894275508 1.1787101601066605
Ni 4.959733496134667 8.228277090204651 5.227107710326689 2.249521919167429 0.1849325084127589 -0.7202372150337466
Ni 6.421818781703717 6.285161037220784 4.671267616084097 1.5689365141973495 -0.0859280674223875 -1.7288455039825774
Ni 6.812405879881319 8.355377498081165 9.652342710386218 -1.5042493584316092 0.2120843862372025 1.5523004483025653
Ni 2.1593215413270586 4.73808940586363 7.055784720266398 -0.5709592225998038 0.31526249898928926 0.09877972657407504
Ni 0.5658720214131069 0.3553700445236745 1.6368572391218599 1.8859298798348165 1.0115588869367222 0.5087344123316271
Ni 7.470701371405545 5.803278440588355 1.862859699543677 -0.22497461193630933 0.5245040164610579 0.40881542994678627
Ni 2.8109147282379703 8.673877378623104 4.798846358828965 -1.7276023756040955 0.21860881761928155 -0.029377424720852627
Ni 1.1682042054922197 6.029593550415319 5.0314107124546 0.47275465180290843 -0.2428116401177302 -0.36990358337293716
Ni 2.882215641980452 2.623746319378718 7.457316419776245 -1.6747250679890902 -1.5357669694239162 -0.1714164762041951
Ni 7.400926261646262 0.2807544854410047 4.554786991145858 -0.14999507310562551 -1.4450898173523177 0.6582720861848599
Ni 1.6842629391961739 3.363826776554521 9.487238550415293 0.7867190008060645 0.8337691602163317 0.5955592805366711
Ni 0.54517350750115 6.133039316171938 11.379678253559634 0.5749040661801648 0.19057993650652338 -0.12176924549071287
Ni 7.880047433891921 1.2491747849687154 2.393188912832824 -1.2393149182729106 0.5348719899589434 -0.5284791990587221
P 0.5646972459536502 0.7314208175141029 8.739565580289966 -0.37558340736653384 0.38436886686864774 -0.21223890953719576
P 6.643631365666149 4.653589819628449 6.0895623273353445 -0.13803481541995583 1.0163177417779465 -1.8480665291301397
P 0.9472528115080345 5.368695767435086 8.5202083238416 -2.404271219128588 0.4304798022940973 3.5078917971892616
P 2.550666861115943 7.013924334791145 11.790060552248095 0.5980319104468798 1.4742972921542095 -0.26742841022514585
P 4.343523984416953 8.500431844852008 9.61628318827531 1.2308248785240286 -1.435198526380535 0.19327290995765425
P 0.14787755217779042 2.6864914979025274 2.5742400646183317 0.6311960559036742 -0.5686827678608013 0.3078037287183989
P 7.63013384650886 6.05937949074991 11.176309176272639 -0.8375358263476157 2.9999549410582653 0.13253548286828143
P 0.4213456215419738 0.07810899495095057 5.109077879503668 0.0004838816149540053 -0.5661713142928572 -0.33117659911638453
