# total energy = -381173.410324596 ev
CRYSTAL
PRIMVEC
9.19385052057121 0.00000000000000 0.00000000000000
0.00000000000000 9.19385052057121 0.00000000000000
0.00000000000000 0.00000000000000 13.45612956550530
PRIMCOORD
 96 1
Ni 1.168878600657346 3.5431078078303457 5.321791542989057 -1.8886287668232182 1.067781199764561 0.6015579213222673
Ni 1.5542848233899569 3.4545066683152172 9.898853595042768 -1.2982664571064546 0.39556345003288645 1.558182361004639
Ni 7.7643540457360105 2.5056828849552244 13.443010421241762 1.5973587740937845 0.1982708773928779 -0.6966673981336067
Ni 7.923922519060132 2.671769798449132 6.407015295825696 -0.5547700144344511 0.782617319932865 0.038610770393662536
Ni 6.568546656281341 7.052602897380385 11.838487639290792 0.730843015574051 1.8271572897812984 -0.3303890702180826
Ni 8.016127648062646 1.8726310988751518 2.114186655496992 -0.9109313085206311 1.6605850290432822 2.410798221613829
Ni 3.6896210131134297 1.3637974300503344 7.994420966481736 -0.19344028877345396 -0.3354394881577965 -0.8650749123081488
Ni 0.6340621902756431 2.842389280354471 7.816074053035206 0.6095267984603567 0.5795356514149052 -0.3812814861925756
Ni 4.158167228025692 8.22124245791867 7.536980003870016 0.18647388475794982 -0.7225550645336459 -1.5826602915413455
Ni 6.13995691665524 6.636525988602069 7.3830289733438335 -0.0025245661940666198 1.5439168522245605 0.42975423698198245
Ni 2.151020899074185 6.785080228747907 9.20680486880823 -1.0651589316503656 -1.0440720290730794 -0.0448364395884002
Ni -0.012399746483766036 7.663194106119432 11.720706136933796 -1.0330576802404468 0.7639223146265232 -0.2977131772516163
Ni 3.0834704342784818 2.216655799457966 3.937478954412827 0.1497410481132905 -1.1435346406467919 2.2303422609151844
Ni 1.4851470658768546 1.1495347387148505 11.438476984668611 1.7064707358318032 -1.2308140798907512 0.8653428212575549
Ni 0.6292675971183184 8.33670802927599 5.225836242272502 -0.13682176894846113 0.10659459463280352 -1.0505365537515003
Ni 4.00536542884115 2.0840804718862995 10.425513221054043 -1.050177884860501 -0.32631078638365096 -0.6604320699506561
Ni 1.3365652441788176 8.685200941315102 0.24190584233477186 0.44517545663305913 1.5083605523865053 -0.12170856745610653
Ni 6.380109491655205 4.002478559710949 1.1130517002356628 -0.32754774411454557 -0.43875386937743144 -0.9767392081543758
Ni 5.2067259041386285 0.37640360409473456 3.201132416575945 -0.5917612469468195 0.3637167378359349 -1.0280581701433262
Ni 7.059682162444892 6.51112186460224 0.6190881655866021 -2.55638179591532 0.8711270320394997 1.4890052877883453
Ni 3.227381779804091 4.225962683331757 2.6571552533237566 -1.0459602472347278 0.6012463036191195 -1.2158109216136996
Ni 4.519016675450126 5.943833692816212 1.487844541681954 -0.4195032486779356 0.07966408879054666 0.9658055919610076
Ni 5.787317577935488 2.464448464417158 7.343036642039812 -0.5417103530370154 0.5372258349031006 1.1405375056916809
Ni 5.084107516910936 3.0357543489735614 12.127377736412125 0.01106782777838739 0.49113006898630257 1.5274669341986533
P 1.2084029649590513 7.810847348893425 2.314535373132964 0.8664131715035982 0.44627666011703787 -0.5755401571022668
Ni 8.868884885112212 7.087806151837522 7.413318114584115 -0.1980667318018718 -0.10519437185116723 -0.4703892368945254
P 4.207565788014774 3.402947553403851 0.6583072940439678 -0.4314089989765861 0.2742564888905728 0.40535626775359224
Ni 1.7352473873700611 8.564660364353097 7.225336045569269 0.3638033840124702 0.47656168425382445 0.8381978854116467
P 1.8433670719916142 1.3451890761664889 9.249205069619258 0.3912943903438874 0.10442175535120081 -1.0752679950599096
P 2.9909802959032414 0.5463831939890476 5.772814278403983 -0.25981845908837187 -0.031737440312596954 0.18823663308532743
P 6.090549162815425 3.1637787204323304 9.720089280772955 -0.8939980231004022 -0.5309577425062018 -0.9425085691062801
Ni 3.229661854785906 4.525314463202316 11.22971865176705 0.07872563613667732 0.47232373491307683 -0.15762739283990274
Ni 2.829628215536893 8.881866602347385 3.633208464400046 -0.1380219599041494 -0.40512409713812814 0.3310251611401847
Ni 7.7773633445233825 -0.1423300031995121 3.525074989002394 -0.027837076816926255 1.1982235475492395 -0.5239250040291364
Ni 5.294196200013582 4.937373659210257 3.7757499261664202 0.4179798700548737 1.4087894402593866 -0.37528798761330207
Ni 7.911290168152818 4.935737153779761 12.60738408626323 -0.32524069324792376 -0.08107973819115069 -0.34432727756572956
Ni 1.168722305194883 3.0695325565670637 3.1548707984570057 -1.0108209803294332 0.45371100490789606 -1.6167999135375317
Ni 1.8637682267684192 4.530610121224596 0.5862578440036851 -0.30105998223666214 -1.7747692630978853 0.3451096642577089
Ni 5.182242679636316 0.4668664983833205 5.649340863058111 -0.14852980141400873 -0.19785795822517538 0.4843942929243657
Ni 5.977694645066312 1.335498757493775 0.7603489239458517 -1.4894256631552156 0.338771637854823 0.35251392714158
Ni 6.273111456823093 5.138250103878311 10.680520300683517 -1.025686841697672 -1.7446644732927052 -0.6803900011298218
Ni 7.540713626652738 8.97828251498567 10.612163101097659 -1.1822495407184863 -0.6535263439697583 -0.9413456591464305
Ni 7.027558847983353 2.173794067340136 11.352007899138494 0.5663566908307859 -1.1196400934173814 -0.876660046042587
Ni 9.017862042391775 1.5867299226271556 9.94168498745318 -1.302486408725073 0.7915660444857207 -0.3091648707319837
Ni 8.690625313247647 0.790399944452145 7.771790032208962 -0.5048934413189821 -1.4386923984664062 -0.3587413961085305
Ni -0.042013139695162495 6.749922943544435 0.47987947471098596 2.118911678346319 -0.3908272208994818 0.4038357173440077
Ni 9.197987965955164 1.587493012238005 4.864444357654814 0.08992998949292899 -1.1808308059940889 -0.8893255573253973
Ni 2.4245655399368604 6.60584610870563 0.4525985614305834 0.5978401061510478 1.2583210270617684 0.6542310833462668
Ni 3.640838441123467 0.6557596780058188 13.06644040844876 -0.3003112769960957 0.968821495969196 -2.1001788778235055
Ni 4.527107264095275 7.549668437266803 13.026045386482627 -1.3654565817997064 -1.1853256085406492 -2.6534944191996175
Ni 1.955357367771813 5.21782288197351 7.254603749993101 -0.39626896074034335 0.15947293068907373 -0.22350471225900218
Ni 5.1654822897498285 2.895318279025073 5.143955807643288 0.17619692831197398 0.7346474769218058 0.5077915888023835
Ni 0.17922216803632382 3.2805682062952206 11.873971306195287 0.8650548577034909 -0.2346872112383829 0.47069442683977003
Ni 6.858152954374786 4.636946198803924 8.145170698182644 -0.2444358059847145 -0.6666744513159422 -0.6384144280289844
Ni 5.086056613266359 2.9757185036862537 2.814699240716444 1.2613991517664598 -2.7040793312360205 -1.125131712659572
Ni 1.0999890771140384 5.82271390325802 12.215110976418048 1.0015007313697721 -2.0830445321360638 -0.6103176697927682
P 7.041561082649902 5.367526353460989 2.5621276121461736 0.7219601112621243 -0.36928111929758983 1.1185674291784928
Ni 3.314282056933591 1.554891617538343 1.7259367747326253 -0.5169316034304388 1.0280059767491523 0.06199315387334485
P 0.4899421443383916 5.401139071741294 10.264605203678105 -0.3051848030383131 0.6651042786153449 -0.9250988582702647
Ni 3.60713378433583 8.510407451176926 1.2900360850035437 0.020822336061989945 -0.8519774556942422 3.4874911220457228
P 6.626182906527303 1.5943424310341836 4.198043716810476 1.1609404948280653 0.8543994348721736 0.4039632440608075
P 4.559736240347137 4.529929776270345 7.083105335957675 0.6278374238440865 -0.3279534641933965 -1.1104638262347521
P 6.98245381628664 8.422900379899039 8.412960907871458 1.605449778632035 -0.09046709294332161 -1.3284650921770216
Ni 0.4416486852074313 5.972665608715293 4.841179318374641 0.2798756348495632 -0.2088615084245306 1.1597634438008284
Ni 1.1913207902969045 5.66583003434797 2.6972808954634084 0.8029043523166752 -0.37924671515073394 -0.5053518690126393
Ni 8.123465855371883 3.7083213055046063 4.162357785189851 -0.5297858336852876 0.37276907784619023 -0.8438915933623145
Ni 5.267423706678721 7.654965609713286 9.538310302847748 1.1088399174780839 0.5042727770158476 1.1395265479286634
Ni 8.395769326385587 7.053044202215576 2.6533333695739962 -0.06198466923291261 -0.2312707293576662 0.4208602769264623
Ni 2.9386029282766266 3.042272789143347 6.476005032341995 1.2002902002702813 -1.7879541372192758 0.6960369636384593
Ni 4.215693152062856 5.718860165376637 8.926568023996913 0.37163085047668903 -0.13793737061014308 -0.5884200983887286
Ni 6.59772793850828 5.090809834095384 5.627070598427261 0.4097423126364298 -1.3009051802808822 1.4394956110939916
Ni 7.609649119449712 -0.16025157643359317 5.833017451774633 -0.6747232897623476 1.6608812201274623 1.8509608199587995
Ni 7.716803449744286 6.590575122637908 9.668726914267276 1.3493265090070632 0.5816097603351145 -0.49033636944041353
Ni 3.220293320888852 4.72175027796627 4.972699191882144 0.22503503286059953 0.8784809013014097 0.268182514782351
Ni 5.811598537721672 7.3356815614533115 2.9980393344961347 0.6832102441874363 0.08278155137360582 -1.2095423149961686
Ni 2.5670702263003022 2.7235403719273608 12.68830927980127 1.6584134753132598 0.9095909924426527 -0.453111166540368
Ni 5.367204568685329 5.3757548498671355 12.881001358546698 -1.3432702755106543 -1.6542693712378993 -0.9446896359179988
Ni 1.0501767938419657 2.1946641085043304 0.7800145706640067 -1.105602641487709 -0.06811880715510849 0.06483525130783027
Ni 8.806927525021681 4.202518363962288 1.537214600733763 -0.6001708111667535 0.28615401165910714 0.08022330372812635
Ni 0.6940391949182592 8.593317597088248 9.598405908164821 0.06635528749678249 -0.2386852766541825 -0.32844505911783434
Ni 5.870200142294611 0.8983421877545487 9.251573405568111 -0.07495305646812253 0.6927024999485877 -0.8287529379486631
Ni 7.491627657588583 7.114698165231913 4.84241681068332 1.2789531014898232 -1.3738450629737178 0.12682172031295577
Ni 8.249770976743557 0.08470938249979619 0.716120066224006 -0.8132165328759606 -1.062360800079938 -0.440592465248067
Ni 2.4653402679382705 7.807399654868503 11.532602709089273 0.5352283448570976 -0.30300964976386524 0.4047715988947158
Ni 2.783033780021414 7.027595623386284 5.53213765391223 -0.8251485084268563 0.7955563965920364 1.0267211964994576
Ni 8.227108134686404 3.7867632399596314 9.750163285906082 0.7933285357027821 0.5030376190571659 0.617773097629549
Ni 5.309292502917373 7.111618225236316 5.2650204340970825 -1.4492863719321685 0.7052569395748306 0.8022844593444892
Ni 5.137790411341655 0.19567824146354473 11.335807414761655 0.3382360770663272 -0.5381208359135443 0.9969208253085733
P 3.803551211398318 6.619738017163383 3.7707438744422337 0.07532149555113479 -0.16975502934137215 -1.4904816152235558
Ni 3.3496140253009914 3.612916716446966 8.769548086096014 1.2871898875773184 -0.23661322461650222 -1.3458784025574626
P 8.708682036087504 0.6951461345465274 12.091153964523613 0.17774910329044225 0.6855972563623741 1.2223767477566754
Ni 0.7421184373271377 0.774802576683398 2.5966836195116985 1.1641209494385758 -1.6027251806120202 0.488317796348488
P 5.951749598297433 8.45141051102246 0.6204056443966589 1.5821694679478557 0.3765365153084225 1.6308844166550558
P 4.316209522128116 6.384145592127047 11.049715925803483 -0.10165576257028944 0.4894578234902022 0.652871998215211
P 8.76382675278479 4.828104743247064 6.531188363212359 0.04534371824212191 -0.278807598596365 0.12044307048012161
Ni 3.241788543902898 8.870411064333911 9.560108922935989 -0.2377655930533905 0.44558426203570356 1.0528945124607156
