# total energy = -340859.95583040523 ev
CRYSTAL
PRIMVEC
9.36725900493542 0.00000000000000 0.00000000000000
0.00000000000000 9.36725900493542 0.00000000000000
0.00000000000000 0.00000000000000 13.70993041077609
PRIMCOORD
 96 1
Ni -0.33530009664623367 4.338361667746895 6.849193599820599 0.5228780508218608 0.2435878561621224 -0.4429370542208436
Ni 2.324344794406834 4.038422036832647 6.179956342702337 -0.4521171780582149 -0.5394662941978451 -1.8610719402508724
Ni 3.8852298843038646 0.26767691771016106 12.228832884304254 -0.8597822964506417 1.6048525113676684 -0.24951373472825414
Ni 8.161720806823134 3.2833460290645125 4.834560360842996 1.3843745017501319 -0.5299868939525002 2.0801276155995856
Ni 0.8320861168771981 4.340834624104214 9.004723527256466 0.3858112557421291 0.4192996173075617 -0.765587875254404
Ni 6.495397850418582 6.683220759208764 0.7183151368262274 1.2127140278559307 -0.888200956802651 0.6933679014467284
Ni 3.593711419167003 4.409018901850148 11.582052693742948 1.2045350915895643 1.7077907401948071 1.8274938471851105
Ni 2.7502459561425647 5.505325417892617 3.8918375487525503 -0.36301765488638127 -0.803219826674565 0.366868138980723
Ni 6.424478333065311 7.1937551053701725 9.79503260603515 -0.07375800771875685 -0.45565475889782814 -0.3667025599371362
Ni 2.7486535221245947 1.0930935462297409 4.327251161930923 1.5003343396479194 0.03697734855529761 0.8336686300827256
Ni 6.004562849785365 7.5499357588955744 5.804688962382717 2.79950891039094 -0.5609460613381758 -3.2942830038877333
Ni 7.460937431808869 3.8935292757151707 8.641793763672547 0.4219697079405572 -0.22573900090615961 0.04108854251019375
Ni 0.7712673148273251 5.8739551585349785 11.906197321730351 -1.584318910190691 -1.9086610028837452 -0.07830243255632967
Ni 3.5154011345185614 5.274900215492256 1.39413570351996 2.5893119709844377 1.7403177662882352 -1.8463788570150719
Ni 1.041938945217164 7.925975001350963 10.100544819286402 -1.4678330245861044 0.5832786633971052 0.40735941422655
Ni 7.927670475217155 0.04562604479253958 1.528026619025044 -1.8233870241055887 2.3006809585397474 -0.4872826702157543
Ni 4.271217155742106 1.6650958454848193 6.1274884519878805 0.49335947253745355 0.056519018132651054 -0.3086491074378297
Ni 4.051039734610333 2.3275952332552805 2.9458661712654446 1.4859204782154345 0.9141724411657483 -0.7449043787631234
Ni 8.403517861563591 0.3063196709709526 10.938934164697086 0.7519278612688083 -1.7411577456910272 1.8875589307978071
Ni 1.510245688125562 6.82120048323646 5.4446105924168595 -0.22909840429669576 -0.3020071766412799 -0.17164710415776244
Ni 7.6055398078995395 1.153737180537637 13.116632647114889 -0.16122745148633524 0.3762146131926295 -0.6323016302630271
Ni 2.6014189462748085 8.235797090435558 8.57258658125154 1.3818921016479102 -0.4909680894871415 -0.22234848716737188
Ni 9.002076339883063 2.713985296827479 10.673194396133491 0.14040254432118401 0.677435032266556 -0.07237861087272697
Ni 5.502618280062068 3.704919517174934 6.560269865407138 0.3443187929252973 -0.9040206974437269 0.1494317444029878
P 9.172972611788108 8.314510167217957 6.116027610687956 0.6092383206856605 -0.49799362887535525 -0.8595799506318487
P 4.567915715066837 6.422707921127684 13.326121089082507 0.4336018928628468 -1.3684184926415077 1.8661552683110505
P 3.7949950790385008 3.364316615248858 8.531360337978064 -0.3707875286397872 0.13020014986688547 -0.766585720391299
P 5.925287737467211 0.9934821147762083 2.532814078602952 0.3500068444490101 -0.31771841672894957 0.9246121484418334
P 1.6619297119667364 3.9430727081919184 10.883669210466358 -0.8134021665242056 -0.7681486940030449 0.8047120949493753
P 6.949494461531324 5.307507643824939 6.786922872636695 0.42893971150048704 0.5984252892305565 -0.24355494604165798
P 1.7690068487868726 6.426623435360107 13.781633093019456 -0.6797091730127132 -0.2589262862914057 1.0852734430120534
P 8.423404552270366 8.040396069171623 9.306410151961018 -0.33311649645157465 0.7416462768371421 1.0392920911859327
Ni 1.810129115486234 2.9622176584523245 3.4372304220281653 -1.8639744586096478 0.9990083039652213 1.4001574756160013
Ni 4.825215583335186 7.604322064238739 11.714339934519348 0.1601635289981951 0.2928959583686311 -2.726744891154336
Ni 8.033998231322952 2.226382000524848 2.9229295010513088 0.20251165494710285 -1.4887890580124812 -1.1699172444053787
Ni 7.956812017746019 6.744210982097041 11.621702427338635 -0.7837360069183406 0.10411990784006586 1.1838361684793162
Ni 3.2637965596791894 8.062362291360689 0.9743766534641315 -0.15256617626691144 -1.6556153437428325 -1.3531196575009083
Ni 4.437036373307503 5.674226463645735 6.080354278507734 -0.11052966802115159 -0.15056071580110844 -0.5932992808579008
Ni 0.6302151298708373 8.794076355359302 0.023822812908841803 -0.2657322534696456 0.19261136511425536 -0.018139647023504242
Ni 6.31204312413765 1.9313882823252388 4.6132954009495375 -1.8656197075225547 0.5673151980893133 -0.14917463408685921
Ni 8.440068905905482 5.044540583904399 2.6620157442880585 -0.15229132533896997 0.9265042232582238 0.9048277667260546
Ni 4.829543256960495 6.414333591644944 3.9293346862462957 0.29962376401076785 0.5880706854691098 -0.7831778204220254
Ni 5.069598001540115 -0.05773603713626036 9.3953054391995 1.7588052835694614 -0.9610896745425772 2.653038305498805
Ni 5.591307487604106 2.1700660398422604 8.394659244794209 0.0710056417846003 0.9085970039604996 0.9606263617529133
Ni 8.828341788522458 5.941230812164776 9.5960326838906 -1.1342704417360463 0.09090649447358537 0.03987421048711842
Ni 5.39653407268843 8.142845780080714 2.545125467013651 0.9221688291076634 0.30766720314053464 -2.2623383542058066
Ni 3.6957770724599963 2.474960950730076 10.561116079771034 -0.4398252480647393 -1.9866672443558946 -1.3953659677646293
Ni 8.797457935832757 7.609015060962287 2.17428505326399 1.581026355482348 -2.519247610067184 0.8805020454964965
Ni 7.542441951752182 9.43751337120876 4.839578401451389 0.6252586073733167 -1.3891220437374463 0.14546324667354302
Ni 2.941085122307961 5.4493185767546946 7.724750355210719 -0.2641998759855192 0.9228954228610428 3.2736740693881297
Ni 1.3773055494017954 3.7986295755030457 13.30969653727598 0.2257551988560757 0.11339927625946278 -0.5486230209964487
Ni 2.081170752603778 7.642615418741469 12.134522384678778 2.279905930775925 2.28436988008455 0.1801325159209543
Ni 1.6870620676738861 2.375031032472949 8.22539568612053 -0.6346678165023586 1.1740317807943845 0.5487294646673259
Ni 0.5534298349760756 0.8237014834096359 4.954412565390829 -3.465505361803251 2.0808986894376553 -0.09374807768743854
Ni 2.101207319453421 9.175970134645464 5.938840287686034 2.07631389828045 -3.8934675398818173 3.7264738753356657
Ni 1.6116556332935084 1.1903725302098926 10.089823054715993 -0.1701988017470101 -1.2968934880183276 1.5993680912143295
P 0.2603423539685666 9.885174675437113 2.9251373639809306 -0.7254406136115571 -0.22036256708559468 -1.6204665637558415
P 3.9522900909782903 7.768829865554041 5.928421085579042 -3.3440284507419764 1.091868579731068 -1.9680406303936429
P 2.1731853370656973 7.667138902618218 2.7691312868698046 -0.5573624577519756 -1.2540378263053822 1.0470370252386743
P 2.5213101479119526 3.4411937092811264 1.5840999677013643 0.5459395606270147 -2.0717072527463745 -1.4771057081372818
P 4.1268021248300215 6.894948912786362 9.704862434856398 0.8240683879888002 0.5495781858208664 -0.5613705504701042
P 4.155278591974909 2.6942110132278545 12.8454645520018 0.5513982697487407 -0.8831112009845694 0.459513470522286
P 7.827749924218958 8.280132326947648 13.230658416608737 0.22008437372354356 -0.6634860262856315 0.6766755283927121
P 6.873769540347353 4.579399974514084 10.782092528089471 1.8265150282116094 1.469923588566546 0.06507693500499115
Ni 2.333796358666437 5.983964247399967 10.41266469698634 1.0185875116487297 0.31040388534540736 -2.873519143329819
Ni 6.590438059514646 4.785741954207372 4.466845801398022 -1.4464717853015088 0.38415726507847386 0.8131697387984254
Ni 0.258649690280053 1.9243722053872385 0.8244780291748699 -1.2666611714963476 -0.5967795260970175 0.8387391026270975
Ni 4.356225030524954 0.7390336401259192 0.9278850739465301 -0.13445558270912972 2.6105857927615492 1.3897668764102966
Ni 7.751594109124241 1.0593245777898324 9.048663465441743 -2.0473416794178165 1.2718879671129257 -0.7131736233187459
Ni 6.140322533446832 2.682398899718083 1.235040304413971 0.6096206437257436 -0.6217197409821227 -1.2275894023058664
Ni 8.390947000080551 6.4624906698001645 4.536369597170837 1.4707651106312347 0.9853158940797934 2.3855106506916335
Ni 6.0461253776544 4.514597277241606 13.17250085282066 -2.629688060808639 0.7082188504166319 -0.04878668248539985
Ni 5.304032390762191 4.859883808632302 9.326344615688331 -1.1999618703965849 0.22023195504500134 -0.22914596970517953
Ni 0.857941624973685 6.916849564162925 7.723310607513295 -0.9323789368714458 -0.2898273467456363 0.10738032375889249
Ni 5.519676058572212 8.634317754321122 13.668759496373907 2.0808423822784228 -0.6663147539836782 -0.8909872612985364
Ni 2.3777943738570744 0.4291403598734617 2.3087389410307213 -0.8600890290577833 -0.15197045166444148 -0.9745152039198638
Ni 7.4762810019349635 7.565682121155625 7.430165049500426 1.3846493526780734 -0.847568013772637 0.6935437649029604
Ni 3.5638392304416584 0.925867366373172 8.289914555447453 -1.7737804168220548 1.418807743727337 -0.9834564722735514
Ni 5.505213010785467 4.553499503574737 2.316910000994697 0.4238581832125216 0.7208072286046038 0.37563920030513365
Ni 5.931807349681961 2.7222472192030684 11.300546891675552 0.4849733053562874 -0.47079958495906665 0.43901972144430845
Ni 0.2171527332235222 9.532122686394079 8.098729737427568 1.4085734675938386 -0.5613211852894074 -0.9998146019166008
Ni 6.314703425673553 0.3276573500858672 7.273611924467832 -0.10701137045524797 -0.18457178263923052 -1.47445464366768
Ni 8.004154144374395 3.671853093154719 12.861738290939568 1.4486657076290341 -0.9368333730983737 -0.43196564281100447
Ni 9.076724026290172 5.521221656295537 0.1788462645582903 -1.3119627236466245 0.9957476309360785 1.5128257872467106
Ni 1.4495739520408777 5.245524491490161 1.9321957400449392 -3.2441873727829225 0.7493233337664256 0.9825162198474691
Ni 2.291671795261647 1.5166997295278077 13.833319754339215 1.5840923960021815 0.2515842441040377 -1.661230375936765
Ni 4.949556578361911 7.635636810839186 7.681112042762964 -0.6430735240675506 -0.4062854644360809 3.8629004657282375
Ni 4.981255382578458 -0.20234122340460872 4.436464970512819 -0.5230616275875766 1.371789980216902 1.1980101459868528
P 8.347436082354234 2.035964361011268 7.244875984250604 -0.28029369622358824 0.8667206754416881 -0.47922226180512306
P 8.451459492763439 3.5923812683990515 1.3319745732655268 -1.067379336340452 -0.818275692566423 -3.1283424631964447
P 6.031418781135494 0.5529324335269329 11.658129823862662 -0.4464550946764311 -0.7890445636154475 -0.7488988446344973
P 0.4060688011307449 4.583418528594728 4.3568929160866094 1.4630967954526994 1.043955300989557 0.9376047040467596
P 4.300677185074564 3.9544258260141563 4.575867581171868 0.5559938595392231 0.004290656955553901 -0.2743829871661081
P 6.958149808781942 6.61023107763213 3.062496975467512 -2.101088277011653 0.4949036770961218 -1.0535719981437146
P 0.6033095520483828 1.4235142376997334 12.181931018845551 0.27518722823495834 -0.35338193156883013 1.0177128223532603
P 2.1076051573020917 1.9110332286720015 6.34051397092718 0.336348116014995 -0.5147070849752942 -1.9786572295672247
