# total energy = -340893.0958552101 ev
CRYSTAL
PRIMVEC
9.06800261086438 0.00000000000000 0.00000000000000

0.00000000000000 9.06800261086438 0.00000000000000

0.00000000000000 0.00000000000000 13.27193842875459

PRIMCOORD
 96 1
Ni 6.325856567420288 1.9338059067230038 11.485362190442007 0.39897093305253867 0.16450020870033602 0.29350813803133324
Ni 4.3696889669302665 0.31569615381713373 6.2899028449479255 0.011844043822779603 0.640896828131206 -0.9207920033647949
Ni 2.821527063663747 1.7910211418992217 4.683030160540063 -0.42476861084193296 -0.14437335604347393 0.7128296097157659
Ni 3.7083595563753065 4.4865845850773125 4.769788272914732 -1.1185255201969642 -0.36531262156814504 0.6890605323206263
Ni 5.013163480880501 4.629251465870691 2.569619772297578 0.6655457370281377 0.008335259338572742 -0.18886809602173926
Ni 7.274242660006344 6.046707183428461 2.5927531530636108 -1.140953510183177 0.2632213141223338 -0.6422664547852229
Ni 5.295532005702535 4.508275246671272 11.64381646330691 -0.18055443394972132 0.3833193425582108 -0.24226322381342794
Ni 5.493223524686611 7.986896963797847 12.37863024441328 1.2910748244540216 -0.11547569917251727 0.38046156139444154
Ni 1.9344769388960608 6.298235432296876 0.38599946914815736 1.010548186284021 1.6178548371646073 0.6792312049350302
Ni 2.7111876112075186 1.5721195654451323 0.5933765214301051 -0.257649219351195 -0.9210524561150331 -0.8382315668630597
Ni 0.43819579740944087 -0.04472973513567056 4.953153255004036 -0.08926510221542046 1.0106044934432532 -1.3270329877161855
Ni 8.488865301254044 2.222866617270933 1.3532597018018004 1.527056586134112 1.2439282486752061 0.5197407907444597
Ni 6.79662190882932 0.6725574110506297 4.708432355491216 -0.6580576561812086 -0.13486310256019354 0.32068675532865415
Ni 0.6741579134633946 7.481373969424916 2.712824385629638 0.13817545476287815 0.30400158136348937 -0.4349892601286766
Ni 7.711646820811623 3.7122860013879255 3.703958854840378 -0.6419041863497977 0.9741655338899288 -0.10212704577975315
Ni 7.667394969399198 3.951508971082844 12.658933985102813 0.6028774114646391 -0.7873409506607796 0.1837991661392641
Ni 7.7776437418320405 8.872432732174985 6.95137643674007 0.8076305541477511 -1.114520512802629 0.011675122345083118
Ni 6.852761911307667 0.8949111759950287 0.36086024626482377 0.304232980648005 -1.4480686974749835 -1.440825642759325
Ni 2.1635709499787503 6.155341851445031 9.22767353739057 -0.8641824824008665 0.8875381264076715 0.3464119280089002
Ni 0.06776790187714776 4.87442304509974 1.5929378852141174 0.4744106993490926 -1.1601609363495633 0.4567847587372133
Ni 6.398699830206357 1.6214585661695193 7.0141533101300455 -0.6735585800302851 1.7923525233972875 0.5031150092623207
Ni 3.5003305147252126 4.106118410956175 0.21677875710662048 -0.6064466168731363 1.1016287444416255 0.40713341425867305
Ni 6.005565656818179 5.712052557121991 4.794315405640209 -0.8434753317605022 0.33752696681444455 -0.41675756761199845
Ni 5.605485393638625 2.9390393059698177 9.451252389450918 -0.1678477850163303 -0.0808154287861705 -1.0389640184225524
P 0.37709106365070505 5.2733335359776135 12.746103784783653 -0.8340949189868667 0.6605840221474881 -1.9268487295363654
P 3.984933627702967 6.15586779558067 12.631924940137257 0.35877739155278854 -0.7068206845175247 0.44418583902628017
P 2.1530067272542674 8.40076965853443 1.3119658327522299 0.4936206966186402 0.3173157819738922 0.16598013567997222
P 6.108451211352069 7.847984235972652 5.909821154125946 0.5961611757867281 0.23262261539987034 -0.03282475983950476
P 4.504493889696071 1.115028771562726 12.567171242237464 0.9593444097166962 0.29339038150654634 -0.3789710928918441
P 4.2850935731133575 6.08976205853219 8.40836955129442 -1.7007497741876256 -0.5366805039225918 -1.7641994580018392
P 4.742084618970039 1.0529582955549281 3.7302370188174416 0.3981093563831918 -0.2096526368672583 0.2377082574528938
P -0.05486141414860155 5.741478224710787 3.753170903532024 1.1207438680045214 -0.9794843749996808 0.7344531015228125
Ni 1.5154898908405015 0.9973714412192376 2.7243969702141744 -1.8725357179160975 1.3452376836496702 -0.480657965810385
Ni 1.914128341648216 6.417017194930352 4.676194700377218 0.053237262057585735 0.6175982626145815 0.7245350710781522
Ni 6.2390213770257406 5.707854072039214 9.278637524134037 0.06832115297390169 -0.12274806446421441 0.7507819205898232
Ni 8.733311440296003 2.090156403045349 10.208257385880335 0.18698450584578122 1.560453673537319 -0.429525408800628
Ni 2.4064664606208064 5.409952059211138 6.910698285049291 -0.0075716416996708304 -0.7186683278847301 0.1741672994764549
Ni 0.6970083725564626 9.050618978128709 9.220679387186799 -0.5197729295339758 -0.2016855595013817 -0.24227865043239563
Ni 1.6031321334431847 0.9975165292566553 11.540387735432937 0.13917278567914093 0.4191389233599814 -0.8302701459241378
Ni 4.20955711363272 6.898183535021772 1.4491891917417412 -0.15084199448695312 0.7548342362823258 -0.49336821428820193
Ni 5.353984348777226 7.952656186967249 8.143090583679735 0.8959965415876698 0.37539160307070185 0.5433283482564126
Ni 5.074073252588956 2.68681282092133 5.218300736584811 1.0468642471062357 -0.20737181125288157 -0.2411044276186364
Ni 0.7203294609709046 7.57266154896772 6.731831938920172 0.24637853153338213 -1.0301168524445676 0.8085494664175946
Ni 5.39250522271165 4.376335812644469 7.385089920593535 -0.8451349788511122 -0.024351689371487094 -0.475003338627769
Ni 8.191552708577978 7.227696604002249 9.268457784708712 -0.08894320009962747 1.071124662315497 0.2708132675369787
Ni 4.432031483008223 0.3007031187504729 10.40547827554304 0.33567937208274445 -0.45145383344260315 0.05488225386017645
Ni 7.762436701910189 7.349325719370049 4.613498532208055 0.843616999544689 0.5668179467379206 0.3218434946409167
Ni 7.218773689701055 6.1925297290356776 7.095429815091023 -0.09747052084434826 0.3925737712769432 -0.45795512489623064
Ni 2.4233057409636087 5.459517759993991 2.5277337626952963 -1.2059016329197876 -1.6997830393989821 -0.7904103336147226
Ni 2.2640353478882305 5.231865561283141 11.486105766633774 0.2783859376779141 -1.0717550968106444 -0.3224291919410576
Ni 1.0554792002050621 3.44560512061169 3.787638380421088 0.3764233867693259 0.3991264847937965 0.19014876250637575
Ni 3.973888800854538 2.5467303207944543 2.3160457821015723 -1.3310012283353143 0.18074238159081132 1.9987432016838222
Ni 1.1776705317178564 3.59408459090412 8.391156669255267 0.05626370758873536 -0.4074182924889435 -0.38522067334598176
Ni 3.536212599979099 2.7807573251493483 7.17571246699569 -0.36711702176673555 -0.017950156720517474 -0.6759077969887521
Ni 4.20322764800037 6.920708452830885 6.112311459947615 -0.9456342592194552 -0.5646350801539889 -0.2665817459541344
Ni 0.6968578437176416 7.2706063910685605 11.560508725822084 0.34327698192434425 0.36779502167036654 -0.31119604222939956
P 9.315649482479316 5.886511854114544 8.09832457653471 0.5265120480300222 -1.4258991033564796 -1.075942909639747
P 8.426758553236892 1.599296368453952 8.048129556389558 0.7808975090282808 0.5517060307971466 -0.8486180523037062
P 1.7557103407926675 3.0863399359582284 10.602447074740729 0.051776104131026957 0.5176725953615213 -1.5053850146979493
P 3.9266898486820634 6.268066188516314 3.648296736085277 1.7164458447666442 1.3615701022611066 0.8796983186482785
P 7.114210554734522 4.107805059391158 10.526093588249383 0.6617831846619119 -0.2958457850255744 -0.6302074667381599
P 6.303775981725767 7.755254844058008 10.257814925461085 -0.10263278177157809 0.5663068114294569 0.5787473511856549
P 2.45498027313238 8.493843634537942 5.615782110294119 -0.4457125600834518 -0.002707628739150176 1.0889745460127245
P 6.966438388624504 3.903493898699894 1.580475729600163 -0.54773367641296 0.700762908359219 -0.03681691171803336
Ni 5.271610615533277 2.702863185060673 0.5084138735184816 1.390095206283993 0.7955967629116685 -1.144832533522609
Ni 1.329858814966779 1.0897381130403376 7.020483682562631 -0.3052061431945518 0.6559233834470252 -0.5776024389479343
Ni 6.902871692230835 0.687638405739975 9.322727058304602 -1.287738560991937 -0.4465900775923986 -0.7402100586112478
Ni 2.6754868860004035 1.4171111334689017 9.016171450844789 -0.3409964134202837 0.8579704400528837 1.3776742069118209
Ni 6.428406605867648 1.9240668722113345 2.5185360879232426 -0.36177375517695115 0.5786805025034615 1.2290806421394123
Ni 4.163727429813377 6.740726742414117 10.515847652406984 0.39036853609550837 0.7916560330963656 0.2646999555503893
Ni 8.421843695969363 7.03159198542743 0.39043825629290785 -0.1595960865304993 0.46056762281841324 1.0311558352320436
Ni 7.768276495416255 3.770375624369073 8.04782487151098 -0.14769882087228112 0.16376641585810506 0.19536373104841193
Ni 3.2262320080359927 8.483206867794749 12.533739331215468 -1.7710447630584467 -1.1605597144498787 0.5422461709358275
Ni 0.16399119509285942 5.0599997129594305 10.137557798847114 -1.07338183378079 -0.872169357261085 0.9455000476344362
Ni 8.479706618892045 2.565074889525466 5.695890656553884 0.6656251841158214 -0.7251500789543318 1.118071463378681
Ni 3.795902050952265 2.7345558532341214 11.155607912599324 -0.2523949129307911 -0.6928377399748714 0.48131745377125495
Ni 1.24773898578831 3.1970330405056626 12.808176981192153 -0.7892417672279182 0.4871772549861416 0.05748472448003003
Ni 2.7843119820660838 8.184488734756199 8.048209354810137 0.5798467548974208 0.22415468713817527 -0.22007794596564034
Ni 5.531463290548538 7.873265826492703 3.3168830138146275 0.17577552450383924 -0.14731212695682372 0.988342339610943
Ni 3.059571193054646 8.633744774618044 3.4964258329182063 1.0035969517771683 -1.475850495573942 0.11407033418455838
Ni 3.52288263654134 4.1998452831280675 9.172900082864654 0.0361921336498409 -0.4913290723709861 0.5735053860604251
Ni 7.40138512079602 6.371640911227939 11.618612857606973 -0.1948867914119934 -0.934144770522617 -0.9781653990779413
Ni 0.36732482513202014 0.17941677387107202 0.22460625672531018 0.44419458077702856 -1.0380278797615285 0.8027793967030368
Ni 4.824440216209311 0.3560016106117955 1.534090177237462 -0.9644400790720487 -0.711937951139432 -0.5893922324940107
Ni 6.124592255514798 5.628953383690953 0.3710272904868753 -0.46200615503715275 0.4834692100069351 0.38141646910854315
Ni 8.012586614423135 9.041931831888318 11.213725646387722 0.17285140887850875 -1.2008460727737513 1.0813671659791118
Ni -0.015636863232702233 5.086741251855997 5.974787950080697 0.3984505417726944 -0.7232785729632317 -0.5712970655551968
Ni 7.826221030359984 9.022063838764419 2.3643555645605274 0.8306254723810276 -0.9100746169472907 0.3354088920301772
P 8.543137295250636 1.5771432387407234 3.6567907338758547 0.5998031434146895 0.2918315216598587 -0.045366601060257354
P 1.9601484535166709 3.342610750049737 1.7659907350439517 -0.1744118113870932 -0.18971913116812486 -0.2239644255042401
P 4.670048408392106 1.127506342780656 8.32649546497933 0.592715897550605 0.23177800801138793 0.05834398715653178
P 8.60804605599042 1.7586755775573935 12.364482347164579 -1.071885708851238 0.17733155613704943 0.5468214490113357
P 6.46556727945128 7.779575226330165 1.2164969973310908 -0.6243558930533892 -0.5063507425907989 -0.22242382048999756
P 1.6962605174607284 3.36571602000852 6.026933497528884 0.49258145672084847 -0.13120493698231597 -0.0012420999372172157
P 6.802216866272244 4.054312913595687 5.8209393156035745 0.8660087369763279 -0.8131044327781286 0.5234609199085244
P 2.3311294971916197 8.237191964348211 10.399691983250772 0.3052238838063646 -0.06504273933294603 -0.6106735104702902
