# total energy = -381166.14081183186 ev
CRYSTAL
PRIMVEC
9.26465561563617 0.00000000000000 0.00000000000000

0.00000000000000 9.26465561563617 0.00000000000000

0.00000000000000 0.00000000000000 13.55975997922329

PRIMCOORD
 96 1
Ni 8.799449545194992 4.978316418168286 1.2870867346010075 -0.5526208293019321 0.12548526088971937 -0.2617871527789685
Ni 0.3852012224481329 3.3486356862268782 12.849621637554344 0.5084814157805566 -0.25415200483121386 0.7326810972240543
Ni 8.308330146434232 6.047596656009698 3.3840553914410316 0.15776957484472182 1.4118079153707364 -2.0795010377591803
Ni 0.24789809847955432 0.8895607406725606 4.545027926764714 -0.30968731889435697 -0.1553519665421647 -0.7104901629493119
Ni 6.795235841846254 4.932975193162908 13.37351660879192 0.0894057415583428 0.47429062883146056 -0.010038358072608517
Ni 3.1527716000317976 3.5066165952566553 6.613353047570997 -0.21194734643870594 -0.18021427700148318 -0.012260305424591788
Ni 3.5056067477851425 0.9660256500430957 2.332739321005716 -0.8503160088314196 -0.44129823306583993 1.0817505174604596
Ni 1.7816025561421056 2.2760850249226765 3.262139007662264 -0.640664914626058 1.0995533499698353 -0.580779036903703
Ni 4.165491114812758 3.5100259885549754 2.5436621785787588 -0.2651475846107692 -0.48789356432687586 1.409591881556024
Ni 3.8154353637700007 0.6165869250700886 10.052270950682308 -1.2470400548313103 -0.035587667296622584 1.301596292810636
Ni 3.9186621576012097 7.762021193656911 2.58953426835586 -1.1205417792960444 -1.3445429715754909 0.7955394273111719
Ni 8.116709272550647 8.289587747949172 9.497133707486594 -0.8001391308667123 -0.3517063436386201 1.653920986759545
Ni 7.9318886559522985 1.2428998856960918 6.222722736881517 0.3341071424996181 0.2325735073294898 0.8440597435090625
Ni 2.7015550733793674 2.980263710861351 12.214849119806885 1.101822091399354 -1.8170741945136837 0.08681535512334726
Ni 7.5262635000092 2.636378220516097 0.6630343499662816 0.09293869441226574 0.015405535921792824 -0.2779192824541407
Ni 6.902863347135893 -0.051741249164291556 0.4408780973546159 0.49665279857674466 1.028920003922989 -1.0571165209618631
Ni 9.038838983877868 3.850993112354113 3.19945249425168 0.057428674431114 -0.8658578132207604 0.9078729813102815
Ni 7.063410565795111 2.4172505838534013 8.105292437329124 0.29440313904177684 1.7525652161970207 0.7643118367554579
Ni 1.0867070552167926 6.232797123491825 4.782432876196232 0.24828603296874013 0.7740748296794927 -0.7249809003663192
Ni 1.7721248133590033 2.177351589106917 8.156235999637477 -0.38994019030883814 -0.853034436203847 -1.5560591440140492
Ni 8.288957751361437 0.8386218106920587 11.423745728210166 -0.7781911658407115 -0.3530728849688436 0.6285887001878142
Ni 1.8901565270019403 4.789891850501878 2.974427904234688 0.5387034478898916 0.7396534147768293 -0.632597307126575
Ni 2.1322234511826825 6.828495955816281 9.78144097640927 -0.09020098376612852 -0.28334842388951204 1.0634486338274782
Ni 4.732784512755012 8.350336095386906 4.704599577178518 -1.1546474627305017 -0.6146733756583027 -0.559688791892307
P 3.6200252457043156 6.862626947422291 8.163328093577325 -0.7869254603899157 0.004355962975850562 -0.14118621656474395
Ni 2.2224611977197473 0.5526793300379865 12.253995996009936 -0.1593546599436546 -0.5724705170380076 -0.12719015939596803
P 6.156057980312513 6.032587913772527 3.048817530727985 -1.419925145161232 -0.26394199433844223 0.9089145352009185
Ni 3.9417682089218915 5.930389496724235 4.155090612321741 0.7073801565654204 -0.9392347834510147 0.09794951736329582
P 7.074861680242731 0.37331652211366195 8.295061306537887 -0.12003529351874168 -0.9324820381082134 0.20410599601741622
P 1.3890498293944695 7.034162047744033 2.6089381632580397 0.24194183591826718 -0.5502309889135168 0.2993918505056199
P 0.106506481949702 1.8361343196038267 2.0164856662915502 -2.246522984440105 2.3552346254159118 -0.04820818427411052
Ni 4.998930277105142 5.601308926190709 1.2978179853005847 -1.0568892354424058 -0.4683004726862967 0.6029272908659681
Ni 7.74365864605563 3.273721680220851 11.662614493242593 -1.6353691918992868 -0.4848725181123649 0.17162010757456894
Ni 2.0458953893518435 8.18446169969906 0.8632342950298786 2.518462652272043 -1.0693925101157389 -1.7868282511449485
Ni 4.31814484681391 1.6769119467099871 7.926425288484855 0.1697619713199076 -0.2575224639653436 0.9743313700438315
Ni 0.6587929905859256 6.435702348020394 7.516595831784207 -0.07641935660100388 0.23100076352573118 0.03127207064040421
Ni 3.325928015101381 1.596985761969201 4.672340972489872 1.0823896937063553 0.6842898504048602 1.7314245775636634
Ni 5.042020190774945 8.432745207855817 8.747943618285529 0.5376528951381901 2.0510265844685707 2.7287030433219717
Ni 8.04113747598978 7.7199596567700235 12.175837507577082 0.23105681357464722 0.3760112389325718 -0.3627798278439623
Ni 2.7120611929453866 4.814072601883987 8.818752455350019 -0.7376572102824069 1.9845072605900984 -2.14495129694319
Ni 5.378957189343732 7.620299755384068 6.862770549585672 -0.6280652235841764 0.11902587841762081 -2.720675545031805
Ni 0.7261192435720498 8.443584855027106 10.564666631262616 0.8644902434492724 1.266929851776702 1.3248812314805054
Ni 4.586458540598298 5.469760079878616 6.698643467963216 0.39798800031397913 -1.4961521832457716 -0.19114635053295467
Ni 4.389204756047923 8.883850558639823 0.8036977645579602 0.8363921996614757 -0.5798182156523305 -3.15096354303007
Ni 4.711253452903664 1.105699599405805 12.353293649357946 0.1348070525112775 0.8573796005464203 0.2211488104323159
Ni 6.075529592951099 1.5113618139717109 10.29314644013978 0.5070030314628171 0.7879868117748945 -0.5105994905648239
Ni 6.275692479391888 4.35771419131697 5.022752486311585 -0.011337536500006282 0.21164241360377745 -2.229882804780263
Ni 1.9135127240265748 2.419761305548632 0.7378084596712094 0.4213439014311002 -1.2155918636243583 1.352976961275457
Ni 2.278456776782378 4.879305042681468 11.359973397151313 -0.803303644637623 2.460653197462743 -0.8817616289352104
Ni 5.846952007472407 9.219546093344546 2.5976565920097663 -0.4804553628812758 -0.7144563466859114 -0.3214855970808657
Ni 0.5680558791065252 8.93382411149618 6.578395648676371 -0.28330394380482177 -1.0266124388357352 -0.3368335402918457
Ni 7.5159334089015175 2.221886789066226 3.197201182916104 2.2655961990214726 -2.127481422293201 -0.10894561136348335
Ni 1.4088947219080623 7.0108984972764175 12.566127805402301 0.6553903937616906 1.4194548903930329 -2.445528168895846
Ni 1.06553731693782 0.10597376424683946 2.2567784089053675 -0.34616330233320386 -0.399091517790803 1.4759505114869163
Ni 5.273052910014657 1.7430986470447707 1.2127332402649487 1.317770331467337 1.8710431925309714 -1.1134974708547531
Ni 7.1521196441413535 4.3754560069862185 9.697601401099977 0.4792860251635229 -1.3246899414053055 -0.1528343423266336
P 0.29593997062205435 5.754833535827845 9.629680357217786 -0.6054798820844928 0.10920760677561839 -0.1444484322557835
Ni 9.015927490326927 5.50414121718858 12.651676709688605 -0.812203518230414 0.45600442892776305 -1.6023176607609566
P 3.6290212263909165 7.947786805136857 12.469623445748432 -0.35606564904858035 1.5313521281856723 -0.3134388155169892
Ni 6.601826889412192 6.655849096810305 5.073194830746462 -2.6413804095449027 0.698313675487778 0.3239014056112099
P 7.957774103983567 3.410375351824722 6.181569136253422 0.2697989673398514 -1.1910707385545423 0.5319067366830323
P 5.824012719954361 3.1790276342911445 12.761524026484432 -0.45613606940962087 -1.8805940694441998 -0.28335536586804744
P 5.049385592058001 0.7200768351232332 6.035205179008329 2.2604514215957394 1.4686691473341544 -0.9699784923917747
Ni 6.725463719754813 6.10322164884425 11.013888477542414 0.21652339584516261 0.8112105581895255 1.0597979244487683
Ni 1.7282844625773408 5.4054263106842235 0.6100859161640251 -1.9440969750938517 0.31759834621131755 0.6174905333921237
Ni 6.479255494475296 4.008668287745726 2.402084342469297 0.30953176715309916 0.6088963639652094 -0.18066524849597274
Ni 3.612317052160287 5.875116560806357 13.035417822398108 0.8576212842435811 -0.2288227820378059 -1.0455648115685219
Ni 4.580723718718786 4.249706835143551 11.173120115091956 1.5974243372243973 0.28463757501458076 0.1458337426390843
Ni 4.378911723563048 6.950520736066761 10.590402918337082 -0.8088646836651683 -0.04734300806033782 1.4129852235082891
Ni 5.9785008537844995 8.612034825000096 11.24380758516675 0.42496761422661644 0.0682761586685792 -0.3875508641410551
Ni 0.13804985521815627 4.002887142587705 8.330493055804453 -0.6649289293797451 -0.19074037334378763 -2.125349463551862
Ni 7.473556873720765 7.4110945649781685 7.59465889426333 1.2709618557542304 -0.048637301391729136 -1.774800116335821
Ni 7.101821828335427 5.045642671154411 7.484946841440752 -0.19671356020808703 -0.6790257737924436 -0.9760462958524093
Ni 9.250971805485586 1.0673161308325958 13.58660832226479 0.31587365021072694 -1.3609180704994046 -0.11814578980551264
Ni 2.8376528656411213 6.889197979975506 6.06431750662059 0.1642207297867043 1.411827198644446 0.9492338036452554
Ni 3.1987428216249096 0.13826850109272248 6.523952825909388 -2.497039963621893 -1.408986386761541 0.42816092435293357
Ni 8.912774813741333 1.653250016047188 9.339894897378544 -0.6173815186180851 -0.19960142327884334 -0.4300339730059304
Ni 3.2385067238977108 3.0251972910158442 9.658712082325442 0.9756891696233067 -2.396155531999989 2.3695245596760226
Ni 5.5526972777225385 1.852643936064715 3.8333439432418843 -2.304859258287153 0.32506714378453694 1.431539589471709
Ni 5.705313951100882 7.076557112236189 13.025830756677722 -0.8867716805552922 0.5125923526251366 -1.5287404015944381
Ni 6.857577710064725 9.168080930920173 4.706307979689959 0.4964337405874031 0.2192816753165901 1.2524105751146044
Ni 8.03730190852917 8.714353682572513 2.8761067455976654 1.7012480539802828 -0.3534978883214041 -0.641468641474276
Ni 6.772722728490497 7.126882722009222 1.3519133834787438 1.456895037517362 -0.11840367145258962 1.5050589988170984
Ni 9.052513615693957 7.748883911871535 0.6679427645571787 -0.253764282474492 -0.44208987572919994 1.1070280610803256
Ni 2.0808601999710308 8.719291744061657 8.544208280606066 0.16286370153817759 0.9275354927362155 -0.47332955046977193
Ni 5.61485385282697 6.0840160175740925 8.88904617755748 -0.13354849751382808 -0.5714181645140932 -0.17273108125056058
Ni 2.3071957387698494 8.843160190796826 4.194358855514487 -0.38255418225741217 -1.4102230873821198 0.23269383495743798
Ni 8.390646612346123 5.316809878895001 5.51635481280047 1.869719331513225 -0.773927248358035 1.3808204658502865
P 5.243257777277162 3.5541720729748025 8.874672990701464 0.13534441307198627 0.5493249321594798 0.05891271517580821
Ni 0.9422988667903828 3.202810005478069 5.389435514942646 -0.5946359973914533 0.25493824817793515 0.5787751190997967
P 3.0677405899992327 3.801251175890304 4.479954838045306 -0.015512236702986187 0.46524265969657935 0.678906731716076
Ni 0.44314145274260414 3.770622224139633 10.538835844699987 0.4034785911149051 -0.6004418054399531 0.3881797559743057
P 8.452460395189581 7.512977983732594 5.072218336035476 2.187726226016871 2.531944745918878 0.7025253995762805
P 1.562882564330296 1.4400980823122547 10.176532218819242 1.2292606193607023 -1.072315854410121 1.2096158485465813
P 3.269376556696633 4.062366232194271 0.7918464169840163 0.4266275184275427 0.12652192968434983 -0.9906421913887132
Ni 5.562462224832402 2.9251945973689164 6.459042795130335 -0.6466239604229702 -0.5789507254457126 -0.3639532793267732
