# total energy = -340885.7842733743 ev
CRYSTAL
PRIMVEC
9.15794738357924 0.00000000000000 0.00000000000000

0.00000000000000 9.15794738357924 0.00000000000000

0.00000000000000 0.00000000000000 13.40358169537958

PRIMCOORD
 96 1
Ni 6.674577439986754 2.294294701710115 11.698310363892512 -1.3283915586266088 0.6046126489881909 -0.25849871183568385
Ni 4.606209293675057 0.6928472365883217 6.104245219941603 0.3763084584580164 0.07766557030327914 0.02280697059218653
Ni 2.641875426622622 1.7771087961742325 4.756435342402259 0.4138604485698614 0.6772175169391111 0.758697318782158
Ni 3.727458477977645 4.309381911689912 4.639033207735008 -0.5925068668635924 1.253151052825055 0.4997242384132168
Ni 3.784640699781768 2.92673337172468 2.682699723284765 1.3194027248644373 0.2683838321598797 -0.22002523835083396
Ni 5.714009524738088 4.515856987409926 2.9296611674182707 -3.130484706350428 -0.24246736940443403 0.6626357624701943
Ni 5.279730514460489 3.233121650500905 0.5896298462119746 0.5777610760129857 -0.45822406228690116 -0.4237018601403154
Ni 5.988528147544045 8.292631010617423 12.787365192999928 -0.6718724505771139 0.39203049717896354 -0.7807949220121456
Ni 2.541495168263398 5.582428140548203 11.48000688367503 -0.8561241308727644 0.17698188610711454 -0.21536434254005488
Ni 0.7599594204523762 0.48906642891039276 0.4999121856821133 -1.7003988186061105 0.9308370463056227 -1.507750172496016
Ni 8.1447026908221 -0.26117366226576366 6.926246984733569 -1.137571995305454 1.5507426168971423 0.7937640805783039
Ni 8.837510548237814 2.9277682197490025 1.5624291156312995 0.5834128749821242 -0.5793657014959441 0.2387690946172404
Ni 0.7079120595972556 0.30471786922192073 4.76494673845363 -0.46498503515981854 -0.4779228262674091 0.02676544101930229
Ni 1.9716785406409847 7.1257070729612755 0.2286299813876195 0.16430146242596863 -1.5373232581674428 -0.20399003926484224
Ni 7.6777298093336235 4.203598464531132 4.1175806146369 0.7404908230764602 -0.20895406813833692 -0.055429384612898085
Ni 7.719480890244097 4.072777189952032 12.912487477087565 1.3743718820114652 0.09495675328355906 -1.1818767307601
Ni 8.249222341278612 7.551927089775129 9.039040332514165 -0.10354115251846041 -0.20390647841210047 0.8342430145289568
Ni 7.153437336834256 1.1732337632203755 0.5136720012267474 -0.31883478972157997 -0.19787415617509146 -0.5432530149337871
Ni 2.2254635711720323 7.092491198764678 9.238177145208612 -1.4786537693506923 -1.2202776991358018 0.7404136899816215
Ni 0.06634108471672785 5.3645422627192945 1.403019477534273 -0.4083338623246774 0.17222405970715501 -0.24994079496334373
Ni 6.615087415508922 1.91172146086014 6.975169654032065 0.3949741531883198 0.039379016018254755 1.9116589091698049
Ni 3.427535709866653 4.674289472549472 0.3200693359756446 0.9353989546446922 0.5527298440759707 -0.5496872005949051
Ni 6.32902977933442 6.128040313938025 4.902252755386909 -1.078560292657936 -0.2004223765182419 -0.5852974935993468
Ni 5.288430564222487 3.125195243716537 9.469000454930965 0.6169642285750084 1.5280929978184263 0.7446305562764467
P 0.41703642744402986 6.019472850855404 12.719274940383684 -1.5508493176783356 0.46694061622429256 -1.9940535095176368
P 4.211281982163044 6.3333523303740655 12.64819553382816 0.9978651914997138 1.4378267080320013 1.6974829305108958
P 2.419850156696427 8.863940383620053 1.3282842184892847 2.307282523016665 1.0532817205968052 1.4614152939852187
P 6.436315129820535 8.118263697492743 5.795882487766761 -1.2038673760985783 0.9042415552052815 0.6560449966265541
P 5.0185641785524195 1.2489974597267035 12.884393642714004 0.24062594532032108 0.5736218570336316 -0.003732213348922604
P 4.214175893452298 6.766733861834111 8.32241723361837 -1.3708175890013037 -0.006709293699375542 -0.18695365260784577
P 4.606337504934707 1.4261762626165773 3.8883388823818046 1.246161508881099 -1.3204162537306163 -0.00680982383298182
P 0.11363180783881495 6.015305984916764 3.5304499721933973 0.1055674389198698 -0.05691908178454714 0.5050104265128206
Ni 0.6138626900806309 7.91830908012067 2.160362472495067 0.3450392160310896 -1.9532313332949522 1.1579664998014056
Ni 1.8207006244554025 6.885759700525365 4.672944170117854 0.6184829792123799 0.6492511136331721 0.22455423656943907
Ni 5.9253291544834665 5.826057007725508 9.098672305172325 1.2190631100024103 -0.4134842961773653 0.7135253502312099
Ni 8.821310139786263 2.68460640787471 10.40994472109541 -0.16834529347803912 -1.1588962107045266 0.3555321451426135
Ni 2.6338530649473477 5.672432444822854 7.005181162532112 -0.9861936686990564 -0.25648708072229376 0.09592245963093803
Ni 0.5975267440117336 0.2798009267035578 9.34901120020291 0.08846086114657023 0.6298053462037347 -0.21311745548740715
Ni 1.6895862955685301 1.597869455182833 11.660217882855639 -0.007399634898180805 -0.3279796894456416 -0.01400814135363394
Ni 4.154026496781977 7.413257454515995 1.476122790402853 0.5418749036393377 -1.0529857866229413 -0.4298408831585178
Ni 5.754973022196422 8.367030173003185 8.132462178704325 0.04918906013014109 0.2015158666927368 -0.13271623142051983
Ni 7.165159509145159 1.006046280636123 4.893030702639192 -1.1786384263284604 -1.7897881051042208 -0.028662400931699028
Ni 0.8591610510175272 7.708985882846992 6.911221540897242 1.8977862649527701 -0.15077694557697258 0.42310433576563267
Ni 5.0377500777644055 5.549303845822784 6.6947807871235385 -0.06843299596141762 -1.554331362689665 1.4894593446066284
Ni 0.8167313662256178 7.989878436847003 11.523058393076244 0.2979507471837191 -0.4432201326789012 -0.4373423337418855
Ni 4.92177383546341 0.5070773635071527 10.780969790629726 -0.85898679713254 0.3288034708985176 -0.4166385255356308
Ni 8.30312601801453 7.4278552222219165 5.087048222894735 1.9154885673285398 0.7911965769614439 -3.2512995583476716
Ni 7.9355718104378985 6.366531572782192 6.9736155504061585 -2.731994826699366 -1.188805082448817 1.3461537677060365
Ni 2.208319894167337 5.753672593705682 2.497033335006028 1.0425892738799658 0.27865667484079754 0.4562774800834916
Ni 3.479800114068467 4.741261539822623 9.331077192361938 0.43517206556344407 0.311234865887135 -0.5561519823836422
Ni 0.9648080447642514 3.6748002820497607 3.8807121440220236 0.8141799252304946 0.319118896620902 -0.3517346257733942
Ni 1.6207368491362115 1.5489110698905777 2.632463804369564 -0.35598285952678693 0.09313872623821379 -0.5627252647257857
Ni 1.3092018040797313 3.4104652964389004 8.506234632374005 -0.8396883539142442 1.5001152816585779 -0.40677603091925424
Ni 5.657211936712916 2.8790021513462225 5.170552216305105 -0.4918204101851078 0.922667880231269 -1.3671015736022971
Ni 4.238975614247552 7.418788854575202 5.689055950431253 -0.3751262652244572 0.9745812812711087 -0.42690262646580024
Ni 8.229413701662608 7.89757548784576 0.01813823006169865 1.5523539272483202 -1.131723764054793 0.25412140870359456
P 9.637731967399294 5.854748856045865 8.043462501228506 1.3287448282009697 -0.7481946194786211 1.716959808288585
P 8.641402268655256 1.6786242328684122 7.841657978538618 0.13830221014872957 0.4428154410413148 1.706210797302197
P 2.106575101687547 3.5185015985886827 10.536166874631904 -1.6311183870427328 1.4021333683954498 1.0060263871542676
P 4.192022819374115 6.7354319985851525 3.58473461952942 -0.6089503571315965 -1.945323391301785 0.23127227201956296
P 6.98669859365878 4.29983017284595 10.542600332482225 1.6491965847006824 -0.18686469243846526 -1.0692037911437007
P 6.755432955090631 8.495360485966218 10.34497824424108 0.2788258534288101 -1.7372224151923628 1.275329645804623
P 2.568840798357426 8.92419051770867 5.9902480100127855 -1.0735852080408477 -0.09799168345514091 -1.0509577004493191
P 7.1152029076170535 4.302724084135204 1.4726116334778532 -0.015945467585662863 0.0777676430987822 0.7305267698852128
Ni 3.106311556759442 1.806047909066774 0.464726437060457 -0.849133558487544 0.5369509839751592 -0.5595172993114493
Ni 1.5644246323082882 1.6542091458521102 7.025286519634734 -0.15513830786946187 -1.7628606845857575 -0.02241487736009043
Ni 6.813650024919076 1.2301595625051978 9.455891769426414 1.4219012950509964 0.5323667070385862 -1.2348717948998926
Ni 2.9544178458620705 1.9365578134438657 9.418737062174412 0.6892258542538969 -1.5724833510083434 -0.9455892649141328
Ni 6.435674073522283 2.141805724250081 2.4535523178849847 0.5215313069859793 0.8252706358270174 2.1208870569051346
Ni 4.221483935252376 7.224182478319978 10.767177006475466 0.7791704990348451 0.29484896832994384 -1.8571175835888143
Ni 7.377367459760973 6.327271453487785 11.623022880636315 0.965278258702628 0.46823542377631616 -1.7608973902117995
Ni 8.015071949368325 3.983450573764105 8.425772908996198 -0.9604037042191459 0.36474157955602343 -0.6432704705697051
Ni 3.529436187447447 8.58501678825039 12.615799295898611 -0.35191486010500034 1.1757191957991364 0.12501603456278468
Ni 0.15705604568772763 4.922460681497252 10.321924028166498 0.6796736917890875 1.799408144692488 0.17007898833969418
Ni 8.635248128192032 3.05703264331806 6.1363877827359845 0.5049559191258013 -0.629177997032381 -0.559178685025108
Ni 3.9038039076797904 2.819136651036557 11.457274111544285 0.6118814147354623 -0.1189986247241112 1.446008215401529
Ni 1.27135200864148 4.030183577906712 12.763962059140153 -0.5502361311198395 -1.3118963891850632 0.21506043814639092
Ni 2.9487673924903306 8.925719894877359 8.165515041442223 1.5052227780884722 0.9220914389025087 -0.7118767588841933
Ni 5.9099438033254055 8.214092456134374 3.497678258432018 -0.8931161347160812 1.1555990280104935 0.653683695483229
Ni 3.0689196586770855 8.688263484057515 3.449371003179845 0.12798334472122475 0.3281527246883961 0.6795536212714555
Ni 4.025906816602656 3.329087778349304 7.046343387442905 1.0412008781728714 -0.40797107966862 0.8776648331580176
Ni 5.370192716091035 4.649105117975267 11.817790436760815 -0.7579429571146366 0.47533372538399427 0.11642315068745111
Ni 8.405411129374274 0.45955677591240657 2.5500715857393046 -1.0618653485007583 0.5887615408885474 0.24661250192105916
Ni 4.693182317453686 0.6013721660065368 1.779419346232077 0.4940948080415813 -0.20865324906846647 -0.2132807205381488
Ni 6.4213144124414265 6.065812063271943 0.26400529951461615 -1.2126294385619245 -0.02425141634819694 1.3898887467001417
Ni 8.226959371835013 0.5527773512148618 11.837037694218491 0.4794364346984582 -1.4155295871966975 -1.5970908651443785
Ni 0.38516310829491546 5.221650813838813 5.698908069940683 1.0597524159228138 -0.1405735226814095 0.22636043654024238
Ni 7.067068737565408 6.314926540772865 2.7282586786068586 2.378271966851349 0.7773180192071387 -1.3792433511711537
P 8.577507271613717 2.0939462926119727 3.967164996404356 1.8366369471369595 1.1087627843832453 -1.292254960805052
P 2.2201794356850084 3.758394023341887 1.68204197873281 -3.66740226598449 -1.136124721335966 0.3781622238373035
P 4.841705903811672 1.5679870737371486 8.208714909586748 -0.37635988052124214 -1.7867302921145036 -0.2547834677676257
P 9.082677950530925 2.226077153628931 12.813823418018233 -0.7837455200000373 0.4293143212310864 0.04589007766389516
P 6.779637409323222 8.313016600901854 1.511910216150155 -0.4741533319226479 -0.2941439718431192 0.25366323812025343
P 2.1541964267005898 3.5337495805399746 6.251952833211386 -1.6698515419468725 1.4105411328431707 -1.8919264637378836
P 6.841261235479523 4.458042867254668 6.235359548828477 0.8947580411948785 -0.5566857433999252 0.6932023224031416
P 2.5899407085170516 9.077018339212067 10.460262145739962 -0.04653156790263599 -0.6569667371098751 0.2304914279894805
