# total energy = -340873.16456335044 ev
CRYSTAL
PRIMVEC
9.22627456514176 0.00000000000000 0.00000000000000

0.00000000000000 9.22627456514176 0.00000000000000

0.00000000000000 0.00000000000000 13.50358543220750

PRIMCOORD
 96 1
Ni 8.948083850943618 4.477547909773842 1.1797111278697383 1.2106625446435408 -0.33488798652970064 -1.913761300224788
Ni 8.245779837599436 0.5234665219797975 9.031670207213887 1.2674155331638688 0.7568258127910579 -1.4156972231228133
Ni 4.936222919224613 0.6636117860614508 3.993401924368798 1.3421433609950628 -0.77713264266921 1.1025247738933335
Ni 0.6750994204152978 7.830468318200132 10.114347683760162 0.3088373121892358 0.763380326080124 0.8698556215262438
Ni 3.5484897485584046 0.7448417518297751 6.908232064334493 0.41360796623942314 -1.0102378541324537 0.41744045261163587
Ni 8.387735296733876 8.589255583904968 11.902978165207076 0.5608833264210404 -0.4932491722118344 1.1160544329486521
Ni 5.397056876903478 8.934198307852668 11.685071091933768 0.01807999743016241 0.47856431650615006 -1.4437078494031266
Ni 4.676992285187152 7.240817116244973 5.720996909627101 -0.43746908912773685 2.2221586966631275 1.2437266741873614
Ni 0.689065232094214 7.817745285693541 3.779707568022618 0.25182155692582436 -0.5233675888637696 -0.3777822147900655
Ni 8.141338410496754 9.567646634759809 3.951365172587417 -0.07398812145169194 -0.07309800553725475 0.8897983831967577
Ni 2.873910690023725 1.4226269407459202 9.090573511370394 -0.17089351382118956 -0.4553536827176416 0.34513717506153463
Ni 7.095632461042871 3.8957205885769057 10.649278774407607 -0.3209721477795569 0.04176011465592163 -0.1387657800487094
Ni 1.0314882604816893 2.095000919680111 1.3352725739784121 -0.04126774840053538 0.639031492787693 -0.8053304452596647
Ni 3.4628422425695184 2.0810507926678095 5.054864505377978 -0.44213538425515464 0.9481372281469671 -0.33146919065613883
Ni 3.887407715271295 5.621974996153405 8.13254761617313 0.5270342390820794 -0.58309637218297 -0.18304968956774928
Ni 2.6194223610684886 2.1344616956269458 13.036860542484549 0.7177810401837702 -2.493743295148492 1.1863645913281244
Ni 4.6279454100566 3.0864748277462235 9.681949104025684 0.23046340296502246 0.8593197549919266 0.6177946948961037
Ni 7.333412006916573 2.634341246901089 8.50819076844982 -2.127684539442942 -1.4293772917130674 -0.9584558364641557
Ni 9.191639044641196 0.050923499359588516 1.7135645896580338 -0.386080964463748 -1.165069172284458 -0.8709339421920871
Ni 8.010150013679349 4.605138059544424 4.261569127866652 0.49466944959812875 0.10953079444299202 -0.6841378982080283
Ni 6.643434296276383 0.5134015791506176 13.275105092591994 0.4148271833585049 0.6432257333746988 1.5712620770067325
Ni 3.310387283077936 8.638173291192816 10.482130972808163 -0.7963120438111383 0.33205154552217003 0.3370852512913356
Ni 0.28941346836817705 6.8644958327940735 0.5256503811489851 -0.258077050917233 0.5681250955851183 0.46481714212338654
Ni 2.7288921077622446 4.264217991269583 4.001787685242794 -0.08807802388585476 -0.69903744102768 -0.8358134443398701
P 0.2053418100603098 5.754335129829648 2.6849584339479735 -0.6921419994594273 0.9142495742605867 2.3677569262526386
P 7.481669011520195 7.91725065594994 0.4917724238894147 0.2388701389714789 0.06013167518457386 1.5613170499788787
P 8.543954576212904 2.347145774917672 4.537866524435432 0.2402829601586055 0.8129406535067547 0.6584541202886789
P 4.207494855772473 7.265838772632118 12.260971454405372 -0.2155054961036095 -1.0674754955986843 0.886349505416209
P 4.564035006740321 1.0314790342072102 0.6006101707813569 0.1688703127435737 0.33973605865062134 0.26124799244604685
P 2.4930777583525763 4.333691838096721 9.534057459891432 1.1237029506328453 -0.42373862691552183 -0.9193041059653587
P 4.310386268762677 8.015630420719894 7.934071999580118 0.1340298080256208 0.8993124933347801 -0.7289452843307058
P 7.091692841840323 8.563578862029814 10.145162517892691 -1.6525580449737476 -1.2824570008780236 1.0120512531921086
Ni 4.400416255129105 5.146378999308083 2.26490276421155 -0.25608521729818473 -1.858804227262618 0.5636503476432163
Ni 1.0716133281910147 4.838046132493196 7.4675232874889375 2.6476814120622656 0.9519103220361541 -0.4668858517269572
Ni 5.747793701224012 2.5950465438948767 12.3096114508314 -1.76728426757475 0.2080117588297256 0.056711336649115235
Ni 7.555442302254563 6.330672817711559 10.35835681016211 1.3926326279938661 1.2579618439501368 0.16983267665684298
Ni 5.188561526226233 7.232079834313327 9.789127044138848 0.376677411761661 1.60298820446542 -0.17143370259537574
Ni 0.816308473944384 2.3576729540982515 7.908995908173546 -0.9058531226667753 -1.1472267447863984 0.8052147456174067
Ni 8.492001424621456 8.01357296151107 5.849172927827102 -0.33008516582441866 0.1978438171577883 -0.1885752473716688
Ni 1.2353243425470206 2.9906415147324816 5.513702819887028 -0.09879541030335888 -0.11499927375673098 0.4740384036113385
Ni 7.344686514329955 1.4767390405654635 11.056033846855055 -0.25189586180718554 -0.6533756773245071 0.4619804440055399
Ni 7.9648305534383255 2.807915148675184 2.400235603524938 -0.22266396152526166 -0.7274417032019859 1.9780450499045223
Ni 6.055379239806097 5.00129583312525 7.09910523075678 0.30095071035230747 -0.9892468537030835 0.11341367443716598
Ni 6.898513106798277 5.106825960616458 1.9844738419310572 -1.1269271139970978 -0.069363478195487 -0.02687265602112791
Ni 5.388162748305688 0.7840884782086963 9.145316688364304 0.010965240762252084 -0.6044475841652364 -0.3577605202525
Ni 4.578372637280742 4.983812042987478 -0.23186458130519316 -0.59208597727609 -0.451755423843422 0.4772823644699329
Ni 6.431091589141381 3.2396678891961286 5.587945727992379 -1.636441341917543 -1.4617410527557535 -1.0382842187467087
Ni 3.0509259921785 6.764224681755916 3.940480936584499 0.007935709907308913 0.9412099048995145 -0.922051843913825
Ni 2.7824044997406507 6.226443594921895 0.904897316237187 -0.34794610526523945 1.2038992577777783 0.6230274040499528
Ni 7.925941806509191 1.161052832990785 6.470243284893168 0.1231301303939815 0.4439109880983387 -0.17362839625384938
Ni 5.830553383300961 2.9349517219770234 1.3651454054866332 -1.0614377740450365 -0.3517775631961877 0.47205916839778056
Ni 6.778405465630193 0.8286366219032713 2.138508339613451 -1.133136071021287 -1.0069216452750271 -0.47227719794585754
Ni 7.545191911308354 7.231166433139902 2.760052004560291 0.12011242661358025 0.7454599941562774 -0.3431291434925704
Ni 2.5728758063217545 8.710977823106884 13.085662921341408 -0.12442005284999864 -0.32889011707505295 0.6007462240542493
Ni 5.079673034824657 7.040413208285843 0.9694360288454882 0.8521003544253519 0.9693796824655111 0.47895075331129133
Ni 1.4961788008927912 0.9484148850724538 3.4587946759555654 0.5221077483147395 0.4221702539871374 -0.5513283357427536
P 5.393108031426451 6.690359128276757 3.3699954746046403 0.19692156245383505 0.37717234912020847 -0.39883980679131315
P 2.7958195028331683 -0.326528925342441 4.756111279354673 2.4069335964521 -0.1794689141950264 -0.6327441171170844
P 0.5148288838125243 1.0597483392109752 12.934773660628917 0.21855148201878494 0.13399072725756925 -0.33486947458693944
P 1.8729152666952478 7.95378670288692 1.8874235833135309 -0.3260619035976385 0.5181042835823013 -0.22271769758133256
P 6.400764824928792 8.972754908900558 5.706790292184283 0.0760732861154948 0.35137698532365935 -2.6647203698224233
P 0.8778163553863221 6.764270813128311 11.957303391967084 0.12636252128835013 2.010687775640208 2.215366870552275
P 2.907743438538348 4.85264209871903 6.113180926789807 -0.8866639513328343 0.6438098880129428 -0.03463841600947583
P 4.032343261062463 1.4264097132823246 11.14920814756394 -0.9018388593010598 0.6203794249041444 -0.4171033809871913
Ni 8.461969901192194 4.490187905810121 8.596058116078362 -0.6638724630907727 2.0625764940896993 3.1410254579807515
Ni 3.04135834554374 3.6786171238107213 11.655768444188352 0.9067059575853739 1.701712395211211 -2.6221318457279357
Ni 8.075213701305508 2.4806407403548367 0.1490366247970999 -0.6479789317889679 -0.9195817851067776 -1.2161641911880603
Ni 2.3932402422149335 7.302420950941493 8.540126594931554 -1.4370499777669767 0.9999395575302393 2.0137949538106223
Ni 1.583191795504575 4.851036726959678 13.07734451227111 0.4824806208414207 0.30089954539939795 0.8441075660278624
Ni 6.595799041141123 8.347767075690694 7.6363585746906 -0.2780254690147019 -0.8999709528543856 1.4186167107624537
Ni 3.1198370362624157 6.187970030344316 10.717700825944135 -0.9468285366378726 0.20272197118569604 0.13324150779637053
Ni 0.9315584815992559 5.310412933270855 10.651303941655756 -1.5792093568782672 -2.5123202868197314 -2.5568060279369322
Ni 0.9269361180852591 5.677452584595846 5.038660399510448 0.05563584419674934 -0.29292218362087613 -0.337623897403625
Ni 1.134305863276061 0.3306300043483723 5.687507378523098 -1.3699295299693957 0.8571404879524206 2.617944032898833
Ni 4.620499806552018 5.014424821708918 4.826424717159402 2.2575206211021897 0.0036483953858646844 0.46499943333752175
Ni 5.177185529793584 5.212023942226422 11.071454642019313 0.4241734004600953 -0.7210514834049259 -0.1711519096888988
Ni 3.8388129275902148 8.877521303727955 2.1765621087022327 -0.3647158685244106 -0.48019285324850847 -0.24402314392732813
Ni 0.4871472924930742 3.239160444099782 12.045062792184224 -0.06284881700542079 -1.9853690943697613 -1.0087954652589723
Ni 8.397847293562899 3.746254942016531 6.551763878307582 0.4050258809973669 -0.14141350208420161 -1.315604948384902
Ni 3.1022886622032906 3.242325056246091 7.608014536863555 0.22835149882834224 0.15470919075184322 -0.2514857708529604
Ni 8.273117288880817 5.126284173492744 12.342588001074366 0.9267392220871653 0.5592607032159529 0.5577128991128588
Ni 2.428217048764957 7.2820770157152195 6.380944019465479 -0.770328475263183 -0.30460707615797217 -1.9091094032750737
Ni 9.023121141281614 6.870732794341902 8.262046682133423 -0.4029391736716673 0.4283547855312945 -0.8790681412634473
Ni 6.587246284699057 6.293878435089165 5.261874425864098 1.8969105472160364 0.8091703878310452 -1.246933096939801
Ni 6.451915290640564 6.725132956788242 12.55154189759322 -0.0837562565820493 0.006847876159768851 -0.38484374962253726
Ni 3.6874743473105958 2.145966859902303 2.488872422445032 -0.4633220456350988 -0.05146114399376944 -0.3931281011185165
Ni 1.2716666377199415 0.9200071859515034 10.72113115479544 -0.9594228283631153 0.5932486301256235 0.9553800257523094
Ni 0.8509494441033707 3.4454322626275786 3.165118668778074 -0.48184761524311204 0.8937956772816091 0.11333499868043062
P 8.804107837698268 2.684679800458707 10.124015896786743 1.8560798863529193 0.025858612934316755 -0.9474080632904264
P 6.158547441030673 5.526889011372465 9.085225962682344 -0.170236596963481 -2.3261086545842327 -0.011946887949231037
P 2.589317027443396 3.7789989901426275 1.523663872565838 -0.5261880890317003 1.1077664819082471 -0.6383846032323135
P 6.624400492026132 4.280530044548518 13.342338799975623 0.28828288507665195 0.6773010777918529 0.13915195974353456
P 8.388021311242726 6.008186845845831 6.375177597916082 0.6161751570148098 -2.0665719884023375 0.4798323845852962
P 5.192316619939201 3.169889575311183 3.7027502899655347 -0.10235098886510116 -0.3659227443483182 -0.29736273589073303
P 0.8828520559969796 -0.08301248199767396 8.256686216661103 1.9654834111894277 -0.02769386637084263 -0.8437910632287081
P 5.260434204417921 2.5331935997874226 7.646675394813057 -0.3690476631305451 -0.5217303103706628 -0.977721112451671
