# total energy = -340870.49128965207 ev
CRYSTAL
PRIMVEC
9.22649750012770 0.00000000000000 0.00000000000000

0.00000000000000 9.22649750012770 0.00000000000000

0.00000000000000 0.00000000000000 13.50391172009558

PRIMCOORD
 96 1
Ni 9.00123233197285 4.04021856582931 0.7686687134478186 -0.859598976795242 1.6219919992614324 2.102993464454165
Ni 9.04788150213276 4.4650341792930535 6.893692760997417 0.42616214875534997 1.6597921008283414 -0.825231812169282
Ni 4.288881893554726 9.250578420495703 8.947678051261581 -0.01196128612693424 -0.7911559535314956 0.03868841770913337
Ni 4.455300224680968 8.985427342161948 3.6962095380414963 2.0551112960609057 -0.24360868209772885 0.6016121715989704
Ni 8.289528012624574 1.4152247356245942 8.626001760097989 0.21664835145880104 0.6767413486336409 0.543163026323142
Ni 4.113061761717855 7.503015253470808 1.5328016808413236 -2.2300722950832497 1.4269483705566004 0.6018985924911376
Ni 5.795070665691691 7.20028465178632 0.1580886493975299 1.7907712949530967 0.001492525385126462 -2.5468435174075816
Ni 7.799850123404469 4.479206079088469 4.5452004460589555 0.21762099978471552 0.7899326226473556 1.0352035229388559
Ni 1.2845314018992957 0.6768290823452242 7.639000906025958 0.298246424047267 0.2750108505580941 -0.19963921849531427
Ni 9.11183035466012 2.2463660620377497 6.57699877835565 -0.3433973095522925 -0.9703687858516578 -1.3101572950067693
Ni 6.300950284104991 6.223733728513955 11.162602978577434 -1.858178163642845 -1.5124833163056275 2.0015732149334498
Ni 7.806253312504741 4.090927394784781 8.833151386039882 0.3680012241439017 -0.9211756119564587 -0.09759136269292869
Ni 5.585684536813334 1.8979735254004555 2.5478095673540997 -0.14836910746642834 0.3239839380226872 0.617909108986781
Ni 9.046700510483141 8.30650476758783 8.64790454194977 -1.1540332261852706 -0.2246964185742582 -0.11392969484163605
Ni 5.222400433594138 3.9723299989708036 9.096977539366721 0.7931076779412276 1.4897917882453826 -0.502635755633057
Ni 5.145442219926456 3.707197373631575 11.941062850920366 -1.0572594742976307 1.1969115136060355 -1.013223676233655
Ni 3.739268678116512 0.7356839857338799 5.922289300547878 2.5641542407718876 -0.8249988702228696 0.0761067104565915
Ni 2.506774720778507 5.5939699313551845 2.9808127744887094 -0.13698323422698988 -0.5102035406779858 1.4908384843423421
Ni 6.961687432574444 2.5033240108022796 12.497991756038127 1.017894342236447 -0.8195519881756853 2.3771612502856736
Ni 2.844436841099351 0.5013401817600812 2.261810295805683 -0.1486555283585956 -0.07257915691930726 -0.4666588233178156
Ni 0.32493785794593677 7.496722782337688 3.572837429894103 1.6745636027105613 -0.031248416491320374 -0.8900539508509897
Ni 7.917118903612626 6.765744310207754 5.197034024669961 1.353888931566765 -0.8336200362329772 1.0293779173960143
Ni 0.9039623787082697 5.780788047929124 8.684419327516396 -0.3605008020017985 0.9351698693530216 1.363470147497297
Ni 7.546222940151752 8.652203167024435 3.717761712997298 -1.1724839766912905 0.7530797154850644 -1.2304569536616488
P 2.838559562343049 8.5791108557098 7.231114992389433 1.1887279493539786 -1.7874720553765344 0.1308606662690198
P 4.251975904504166 7.979499251605337 12.543864055128523 0.3593754301481037 0.1755613516105041 -0.6218431539338645
P 6.430573344147824 0.8819608733357778 7.5549788860539975 -0.1267687555878333 0.5156961883614409 0.4370762245646924
P 8.921035617765982 7.3033169467182235 13.114228585560141 0.38634141721398624 1.6314364325037838 -0.5994822697401612
P 0.6072529891373808 5.481332852772873 4.296768703414831 0.48424131228626915 0.4141543256611964 1.1463425424092322
P 5.596156611206431 6.474085505238434 9.1801747104834 2.2983080874321966 0.07021759866566617 -2.2596993739210633
P 1.9343166981179951 6.173089485039323 10.855767508260795 -0.6810818849905238 -0.7322545512095969 -0.7527362161027165
P 4.476225920472636 4.157431987053892 6.601332742236138 0.033743929219664466 -0.2782203586343273 0.8462667784627103
Ni 2.80801985640371 5.160435277978246 5.76658846864192 -0.13522331411308972 -0.9911111606053317 -0.9327116376205162
Ni 7.140146342628431 8.16532090647491 11.816961849489223 1.5722321542294857 0.9388306060340605 0.14720002685899164
Ni 5.253069310495154 0.5511623443286121 11.475597135816882 0.5011347456074983 -1.011372481957529 -0.6592851008304065
Ni 1.9802185219996302 8.06785218939238 9.235162788869284 0.9272431583067773 -0.8884539533537215 -0.9585998182411879
Ni 6.889037993128416 4.989994194045494 13.445358345819034 -0.23899278059227227 0.24035392260585703 0.20045040154269994
Ni 6.351862096000239 5.570008717964108 6.902159917535342 -0.006961776029813816 0.42077928717688173 0.7485368333093882
Ni 4.246421553152056 3.481950895958739 4.310327041142282 -0.7267086816907032 -0.6563864391263727 -0.008846394647036378
Ni 4.193323061405562 2.22994289691025 7.943473470393632 -0.06060630082814723 0.13836751616902623 -0.8861792983869318
Ni 5.602615159290278 8.224628830879162 6.994229288419777 0.11379034105029436 -0.8113810223291188 -0.4037979221275368
Ni 1.7785180653410524 9.032989935550859 5.137509277580038 -1.124405890237141 -0.05402504806620373 -0.8584553501091021
Ni 1.3926936293092267 6.798230807069511 6.532935795378458 -0.6353465877369381 0.8809013378174441 -0.13822353439199422
Ni 8.76321638208852 5.587170002872619 11.852869531535966 0.19825493655327792 -0.2526599936667197 0.5747284598342489
Ni 1.2092247312416262 3.4346189650013947 2.479467056830271 0.45345312326081905 -0.17312908801992763 -1.3317823294757127
Ni 8.0354948634923 7.881255508752744 1.4473763106357165 0.976029326571545 -0.4109988107513502 0.39621162513984665
Ni 2.4975113175268167 2.4954076761509345 6.049698001247678 -0.5891091540359532 1.5775656506272573 -0.09009582564683193
Ni 0.4191892954329853 0.8437484122728272 2.7599830210554996 0.9151260633282691 1.6709740855870896 -1.0571769418861536
Ni 2.1986004857090613 7.437571708386901 12.80486782294272 -1.0378432745545483 -0.7359643959610165 0.45625305460345944
Ni 8.09256074906173 2.6401345122127085 3.2612890647757093 0.1993815939585534 -1.4096188781392176 -0.5107781822345332
Ni 1.5064378875630553 4.690935738271536 12.527362464774288 1.032924239986376 0.12795146304202482 0.5625182909213021
Ni 4.763769707662819 1.6873602723861671 13.266201912571994 -0.44319879252266253 -0.5016633644174586 1.3645991188954176
Ni 2.9109783393575124 8.904510961168594 11.063349856924308 1.612613643370326 0.8360890665987601 0.5964655944010243
Ni 0.9811364924118975 3.6233192870169124 10.41147475907562 -0.36742221171198014 0.7370051785207049 -0.26124799244604685
Ni 4.733765138564713 5.668363178783853 4.008068836117641 0.6152518738695921 1.067061547989717 0.05233840439240019
Ni 2.743711170483108 2.5290013526842077 11.916756566531665 0.09968578332811219 -0.3797614500036234 -0.32079062789637014
P 8.51499592623171 6.70366843662471 7.298202699285542 -0.4077466223626397 -0.6769604066229825 0.8928788218942946
P 2.757394065923603 1.0905258439577599 0.11779284525267505 -1.2712289933726881 -0.5702364855011663 0.2261490918603847
P 5.57144805153708 3.386087589399907 0.6149469652046964 0.3209590351534343 0.6600584886613213 1.3443637656851495
P 8.256081960047503 5.681234142465235 2.2118728020213694 -0.9961266115420521 -0.44206185070474185 -0.011223122409329057
P 6.0768017596064094 7.4111470202267 4.607764401347192 -3.267316245490902 -0.02104550781638956 0.867696666201712
P 2.553580741391881 2.0814239704735304 3.7082141336299177 0.04605308560432069 0.28757017528034345 0.7471371247483842
P 7.439850653210773 4.356659742446082 10.940071859048992 -0.9598869124837274 -1.0673461691096715 -0.07661964553726804
P 8.33767187534103 1.1771349737621635 11.021406200368345 -0.25582656432015943 -0.8375468820912092 -0.0014141067387072421
Ni 8.267550496144965 8.845590549649373 6.411116506720368 0.3603053981615408 0.6999463259951946 -0.20325598931229513
Ni 0.9041838146425731 6.317797868106572 1.240616042878307 -1.1786170861722218 0.23385571647602305 -0.25401599347398185
Ni 6.504440681232521 3.1015516403173455 6.8643220522612545 0.14057275135046113 -0.8571505152547496 -0.0597174704652907
Ni 3.7088581431388494 5.545180213830344 12.721927148449943 1.9506358046536343 0.6446814919846188 -0.7978333655516711
Ni 4.02756903808223 6.716373323355366 10.459468229886696 -1.2905837437502161 1.1121216735531492 1.6006094198205982
Ni 6.585670763132805 2.481078925902054 10.360309218505648 -0.532755972057205 -1.356580619466315 -2.5301192626743654
Ni 6.763649895329135 9.158110464929523 9.664668230891628 0.21215072069876365 -0.4837011235120831 -0.5524789044074292
Ni 6.526408971214867 4.343539663338608 2.5679574694265273 -0.19869845184859972 -0.43966661099968796 -0.5141216447854695
Ni 3.7166268538339926 7.384685426077448 5.552902792039173 0.1600879385652533 0.48203607710483437 -0.7979958592714644
Ni 1.2802964396557437 1.109237180406394 10.276921981545359 -1.168306448274833 0.7950987402293275 -1.8779856852870753
Ni -0.0059474001354978805 2.8789716203534135 12.518557618436553 1.1654517524348573 -1.9063194992347618 -2.922728258064618
Ni 6.31565732074164 0.8284647195572636 5.2924120174727785 -0.32022832763499687 0.30974825403927947 0.33133446485048745
Ni 0.23901333423842097 7.655584612205827 10.880263858493105 0.6367318981202389 0.5531489338912602 0.5579165304832328
Ni 0.8737935779588888 3.4441960691600153 4.664264702634422 -0.5326351302086246 -0.4212827091758616 1.3444254721610203
Ni 2.274875938579308 4.172194382674116 7.9802982662682815 2.001178293487876 0.18054209265454713 -0.652943731993411
Ni 3.374831262739486 4.420756218929643 10.314962829759224 -1.3484109391713295 -0.36097799874853315 0.7965706967891636
Ni 4.568472440104513 5.145137745516789 1.5101155693719437 0.40749105470840785 -0.5520929818229201 0.06622776077998271
Ni 7.333828973165774 0.3978548658125823 0.18456039269377097 -0.2699303507113932 1.051089340931177 -1.1414767296764987
Ni 0.9385654340420755 0.24024138102407838 12.31348764497766 -1.0033856070973108 1.0722842298412372 2.15353775306062
Ni 0.9655252590435103 8.75943351821084 1.1960437572522185 0.9473209028932589 -1.1921793982376887 -2.6066738593016527
Ni 3.8391824169736424 6.565990644471594 8.031127039688167 -0.9445371695005347 -0.2749224046093459 -1.3115696019732637
Ni 3.314443838155506 2.7427608412650555 1.595392392971622 0.6733320658417759 1.1281406746892246 -0.4471053266659203
Ni 7.922285742079705 6.31432870513582 9.61560817699699 -0.4041082542791041 0.6442875989803097 -1.8733106484089095
Ni 6.23993545770715 6.8046524491643074 2.2579213272094805 -0.1027363972289779 -0.6649662103755838 2.9796463114079006
P 2.757135724000249 7.674701914534017 3.3019087189744827 -0.6512030951532204 0.9192372572831653 0.9412199322018436
P 4.204828503492074 1.918760823733184 10.156278148638528 -0.26548877000027177 1.0288708958526087 0.18545881322987418
P 9.023763438288219 1.7270526636100454 0.7916722164230332 -0.11719833829057882 -0.191276962573548 0.8974790396704673
P 1.081290120197857 2.626451616772213 8.546085531407904 -1.2437356730484257 -0.6692311562995248 -0.476742689916379
P 6.2917883723231895 2.896723401086733 4.6475601293404125 0.2658456391190583 -0.053765880867546106 -1.2111374273974302
P 2.5541896902112153 5.094594993512047 0.9373456911039545 -0.41499147685051113 -1.9075541429728113 -0.6195666991948621
P 6.085493120027817 9.17169186890013 1.8382061214325245 -0.5173638058718509 -1.5212978292734638 0.675029765259173
P 8.898882797838384 0.8200639937996297 4.543472323121663 -0.7139367267370156 0.9018167478138727 4.640665342664808
