# total energy = -340888.32538682356 ev
CRYSTAL
PRIMVEC
9.10871661903086 0.00000000000000 0.00000000000000

0.00000000000000 9.10871661903086 0.00000000000000

0.00000000000000 0.00000000000000 13.33152749513764

PRIMCOORD
 96 1
Ni 6.493412855120563 1.9730300165032353 11.31877374641604 0.3220131874495616 1.342663752274907 1.1910928500417293
Ni 4.7550415983417915 0.8003355714400301 5.97765727617209 0.07605760238621095 -1.1373632217287575 0.2160053185581635
Ni 2.965916572089193 1.7264115117466228 4.616427880157684 1.0149329456152778 -1.4224497113552985 1.586196843939694
Ni 3.494814207497973 4.284139162186394 4.296524284288613 -0.4612993587781152 0.007624606424793321 0.9695457757297303
Ni 3.630943978636941 2.4213428352330952 2.4436427954674493 -0.07484918390040658 -0.07001525284687297 -0.28991579269438456
Ni 4.774033272669309 4.5252924369207 2.248522242339367 1.4639378032967563 0.499940468189081 0.6557886576413738
Ni 5.036664901391282 4.561845717053231 11.139851224202404 -0.04907438892914774 1.0000678555779874 0.4064708409740096
Ni 5.748465568213275 8.264739448933847 12.44315464721038 -0.2917908982299104 -1.1038131536874538 -0.4312254222108702
Ni 1.7536192485410087 6.616407856772586 0.3217380914132251 2.140381161074004 0.1224027653096537 0.22301877376151916
Ni 2.718150369027896 1.486333065583371 0.3360888745801334 0.3449823946512252 0.9130429555469952 -0.17201785723361987
Ni 8.115292733973856 -0.010799294524079036 6.96491009047672 -0.5846017530839028 0.40528144865159876 0.382335895599019
Ni 8.396360405304412 2.4442512577432667 1.3683478581184625 0.8891355528017784 1.019847866418392 -1.2371186819525404
Ni 7.049809706258251 0.6125639309486103 4.813414809338384 0.014603608845787751 0.10972259873882394 -0.5249986967092893
Ni 1.0713945848564006 7.431300979248702 2.4414157142333592 0.29834721129118946 0.1637021382790729 0.4906343602968067
Ni 7.9145730526879206 3.9099075364089084 3.7899001938357464 -0.1356236348753019 0.15551934535796444 -0.9585190856019234
Ni 7.98174983837878 4.3525000810487535 12.904798983707986 -0.6013704879018094 -0.60673792286131 -1.542024520297854
Ni 8.092739551415134 7.32166846500122 8.864652283252486 0.30616105090865336 0.5556313339934819 0.27931462013977054
Ni 6.956982774329363 0.7484586971966197 0.45006806843869096 0.2524352792504233 -0.046698946718435705 -0.11410735807008089
Ni 1.7717638122150687 6.804366225956435 8.967824895613601 1.1685568737227423 0.9941234650690943 0.35990636295090916
Ni 0.25742144276737317 4.849462555693852 1.3951839592713315 1.0194994819400378 -0.5711859938986292 0.8800384755965167
Ni 6.902986301708967 2.0558373600578936 7.049632086282526 -1.9714185457269406 0.5293495174788174 -0.30275845298500764
Ni 3.542616752759753 4.797169413097076 0.1888227863990435 0.15266362107672415 -0.5241350631574134 -0.8402861353992431
Ni 6.265430784740017 5.8965459756676895 4.497510850973971 0.5480725478096174 -1.2534230755395188 1.1339997045731631
Ni 5.55535166537505 3.031763485141291 9.089995558403928 0.4816524685131705 0.39672276044831034 0.3000883623520122
P 0.46669511990989027 5.8822635078760594 12.161192499899505 -0.30094556814598494 -0.8169952831921027 -0.7396559858799907
P 4.162838381841286 6.376548019810227 12.20081450668956 -0.04265742965921041 0.45523001265558377 0.7005705898427547
P 2.631508255740919 8.60656226067905 1.201396011397022 -0.8034008323371196 -0.42104513924375875 0.09022103837078656
P 6.674667208810381 7.723235349606944 5.814199533178245 -0.4573185197534963 0.005337353052513389 0.34160859308298586
P 5.0180649018820285 1.271148742171729 12.750872601873045 -1.390688616893618 -1.8073410263863197 -0.5448185596486939
P 3.9414783485044365 6.3450045338648104 8.144963467764962 1.4697639230602302 0.07787897186566588 0.15997198181267933
P 5.083292422198266 0.8013074715123303 3.706365063816451 -1.0842640279109326 0.24227967887366017 0.3869795650186174
P 0.3204574058446645 5.7279163033294 3.640133762919451 0.527441244712511 -0.5752632492917964 -2.561779312781807
Ni 0.8028759925287325 0.42910344607312056 4.710015389931343 -1.382998704448528 0.06738938518825169 -0.49288896065893817
Ni 2.1442921079689357 6.419286118584669 4.856888892422496 1.045467366758709 1.332628479526092 -0.9588227328852712
Ni 6.246120305327865 5.701464590021433 8.991768979213 -0.9862610316018822 -0.6822118848299089 0.7001679550876975
Ni 8.623531799898315 2.396248320714001 10.278394341936233 0.4066122516478804 1.5179199139401665 0.717046733120907
Ni 2.6212245145822775 5.189618472282252 7.0450458474221405 -1.510679173217353 -0.050649189615435346 -1.1634545194991706
Ni 0.4614084207349784 0.34828180275990084 9.447640211063712 -0.014308189092556003 -0.885659678438036 -1.247552732801671
Ni 1.5411948662906314 1.3889426665858569 11.47129920762193 -0.28655227553879037 -0.7139395549504931 -0.5144402044671527
Ni 4.341897534805478 7.022793252514647 1.472813908251524 -0.6287046569403882 -1.247253199283381 0.038314065088850144
Ni 5.600412486908973 7.839781379832646 8.094584066547664 0.7691156859020044 0.799164682768585 -0.6511313613750205
Ni 5.232547854107476 2.8066233343723455 4.869233936171218 0.9808655716179235 0.6201413407514094 -0.5396308448001674
Ni 0.7318571501321912 7.707386182542254 6.727155277944619 0.5325317718615409 -0.10879648738012876 -0.29870408040997587
Ni 5.029086449093682 5.088047172317673 6.422756539648835 0.21618555288976965 -0.1311152054819871 0.5955811349135421
Ni 1.2283650998137672 7.943165314421291 11.802800932470007 -1.2052673417698985 -0.5879246468095487 -1.6810366120294145
Ni 4.784945515280515 0.601612520855577 10.404203937049745 -0.5446645505693329 -0.5170485886242773 -0.12604678982014422
Ni 8.511357953690458 7.403738002502865 4.504029959518913 -0.6961644903552591 0.5804239675571293 0.6417828302805849
Ni 7.600276782821737 5.849080452923951 6.803918077094605 -1.638291507752404 0.3866880019201276 -0.6150212459160247
Ni 2.5847076693165616 5.4697206196422 2.303834924523468 -1.1082377651177107 -0.20761375206035854 1.077340818428538
Ni 2.4837557620878434 5.485041481138068 10.914801249728828 0.5156421951950539 -0.11647225875783165 1.4937227478686728
Ni 1.4344680326716759 2.8966538902731527 3.618097044597838 -2.238223977656107 2.789661842393531 -0.48130562669671295
Ni 1.2635247462906103 0.9641212282352138 2.490036222255145 1.2552655280648963 -0.6953751616847443 -1.4383656112546066
Ni 1.15399242792687 3.3208012835877114 7.858495238300697 1.2449885716189204 2.160451192351002 1.231355039995886
Ni 3.8921364301197063 2.971035670876754 6.939619738548494 -0.4672308937712018 -0.40982510215822326 0.1261707169925182
Ni 4.194709781588041 7.540286774610212 5.850034135562844 1.2357781087642459 -1.3069873819192201 -0.6820069679079546
Ni 0.5106720041560555 0.303074330887046 0.20897035687627902 0.17349804132357216 -0.7394137879621976 0.7485286057792722
P 0.3694213124861851 5.922988580258952 7.704302881938002 0.15039899341226357 -2.6225411653512127 1.1748216236855313
P 8.72367303134039 1.9412132690567037 8.139577483577979 -0.5697423194735671 -1.698492859832649 -0.3018400549357963
P 2.059435303155912 3.261904321380647 10.340292626297213 -0.8813487097675079 0.6383370378238297 -0.6555127782721678
P 4.270029760012138 6.301000323468534 3.775662358755966 -1.0016760806053715 -0.11262383154601893 -0.41826063452008616
P 7.018439285930207 4.172238577479654 10.5849527569625 1.2038216104623074 -0.5478514329377467 -1.1739394781908945
P 6.4897784771557285 7.995248956533879 10.329227357245381 -0.36158426487396433 0.06637431366017602 -1.3353733892610808
P 2.343864090950187 8.636730330402186 5.725011533572544 1.5934774367615074 0.0539114053064749 -0.03517731923208135
P 6.831728810934787 4.0904878450626425 1.4213806285115906 1.319831841982056 1.0158726838207277 1.6665566732456847
Ni 5.373250201031774 3.068863288276053 0.3704351126553231 -1.08219146165262 0.12039653351290233 -0.6906348187862815
Ni 1.4862510871330366 1.2501258240192539 6.9922927146318195 0.2660263876712967 -1.3189370980819286 -0.6486649021123989
Ni 6.782997176569213 0.9588654986970951 9.198500413523472 1.217403205801484 -1.5750292573586488 -0.6354334910237894
Ni 2.870912656868086 1.5757077938815016 9.079756449957134 -0.4855538604501057 0.5493778968846023 0.4072077191400342
Ni 6.248160657869526 2.1310389251648405 2.602460558172356 0.4666169143362867 0.7322170131034422 -0.4121696911309998
Ni 4.211752190540936 7.285980512955553 10.239960111804358 0.2902176402055195 -0.4673244819262726 -0.7120665062974962
Ni 8.53841084230088 7.033404907474626 0.4322058749824502 -0.5160738834158337 0.7165124578839919 -0.8766194226126386
Ni 8.067535732295594 4.058051704880249 8.449908729062978 -1.3727705989626164 0.1126433719300447 -0.4310968670528059
Ni 3.3122573073195043 8.745880082664366 12.139969189979546 0.9209758372408268 -0.15180332995895793 0.8123701257152655
Ni 0.325857053106704 5.193781155815909 10.018136444787283 -0.4424223193679542 -1.0198164989598244 0.09202029636305442
Ni 8.791897319452191 2.539883674416939 5.640263122488296 0.6614263155431254 -0.3910683903760104 -0.26018638395075183
Ni 3.778742015873536 2.683491701969764 11.534410773047863 -0.06329696028643293 -0.31967348357279135 0.3130462080642609
Ni 1.1907369911101822 3.603016653222951 12.39789434478064 0.07012812427565342 0.5483491985097718 0.2325251705900576
Ni 3.2503453598834677 8.571621223403099 7.834152192909669 -0.24331557633734224 0.2371971221444302 0.40938030131132075
Ni 5.950624426738418 7.8332139950891735 3.3170439379473753 -0.21848926132228175 1.0801309795791656 -0.2871012060637249
Ni 3.2587162705343014 8.659638752912358 3.4627579008021296 -0.003373801568239351 -0.6941605725513529 0.14784923040721634
Ni 3.6083634699281086 4.206414482552482 9.056493698367184 -0.7120500512372641 0.9386138620375643 0.19042387054463333
Ni 7.529192357664928 6.210796701950353 11.292843962575203 -0.4380995236228842 0.658520197639924 0.2639988157183066
Ni 8.348302815974924 8.873301920634457 2.4390693088104487 -1.7134037155062103 -0.7161370768224441 -0.27551735788086745
Ni 4.799920245541636 0.12479579494437386 1.4480436640470868 0.08995055831821928 1.8454810277911506 0.018997624148425346
Ni 5.97045410300269 5.7600245297104555 0.10700920383677506 0.2603766455846871 0.045626282479547225 -0.24726376235181285
Ni 8.155061391102844 8.983854415269029 11.336957477571927 -0.3828999956326051 -0.3977877113777149 0.28588301738590766
Ni 0.4636573628891578 5.012399280092238 5.546354985886662 -0.5761399954697948 -1.3113819114424896 1.8091014607208522
Ni 7.545496960564811 6.037157235424949 2.3654125820564738 -0.783539060416186 -0.10212190357343058 0.5068724194222238
P 8.32797216029194 1.694540111999868 3.3034327825768193 1.0186186219969813 0.1192469932894914 2.1888407992372882
P 2.016214442396166 3.515272385214809 1.1330788143748411 0.31790379326687834 -0.41648117402216017 1.1574198832693163
P 4.797706827382602 1.2167332685829568 8.093624007807078 0.7853097791633635 -0.2484685812931914 0.34261055198493895
P 8.467590569928483 1.713440699160347 12.462925116816074 0.7807427286179716 1.3629014194780205 -0.09710053909943923
P 6.599365447819691 7.6804334898155755 1.1514583829398601 -0.40844416265029654 0.6851542552876845 0.4101094661678615
P 1.934527470996081 3.3312034380635023 5.820478171602206 0.5977778854545447 -0.3975627398511024 -0.6167012047216089
P 6.942509023486954 3.82513271004622 5.834649513050048 -0.15029974883023794 1.6789751015146954 -0.283982200818769
P 2.3927778996498366 8.679076754358364 9.988953938211502 0.4860102312612339 0.80934008063969 0.990441645342133
