# total energy = -381169.42471156927 ev
CRYSTAL
PRIMVEC
9.28076161243213 0.00000000000000 0.00000000000000
0.00000000000000 9.28076161243213 0.00000000000000
0.00000000000000 0.00000000000000 13.58333273355427
PRIMCOORD
 96 1
Ni 1.789674251554336 6.628793353178778 8.709796284192148 0.17086857412052509 2.3587439241207506 -1.9286302469168204
Ni 4.43630619984619 4.693717407452152 12.72178327308121 1.2921086650351747 -0.23247169164430287 -0.7462076709555795
Ni 0.49097735407470333 2.0823430730085484 9.490851271043404 0.500108618335829 0.4584703739697523 0.33248194819136934
Ni 3.2746610952018447 2.4484227198219757 13.512115309367239 -0.8398971274909407 -0.6217220549749679 -0.5667917214856755
Ni 3.6472651175181197 5.447008995559782 8.910911319162654 1.9995145326322081 -0.7511305621784935 0.22468947659572272
Ni 7.8176960550519485 7.881009411638619 5.695437353878111 0.6414555288481534 2.678447746710845 -1.9186271129575214
Ni 6.451670015380977 5.784698792212167 0.22279953477478037 0.5157211280621053 -0.4256031909280864 1.4152179694935496
Ni 9.073652260492796 5.191175517449528 12.308401439834046 -1.3279058772394419 -0.27205613880514434 -0.2602426911099841
Ni 8.774366255918341 6.458584182876883 9.410886371743775 -0.5729903940972197 -2.1381062489968987 1.0005954459466833
Ni 0.7646772266096115 3.225148231321768 0.28185580595155507 0.4432944375602623 0.3752877305029859 -0.5701809496728825
Ni 6.672654233159517 8.549279941450955 9.624729043363791 -0.11952698642375546 -0.7836686440155148 0.15015499572225752
Ni 0.9621365695309407 3.2642387997684192 6.678286727459203 -0.026497017849264042 -0.6346757869221585 2.0441581394835113
Ni 3.996286724254399 0.479531390621414 6.703714158473004 -0.45288079569711676 -0.9370007519141734 0.2181673592064888
Ni 2.148644834875328 5.186303117536306 -0.2419912219758321 -0.2493432705886609 -0.029101545351646656 0.14009375483151357
Ni 0.30194494281281364 9.056195147660851 1.3210264102247995 -1.3932450647668844 -1.2389742471040404 -0.9993181218961563
Ni 0.47330585564657696 4.749439100935935 3.207718032698868 1.0787251003705742 0.408444933981245 -1.9978057774712175
Ni 5.82815131867637 1.5137943280868262 -0.07466372819404281 0.2647266950232667 0.7991934791239913 1.5670452107119075
Ni 6.959494736241342 5.879288315860854 5.31858088653281 -1.2706206703647278 -1.7140578041504417 -0.21129531467700383
Ni 2.8654259062998784 7.483440140243168 6.436802235074345 0.6318956530738601 0.08878507725520839 0.41162204615764597
Ni 5.072335363375605 4.447888590497049 7.362614831233171 0.352156029581529 0.6364894430921296 -1.2425136277158666
Ni 2.146203994537847 3.6688892923710865 2.0255875026669887 0.22538778821432795 -0.5089210744211364 -0.3884337809666407
Ni 9.009150966403475 6.886288087640396 4.025312306594594 0.585073807624315 -0.36373319289616707 -0.37722968472070517
Ni 6.73818569180192 4.571285598585054 11.414115591304203 -0.15885946547479093 0.22497923992199964 -0.3720689664553721
Ni 1.678286549157207 5.875613134212023 5.036170091029234 0.9067316686169867 0.2577880589219044 -0.3376236402933088
P 4.674441265319271 8.244091372410196 2.528931471759537 -0.17930462070302022 -0.006673812475749797 -1.4478524676991196
Ni 1.8218784947903 8.792473022072048 11.42898894006788 -0.28001884529564675 0.39543206666134484 -1.1104183177087974
P 2.547411324535171 -0.0735871598322642 8.806930592709797 1.908522677533668 0.09819788592867604 0.0409774708536262
Ni 8.729029734821026 5.226080462351678 1.0191547854297276 0.04300118615187433 -0.6193676958101785 0.5799495990238721
P 8.01447604621395 7.255532474206983 0.5656735649348343 -0.011396928983031986 0.5828680582222479 0.9118923868823199
P 7.656173677738199 1.9850992515023733 7.772559998408207 -0.11879499335373733 1.2093008884093237 -2.119417157227827
P 3.377046458711687 4.02047238934746 11.111465310599192 -0.5118166508013766 -1.514789595841301 -1.9742359605710773
Ni 2.841630033199875 8.440964171189592 0.6872905229212078 -0.447854546127119 0.9580945964699952 0.2081853082931124
Ni 4.9499963621258996 2.263150873216919 5.366625533905702 -0.07013223804071148 -0.9089492450935959 1.3560908243140903
Ni 7.173639032617892 0.8748278034668688 5.428905013634595 1.1177207649074814 1.1060024480292887 -0.6746209598565285
Ni 1.9422499745512363 8.49570210392899 2.9547690153372423 0.09671770183872376 -0.3900147523005154 0.987158603715487
Ni 8.94679352827597 2.5783348226510876 3.8540943174916182 -0.37908139321746326 -1.276333661589105 -0.4842389982934241
Ni 3.9360731420887123 3.0233473480587145 3.642886454129437 -0.21152105753456477 1.1938128200760538 -3.6946292200212434
Ni 8.99888644391962 4.41824583750118 5.195081790065672 -1.1187510059442087 0.9692452137701759 0.5573879116732724
Ni 4.731174561832657 0.9906749118798136 9.47504056534404 0.16089835028169064 -2.148343096233558 -0.6823036732127669
Ni 3.1366376066124344 0.9463221515268825 4.1798629756896535 -0.8452432222942023 -0.9128493514789504 1.2439796707384319
Ni 0.6204411961117996 7.780415235144495 7.0571803220063165 -0.6803735460695896 1.6771205648044598 -0.8106174046902168
Ni 6.438732633516156 -0.11826845915077255 7.293964108570131 -0.5846611455669286 -0.3028157885855043 1.0728131057615136
Ni 2.178204061015543 5.884272084914949 10.687922899399656 -0.15842752014369488 -0.2396098453509809 3.443126994108051
Ni 0.5000827094172983 7.322799435294668 12.873889389534092 0.8333999498023712 0.8321622207405281 0.2742824570325018
Ni 1.556485832088392 4.359285158170322 9.01774402369805 -1.171373517235931 -1.6059719696840924 -0.6753519244852821
Ni 0.37770380089211397 0.9755101471975182 5.9792476882519985 -0.20176166415495572 0.19965927309997225 -0.2781450253117016
Ni 5.7426940645793225 8.39082949627297 0.38644813460304345 -0.8502836129315872 -0.967999771398849 -0.32658023799495367
Ni 5.137653364498 3.463895827069655 9.42691424726784 -0.585365884943437 0.8187899131986801 1.8748628233873774
Ni 8.762356950227467 9.558256515481006 8.228715006360241 -0.31121224017931565 -1.0531865897798378 0.21435595588019857
Ni 2.913398163731203 2.1373965516470896 8.506684029295307 -0.5093833587695357 0.18891848964370045 0.2386276839433697
Ni 8.720649206970284 -0.0008658950702926283 3.6335147409249196 0.16209339903105632 0.5518482128019657 0.22714025212906042
Ni 4.254106285376898 6.525981074628921 0.6299966683987587 -1.2625592335128322 -0.12521889460221017 0.6697276363199692
Ni 5.958713074827245 5.949181732520809 9.490036420162678 0.4008321546309936 0.425708349047383 -0.040282501669130624
Ni 7.402233475022798 1.990296478076477 9.845294698787882 -0.21164961269262908 0.8827736151394925 0.16245438191490086
Ni 7.631885924266004 6.912747539359628 7.574161442398843 -1.6767336137786866 -0.749713884336625 1.3245737275424156
Ni 0.4082876231283662 5.54717625701389 7.022080481107637 -1.1263159627756603 -0.294271498559919 1.0922475603370416
P 5.588243627711049 7.394678934966869 6.228705283047234 -0.5894282279382688 0.3087403816000554 -0.04374757739959563
Ni 7.767264395759665 7.109518249759888 11.559728886844153 -0.5866120986457122 0.09880749448821693 -0.05120146257447956
P 2.8711150132461745 2.3204038923877146 6.402436502429259 0.3956866058743121 -0.6314619079705512 -1.7671315440469695
Ni 5.446814099563253 -0.2909351751612794 4.410440716878284 0.12761464852789633 0.17659313530912815 0.41184470369141335
P 1.1456172291202789 8.50256058685446 5.011502754401895 0.31528435336616023 -0.8217502813785849 -0.2885878179115804
P 5.810814855747037 3.960695002983528 4.121210417648546 0.7213947256769576 0.9931014515624833 -0.4762217844159024
P 6.496291917824353 3.6943742641076733 13.370671860076834 0.17717986105053357 -1.569379258161723 0.7212885391163965
Ni 2.881778608484826 5.640160208881648 2.947881762050381 -0.30670586766852986 -0.8940301618899185 -0.7194584278861933
Ni 1.9583984999779158 3.267032309052 4.570777940917904 -0.8882906883029799 -0.0996436172362671 -0.34663484265298367
Ni 8.526356459954462 0.24304366035708808 11.04716169673492 1.4881233994040242 -0.15046532787382474 -1.8996001782330574
Ni 7.007439151387448 7.536776677959907 2.810119990942024 0.3715498607271085 -0.5486510460209068 -0.2738176015809413
Ni 7.910021072836205 -0.10286517889177281 13.113960421906029 -0.5421710947235179 0.47038332335725436 1.3423847875819075
Ni 3.666986736214495 7.313722850313464 4.217284863175548 0.5478879426026371 0.39447330229250127 0.6037305034935537
Ni 1.4871678226562843 1.3672603809823214 2.224610653941419 0.6787498944232374 1.937505180808947 0.4075327065796207
Ni 3.966244898503732 7.498753397113294 10.525548548158222 -0.6910958175831001 0.8112640371352803 -0.04318193470411273
Ni 8.181344142289635 2.517991309821049 12.34688319031059 -0.5645224658355245 0.5485230050834746 -0.2881993242239101
Ni 4.396398924366466 3.908611368101618 1.2294772641219636 1.2531309982203966 0.4211778081668811 1.8512212727090376
Ni 5.471333872078935 2.1024173606510237 7.640122600309785 1.0432022248736161 0.21233661145732463 -0.5625967095677213
Ni 8.185158535364558 2.481555039231886 1.4015555798381878 -0.6788113437887923 -0.12286427832710453 0.04054269730905276
Ni 3.9826254429738976 0.1784625517168064 12.426603077500296 1.1109320241204221 -0.670280937720278 0.20104509770390538
Ni 6.868227725295386 0.3346336418115778 1.8603184818390142 1.0700550834004023 0.9345744018608678 0.6651960669982029
Ni 1.1722437345508208 3.752471832596761 11.336730743768147 1.0678483055570704 -2.133652584100919 0.4322245528993459
Ni 7.429119841782045 4.880112226227685 3.060039767671886 0.18443294306852107 -0.05654807159837358 -0.09189276964625463
Ni 4.553902731847025 7.820081210818993 8.347433582455379 0.014859433610335697 0.13383414707504693 -1.1686926279696583
Ni 7.097972982155986 3.176804743420864 5.685141276804341 0.6291875101140777 0.3863563296123217 0.9476199221909165
Ni 5.265709314979218 5.902397412592136 2.8055696334611615 -0.30846681622369454 -0.38891534858874954 0.014880773766574375
Ni 7.592934567245445 4.360825764619074 7.955907943104671 0.3386860201195522 -0.45388635414349576 0.5809847251566058
Ni 6.491781467618971 2.0722734465212227 3.2815567011742712 0.24248125336150494 0.439006865928502 0.7375106574022138
Ni 1.2202995188378007 6.694269127250745 1.6733176293218945 -0.08669785570887649 -0.38222328128055466 -0.22457660516694228
Ni 4.127340360777467 4.834116771046867 5.044265699494575 -0.9329126978877289 1.6530103020198177 1.1810454931080563
Ni 4.390997521034094 1.3030282289834436 2.225778173768244 0.10893584117147045 -1.4612489436106835 -1.7123814448892833
Ni 5.6305174974343375 1.954147911101238 11.297679154520804 -1.1771309885449985 2.961653731485222 0.768065133150303
P 8.56921501766734 4.200444920999279 10.29302834353752 0.3865735878294504 -0.6918136695857312 -0.9376484128005014
Ni 0.7993956282007979 1.1768469923735982 12.859436459277216 0.6238401297592353 -0.7261083291025431 0.11398060268422952
P 0.6034147106245664 8.200397546140769 9.563848174429037 -0.4706453187693894 1.7528300398226329 1.1554370485113328
Ni 3.1241457013111065 1.7053399696277645 10.982178731111318 -1.5170218276059293 1.7301472535131361 -0.17286246462210228
P 2.76279924298481 7.123457953892573 12.476549352953604 1.0728609282803137 0.18978983650506023 0.5429149148680779
P 6.219465356659417 9.358070484760619 11.555150687078072 0.5436083413906767 -2.327353068514295 0.8963896632610304
P 2.559448472511265 5.128929448462898 6.939942027408625 0.6922695261762272 0.26618990983235447 0.34928513579163717
Ni 5.459677235334159 6.77467764696152 12.024007345546746 -0.2810339168237225 0.70074491063709 -0.6450887547253665
