# total energy = -340889.09096904047 ev
CRYSTAL
PRIMVEC
9.09114811132607 0.00000000000000 0.00000000000000
0.00000000000000 9.09114811132607 0.00000000000000
0.00000000000000 0.00000000000000 13.30581420826339
PRIMCOORD
 96 1
Ni 6.544744733422171 2.384244479863674 11.185479426476247 0.7966352314785119 -0.14601731940480014 0.1588342686638103
Ni 4.519109678376244 0.7302673743893591 6.137838584745369 0.9568707513652231 -0.10024139872126607 -0.20599832794412262
Ni 2.950032076921234 1.8053110827684302 4.660534304327984 -1.2312110582188536 0.8014197973513488 0.40569899580499164
Ni 3.4163897880782796 4.811390087236219 4.606432882457822 0.7968370630766729 -1.9352287260699446 -0.03957544829977701
Ni 4.031833235623964 2.7044165308506294 2.3959775154989678 0.08907792590527885 -0.4837134648072573 0.5718272270270539
Ni 4.983485519264815 4.807826357212172 2.653139728670445 0.00545202425350674 -0.13037369933027224 -1.1220119360836676
Ni 5.693404177039826 3.1379551976535685 0.37734991734726403 -0.30467855282585593 -0.06624318739895044 -0.48299484147367777
Ni 5.858044867691588 8.095112752250934 12.243969972539542 1.221108165456897 -0.8026775810178498 -0.9102203984965356
Ni 2.0467083361575105 7.050330748287794 0.4356559951769204 -1.3982702858956175 -0.45870794390185515 -1.855614516680727
Ni 0.7710120815877615 0.3827627868786864 0.37690081463505 0.10648326586591984 -0.4925452041662743 -0.6012223923597195
Ni 8.228170794679382 0.2697234523914412 6.516894910576085 0.19583912802293368 -0.9290347029895613 1.346528891657268
Ni 8.729974891968466 2.455755450193147 1.2438990552531501 0.021254538503402108 0.19762835871287251 0.09782636152187023
Ni 7.209307653722768 0.9282607597840323 4.6169177034698965 -1.3910758250297075 0.05221961942634878 -0.9706359234701153
Ni 0.9344972873261144 7.832933134486928 2.342980668113299 0.4509239290810621 -0.6261294400140441 1.0290508730738985
Ni 8.012483307892355 4.292603725444789 3.807591887664422 -1.5020832040182261 -0.44959055498161926 -0.5512743425763668
Ni 7.901934947962735 4.085952839790167 12.676449520598089 0.4484497565089567 -0.3190034540889603 -0.3388148323879326
Ni 8.318654990927698 7.636637066427687 8.534003377893558 0.2708610900557787 -0.9207336393230335 0.15683780705907185
Ni 6.922700121227602 0.8994727304622283 0.1371054215271869 0.8659758268558634 0.7325067764297191 -0.07282726837437135
Ni 2.1401380643644767 6.692084969390868 8.732433138393217 0.2643538850648802 0.23273780082149598 -0.027274776555553028
Ni 0.1680889630959484 4.873800818397145 1.3989204021843915 -0.19548457289699236 0.43121128114348317 0.009759907600241256
Ni 6.557363246874663 2.039380870852965 6.865241338393459 -0.281832758575934 -0.045146514629651274 0.5518366428377399
Ni 3.7315435253579037 4.6224305756295445 0.45096094286947924 -0.6843042485825633 -0.3054054036895514 -0.126970072965362
Ni 5.859872188443714 5.798397845528904 4.532904586382593 1.070380327950305 -0.467415241867866 1.5221933445045397
Ni 5.671349051942026 3.292495622854524 8.877226943801364 0.2406981933191532 -0.3390212919717839 0.6026755798664781
P 0.42380659284696415 5.825716745330591 12.577839656249026 0.37235718711975224 -1.0823742670873877 0.1221597960609122
P 4.22701109247668 6.262864597897679 12.413978986097426 1.069902616982938 -0.1649583792836772 0.5306947186528022
P 2.7513359457845743 8.971126684360991 1.460379290147567 -1.0744020475151883 -0.2765064612670141 -2.2893521637904897
P 6.498843527066525 7.953654489051519 5.855330250892659 0.7667078477914602 0.3982749354267786 -1.5261520720419717
P 5.013695404137029 1.2873156508547858 12.462372076125497 0.4150084461313756 -0.9642382474738878 -0.26453051985206055
P 4.270657694123234 6.642629124159196 7.926539230965492 0.12016513422838662 -2.214692984413702 0.4035660086223889
P 4.803880798971264 1.047336616556908 3.7973325271232565 1.6439538482445042 1.0400816769667638 -0.44041428779898995
P 0.31043997703098 5.968429586956839 3.4209644537622097 0.222956553065016 0.31422711574623946 0.3274400148920876
Ni 0.7342520245667565 0.3222311960136048 4.480373205775576 0.4168203025291338 0.02452549594519002 0.5142082909620047
Ni 2.0163439017689466 6.661856902222612 4.811595547181484 -0.18610184613051176 1.2314799956095244 -1.2759665080576736
Ni 6.338375673356185 5.653539492969811 8.864812072064531 0.056885400333134294 1.0745092625170138 0.622907847752953
Ni 0.3400798469223074 2.3159972316735704 10.030121789139425 -0.1548493158741333 0.044131957322207864 1.447081908081682
Ni 2.683534163847477 5.1720268380625445 6.772299804835194 -0.350412564527861 1.7574240869512183 1.0696604190651449
Ni 1.0803374838714246 8.952489830918909 8.945219639846894 0.08463608808384133 1.0272508437506824 0.16543660447167638
Ni 2.080845596974593 0.7706557085853567 11.633086644840953 -1.3973223201600515 2.066598984985531 -0.9044976370801455
Ni 4.109626189235622 7.007184159782368 1.2968113549622273 2.246373089125802 0.871821229893047 0.5613067871117042
Ni 6.037222304028175 8.009319588381212 7.880860757736349 -1.011212816451213 0.3416170777234181 0.7613974913221403
Ni 5.160926546329481 2.9527230567353104 4.911375442280789 0.7010644987600378 0.7073678152702462 -0.01335893780540925
Ni 0.8999800165217738 7.764476789892352 6.584887606621614 -0.25791609985933645 -0.5815285134752178 0.9204878418608147
Ni 4.9890493018533775 4.805744484315472 6.958328330320051 1.5078828414191385 -0.03044803207721208 -0.948189164430825
Ni 0.9142331183883575 7.676283562945209 11.59934303073316 -0.25803231372222657 0.5293631443255723 -0.7209933764734808
Ni 4.967094179383803 0.3363470215450786 10.398826024719167 -0.07946097164080508 0.1337115054542536 -0.35203338796073563
Ni 8.353946827543387 7.634127909574021 4.495768155833539 -0.650418394468396 -0.8309450605039753 0.18080691628015957
Ni 7.459277859695206 6.189035384822972 6.596037899668793 0.34774658765992367 -1.2746588449898435 0.41334314261381067
Ni 2.3207246286442453 5.739987219497012 2.4086714854800304 -0.47038332335725436 -1.3154653374832441 -0.05537436300524657
Ni 2.5537489347064186 5.8344078828382155 11.149353931587076 -1.1177529036969975 -0.9197301377591838 0.8857062154052552
Ni 1.2817882328583048 3.8001362371727874 3.790095064184114 0.30897075244330663 -0.8566959442158343 -0.07154325945562519
Ni 1.6049603626920341 1.5016394654387333 2.463771115402847 0.12044332759043774 -0.48815144597395294 0.3559671757975031
Ni 1.4510926824445978 3.605376573129016 8.227996244637387 -0.26360080894893956 -0.16087778145640036 0.4512129210763907
Ni 3.6049129245799687 2.8963306655639753 7.466051674085302 0.8101831453662757 -0.4804774743684628 -1.1050701660230067
Ni 4.220783656082618 7.224789878801727 5.816836511944139 0.4673982725870015 0.20922866195596224 -0.1192649910116204
Ni 8.09694007300306 7.4550413847176396 13.114822859918345 1.167160764706164 0.5736393405351282 0.2869140297535833
P 0.4250011696968616 5.758569526050971 7.712089958538861 -0.4838643885628247 0.701473047052366 0.5324021882622122
P 8.81079519787096 1.6370430240564775 8.097027348024058 0.9668278625779348 -0.043770717328047194 -0.970935199878089
P 2.2735052058256224 3.527219973596537 10.322237648220229 -0.6253074583333811 0.22819800396961343 0.34446328892296163
P 3.9654678550741096 6.547353892904062 3.496794628516236 1.021077625060435 0.602655268151504 0.9102833905239872
P 7.381721275932081 4.2319384947038055 10.203723624395021 -0.3845511580827829 -1.209903554990329 -0.3860981908549286
P 6.823206597290944 7.878179778185095 10.120415071279309 -0.6344433591963783 -0.1962978128269071 0.17001676764319107
P 2.5951863873839853 8.77736704659948 5.696551532484532 -0.4570750362841225 -0.161041046507142 0.5996594187479737
P 6.878480777255754 4.302122157422282 1.7790540290555412 1.2798136497179056 0.05304288665859252 -0.4541473211143662
Ni 3.2907592135826036 2.1045825844561916 0.12772699322921025 -1.3859217916325937 -1.445886088001368 2.6476086498428018
Ni 1.668889315572387 1.2447508958226738 6.857191126821282 -0.2117825387260675 0.5652022655113687 0.6007063719552493
Ni 7.133132924458764 0.8197160888781361 9.078530416190311 -0.6411449395862701 0.3235548209050686 0.34496465403941234
Ni 3.0515892914585527 1.6241063204232662 9.415832917392349 -0.6340556368396564 -0.12162063572799055 0.24624791949278885
Ni 6.630692446808243 2.043762804198859 2.419116305440815 -0.34572107258946266 0.4275911678923926 0.9157012191054488
Ni 4.430925542577123 6.924636535755974 10.165761717605703 1.0925962019257118 0.7902491254465099 -0.016728625608590543
Ni 7.91218067178187 6.112687923746578 10.979133094280312 -1.5771056802717034 1.6413832593038507 1.4406778043275512
Ni 8.158550783138178 3.741452876700279 8.029101017359078 -1.1841213038199025 0.9471064728896076 0.22430535378342661
Ni 3.6299954019686056 8.380465706319267 12.292483065721486 -0.7040819454301229 -0.17967151712413573 1.0012855300351724
Ni 0.5502090058095835 5.26750207457413 9.88007239106061 0.42623079720975626 -1.4398807623475525 -0.45952864003093763
Ni 8.769039555012675 2.6426785446432235 5.827427699388054 0.5854458462517531 -0.1876707332795284 -0.5728507831955618
Ni 3.9849229118380394 2.947259276774973 11.530618497271979 0.02499420805149244 0.9829509933920426 -2.0811280318396417
Ni 1.5004848896401264 3.6349591687878138 12.468732243280659 -0.4904366424637038 0.2603812735703773 -0.06047286057407649
Ni 3.596030872963913 8.647681820086646 8.016114312411755 -1.0942669047599154 0.34573701342906266 0.5577540367634395
Ni 5.8233894114373355 8.072566705160025 3.8351880674807353 -1.0556365939822272 0.9871969131525903 -1.044602961875885
Ni 3.0372980067702824 8.664691358033055 3.558200787820892 1.1385410440869423 -0.6148986042952314 0.07226136856857232
Ni 3.6915424740675804 4.747588410428155 9.206705603016934 0.5788892760801579 -0.3548184069050405 -0.19621013820910727
Ni 5.574210135342684 4.699105318034679 11.553052723242235 0.1429883027704892 0.3332023712971616 -0.822702617989525
Ni 8.241880245894338 0.0026164324003079592 2.156779410816053 -1.5478776366445213 1.2859912392835273 0.4648068577107415
Ni 4.867909754479843 0.40403516413191987 1.534812155450838 -0.3318479141517962 0.23501219867796944 0.0040733987384252435
Ni 6.28283785009878 5.880345453785943 0.209336410779886 -0.5002613418636094 -0.21888546831943592 0.7194941662201351
Ni 8.116376947470949 0.22912693090577343 11.250903873205978 0.6215425919743102 -0.06600793145969278 0.35168706036491043
Ni 0.4689223240136364 5.078497107227353 5.660971506476593 -1.2540038877436532 0.3012921528521263 0.1139147824433006
Ni 7.361566200770571 6.723649435318141 2.3598529297245974 0.5504737010519423 -1.5012149424806596 0.40322559456383456
P 8.769966852110768 1.9904432210584626 3.5400648566347406 -0.5680291934372024 0.1945669461787294 -0.4369651529081249
P 2.039262685928698 3.415844319197048 1.7615435688532024 0.4841196991067404 1.912432039890403 -1.9895085704594315
P 5.011068062359096 1.236305219311603 8.340323742234625 0.11953392840229089 0.5188018238699581 -0.42571117726086044
P 8.880833402221109 1.9766428583633011 12.3892565181704 -0.006231068511376366 -0.13621858814682347 -0.538428339851634
P 6.420468739981553 8.046129646716329 1.0124502451429338 0.04821126959790407 -0.23518909057546591 1.4705481095244222
P 1.8113112404619787 3.3957437909236607 6.092252841226035 1.185917476488377 -1.9892617445559482 -1.8554605076013657
P 7.021448171026577 3.946040071754241 5.934778702558855 -0.9900739775900691 1.6607099846569204 -0.571259527449042
P 2.5888589483616977 8.20263375988972 10.308546379301314 0.4536266727242058 0.6695067785584147 -0.33454088760292705
