# total energy = -340889.6165361031 ev
CRYSTAL
PRIMVEC
9.04653451633564 0.00000000000000 0.00000000000000

0.00000000000000 9.04653451633564 0.00000000000000

0.00000000000000 0.00000000000000 13.24051770237826

PRIMCOORD
 96 1
Ni 6.602016263174671 1.9169245120496752 11.354207971310537 0.07890509913733508 0.6726072718606094 1.2985526208883056
Ni 4.311976474881099 0.10079196611074044 6.058079795880552 0.5875878322954203 0.8626287647605014 -0.21437369649201143
Ni 2.8380426729252837 1.7346458848302426 4.621086613627344 -0.07756658283156964 -0.45375882742669593 1.1266880014030984
Ni 3.909396635192183 4.015675324584902 5.021095428160879 -1.5439407634839604 2.163322600361526 -0.5722203487004146
Ni 5.312007557749617 4.438745565318635 2.711909553875585 -0.2864363187862164 0.18653713389571747 -1.0198684352436824
Ni 7.466855931820785 6.306999720802697 2.9491133117367396 -0.26185502990242643 -0.40082032755645164 -1.734168715967704
Ni 4.992502046005315 4.657536006496956 11.478205203522847 0.14891829510167903 0.43068291944383885 0.06051065579054741
Ni 5.6478239715176715 7.886063302247173 12.195165693061192 0.8695031232828315 -0.5473989187813605 1.2391696509442982
Ni 1.9845473587649098 6.37413405464534 0.4082303052485598 0.13825541607119415 1.4734403434705527 -0.37989309048548126
Ni 2.9340173593201895 1.7485232690257169 0.4359760271048306 0.08630859069025781 -0.9324645546067166 -0.14857839526375702
Ni 0.5703134484536662 0.2199447790031852 4.661139241259053 0.12088967109923697 0.3394619790536283 -0.23265835373381222
Ni 8.672849469694754 2.2251580415856576 1.5161847375141877 0.31773435756854956 1.0868027351723863 -0.69001595425536
Ni 7.054469648541325 0.5559131745538253 4.923645251960052 -0.6229384438805723 -0.18309545520402015 -0.33466070101024303
Ni 0.9319378163500459 7.365317626599141 2.6333268303984094 -0.7734767910841776 0.7070217447847371 -0.31770376144093027
Ni 7.427973925776359 3.846550358786734 3.6271203276067054 1.8189205036938028 -0.17066365719857063 0.4993866525681399
Ni 7.731240907774327 4.053082745476875 12.727315430323836 0.46152201631188255 -0.8165335130643356 -2.150862520221302
Ni 7.8006549683557305 -0.32249629610872343 7.057818675678981 0.3148650064405545 0.18065907784838564 0.11506457977702762
Ni 6.892699515436065 0.40032996651459135 0.36261044017624083 0.41771916019431937 0.5515329955543921 -0.48934212384794445
Ni 1.4693110227355501 6.53316308774328 9.282900726373347 1.73598931411621 -0.6529871836368366 0.13487261564189032
Ni 0.29626044089014797 4.801991072229245 1.2275604765454216 -0.6622338990460852 -0.18159007430308724 1.2175836972434062
Ni 6.210210846286805 2.023112736095618 6.959758763040883 0.13644921610039082 -0.33915164690206107 0.42940996626868627
Ni 3.282191339457879 4.339143218518002 0.1593890851781101 0.8122071177748399 -0.12436708812487615 0.8089575004892907
Ni 5.998087701165892 5.777062765922199 4.626766932751424 -0.06197721303374488 -0.1725156228056448 1.349839958308372
Ni 5.200879925769692 2.9218588167134643 9.362343775298365 0.1999670341483782 -1.4990325901173602 -0.22342500806100235
P 0.22641576525808918 5.7036049043398975 12.41944738078883 0.435355899439476 -0.04985703273144317 -0.48724076123422533
P 4.024124787973802 6.371818141767868 12.626197788964701 -0.16674555309108702 -0.8910584808561041 -0.026685736821302427
P 2.381138392497239 8.380555934260743 1.4555304364611263 1.3136678792631893 0.3065557152439108 -0.4538261903295217
P 6.343484395157551 7.603585256938385 5.839968749456521 -0.26815937485389946 0.37588885442209463 -0.3525764049483992
P 4.91913464976979 1.1679799991585942 12.760734234076445 1.128456920378063 1.0367307582166598 -0.4461725304390058
P 3.7458262416860753 6.036218844832074 8.511336258174337 -0.4009072308433031 0.0627706554693177 -0.44778332656955144
P 4.809716812843936 1.044078660213865 3.680400798244036 -0.700972967487496 -1.985433886169426 0.4237998191707605
P 0.2721830888456534 5.521715278111603 3.544857473822673 0.042595980293655675 -1.4500877847875413 0.28013557337916917
Ni 1.5561215695020236 1.0114206700276447 2.4942888296310812 -0.2025877596006769 0.7107285042123631 0.13760415564044046
Ni 1.693058964917208 6.435487652828981 4.73957541087445 1.531573500167859 0.4540640173719406 0.8744450406691392
Ni 5.896549395944248 5.763574382717863 9.471511927867116 0.26703554566210136 0.07785428927531753 -1.538375610691357
Ni 8.500938171215877 2.446409140196292 9.907164993683956 0.6413840521802696 -0.7872162521574572 1.2530114419233969
Ni 2.2064498078723327 5.293652138888718 6.868770526560283 0.37740246285314355 -0.9759946166788674 1.0780841243524657
Ni 0.5895282881089381 9.248181935587564 9.24663497815769 0.5458986800867502 -0.10835760007049725 0.3743850161830584
Ni 1.5262951446698996 1.0439158225896676 11.618104434391487 0.5118891559105249 1.115990412479936 -1.3977344679968056
Ni 4.177816365611945 6.899312532285407 1.6869878354950552 0.1354032913343797 0.06720940796696166 -0.13407248833809812
Ni 5.276735119041563 7.566114510303668 7.6955478052037645 0.6707807601748319 0.42739447850055423 1.5180461551053857
Ni 5.573370991120832 2.5896610168164576 4.736450737796799 0.35040099456363527 -0.6667153318562066 -0.7372098383323433
Ni 0.6639378451393255 7.214095752927989 7.110674863839931 0.5094998297427419 0.4462401504521476 -1.5981406465651316
Ni 4.816718830684415 4.641116546057069 7.2631786314749025 0.4907238346868194 -0.21994424860125347 -0.11985891584187744
Ni 8.335956518300058 7.28941720065388 8.926558630075231 -1.9952297892139248 -0.30251265552278866 1.681475756449362
Ni 4.861083036743481 0.4098831071341616 10.570646893475528 -0.7253503678905959 0.6987703034092224 -1.504938928299466
Ni 8.31700402815044 7.268528752083248 4.929060507618078 0.03383263227872883 -0.262228096971129 0.5914637703110588
Ni 7.130949052705953 5.9532259356995585 7.17355370777022 -0.09231340212344101 -0.023029628125953886 -1.2938025077978301
Ni 2.447187142178567 5.072220109584531 2.519365823757453 -0.5520549294961332 0.5155961724484668 -0.04439163874149774
Ni 2.248878055510386 5.141326587986897 11.354565309430301 -0.01867675047389687 0.6204123350246089 0.032992395765620595
Ni 1.3091240331988736 3.2700147037817984 3.7765138966195093 -1.977870214889555 0.6435514921452337 0.026160974666083976
Ni 3.7900366566556207 2.6653533724641316 2.6314071557398178 -0.1461898404269224 0.4177137608776806 -0.5988991435431815
Ni 0.96541904119193 3.2585708374146045 8.267286987522624 0.5582286624070129 0.35396840019991943 -1.0048830175784436
Ni 3.7678455070914105 2.4510500124859127 6.721018903591467 -0.32766730041154535 -0.07224388506707558 1.2839464409393566
Ni 3.906221301520337 6.77114122897284 5.7796980214737905 -0.039613243516247905 -0.35084630963117 -0.20296596887570206
Ni 0.9944493709724233 7.612894141121659 11.431717775774946 -0.39740307434478656 -1.0525247878261228 0.9010032507736417
P -0.0027474325815942083 5.257836908100008 8.023555250238095 0.46102939294618017 1.0213984987349636 0.06684019755300102
P 8.373590102558973 1.7067916045578404 7.800094987859186 -0.23970111951320655 -0.38830342603636353 0.7458865401707347
P 1.7396757581110012 3.0557837160809997 10.539544907253859 -0.37781898156527194 -0.12973195198121526 -0.9577045601204281
P 4.00635739386695 5.81196429670847 3.707993633664255 -0.24676085457346533 1.7902547603279944 1.0972498986476393
P 6.787714480502245 3.9212114094811588 10.372992775918007 0.8814397268194175 0.7892849617610278 1.6909651839970363
P 6.596108876030184 7.920503459764885 10.243738602404528 -0.3287677325645757 -0.3556146775540908 -0.7022235520651455
P 2.1860136860355817 8.442479464129073 5.921265433336983 0.39517521345553236 -1.1706353535183258 -0.5263089308802806
P 7.0854268902081525 4.041837902872588 1.4447921997987876 0.21256004032204037 0.7596928499262078 1.4537348946218254
Ni 5.482869458205888 3.2508450967999147 0.3723707464399287 -1.6637616269990507 -0.39300006018108447 -1.9101478718419167
Ni 1.2436361686675583 0.9044390648904743 7.100995976388342 0.023315534797488876 1.055722211717498 -1.1421382745198976
Ni 6.929898866030452 0.7958308928182674 9.116904052266701 -1.303885860175761 -0.8005080841703568 0.10325601717787379
Ni 2.7285253241179754 1.5102465921517956 8.877012568952823 0.20136931381254353 0.015927726973849986 1.7630234354158667
Ni 6.185595225428992 2.036628258903987 2.1588668447749693 2.066700543560402 0.2943033802391189 1.88082186918429
Ni 4.18731522702345 7.063941370348797 10.421889295850562 -0.7307077755477673 -0.2714670990708938 0.04784077363236277
Ni 8.13090776329705 7.137525883416585 0.6002864271475677 1.51690355686051 -0.013438384893092986 -0.9064321350986969
Ni 7.175819864706965 3.8620923053628906 8.296852872156032 1.2107167949202438 -0.22049806422219445 -0.9755030217544296
Ni 3.4126695091132406 8.74229066988019 12.425259779319202 -1.3066222852703175 -1.4723594517015481 1.2340233308566684
Ni -0.022657950753575417 4.771504250365655 10.22529452750379 0.07076550074933619 -0.10139659537163181 0.3620699462611313
Ni 8.270667677531652 2.6493138664807057 5.908541482312906 0.36423815755704364 -1.3283563345132994 -1.3049081307926882
Ni 3.7036151108802846 2.7173890399298215 11.568875906636263 -0.10834114501026502 -0.9002938834114431 -0.5706895138781849
Ni 1.1112401336605406 3.2529529393798007 12.655220881517453 -0.3403040153389494 0.41121838296132407 0.10102429963387763
Ni 2.9273862494014917 8.1454817306627 8.073975206610362 0.053409525969391886 0.22580070738203048 0.3454570202947986
Ni 5.401658716404864 7.971625427228134 3.876003161736672 0.08877325018066647 0.014779729412335834 -1.397666847983664
Ni 3.0354290130563477 8.592036775419544 3.899160481204452 -0.4036850506987564 -1.24492352270894 -1.0305297716122703
Ni 3.2941870444404078 3.996243368097367 9.360278451431462 -1.1249584203065013 1.4876539159667734 -0.7586060446199322
Ni 7.337182903751732 6.1375219401521015 11.349334603079699 0.44116222170860797 0.4173612626342683 0.49124911106267005
Ni 0.5814044999684324 9.104884826294011 0.2936830831604931 0.2177564969213153 -1.408605863493671 1.3648446592473205
Ni 4.742627711674682 0.41262601644841695 1.6175412073888118 -1.448731270759647 -2.316371886912443 -0.5025295690724958
Ni 6.161549536255869 5.793292249133855 0.2859700076943514 -1.1504390810761091 0.04675808209114528 0.6711013767390442
Ni 8.280546493399617 9.104251568866577 11.204404594276834 -1.1116668454039178 -0.4714318192264268 0.1645752849126456
Ni 0.06136354937178688 4.724344665091204 5.751680903577191 0.30906665459122257 1.3185059240817811 -0.26347302512182363
Ni 7.914976027076857 -0.16331889984206965 2.5328315906250953 0.7566260380754259 0.0531380174755601 0.561837977024826
P 8.229695921976695 1.7319409709616334 3.5209321035607624 0.5858739349281071 -0.039528654222241597 1.6079339785064695
P 1.926920932868449 3.170973242131178 1.5965677213922098 -0.9523525517798954 0.009699486675951037 0.015181078615812563
P 4.691831419459826 1.063411104819946 8.162434936648566 0.5431964506642387 -1.289004057967922 0.11991008079478704
P 8.627101143830012 1.6682624133658424 12.594553010662375 -1.4776047592608874 0.5997877167957218 -0.7114887794171553
P 6.376006687323608 7.6510524243918745 1.6699342129742674 -1.900681070002062 0.40779110244732997 -0.6652217780298155
P 1.8235914137806353 3.174709460953036 5.9976236139369306 -0.23836748830344753 0.4434654159204878 0.07175794656959254
P 6.536754562010297 4.087875717847014 5.774083742052858 1.181686212015849 0.7471677208760036 2.4405962788118676
P 2.5917507663269883 8.526829353463233 10.4067824875924 -0.6143123927744581 1.092050870945203 -1.9148697027976185
