# total energy = -340853.50436925644 ev
CRYSTAL
PRIMVEC
9.44569283569784 0.00000000000000 0.00000000000000
0.00000000000000 9.44569283569784 0.00000000000000
0.00000000000000 0.00000000000000 13.82472625030346
PRIMCOORD
 96 1
Ni 1.5865269410658842 0.6456187871020274 6.627228591556539 0.058404408080822 2.1212133298963014 0.9172279401626204
Ni 5.513592716278422 2.56803835115678 4.452004498821736 -0.22406392719658186 -0.30149629844313236 -0.020074916373004133
Ni 6.809248985689342 8.282956569015182 1.3774861974060253 -0.2968623992155468 1.4935864794011247 0.6960174232544336
Ni 2.726518189080629 8.61825033506494 4.952224788299161 -0.38296941541795976 -0.2354228038528268 0.22539858684760536
Ni 3.886109250165583 2.024722087157508 0.986775494825367 -0.44869118309580147 1.2239579762008663 -1.2868458739743387
Ni 8.781103528869036 0.7104134076888807 0.77454021777739 -1.8560937703099905 -0.39311216027891654 0.1533202808241166
Ni 8.770788832062928 4.89412527494323 3.964848547396076 -0.8762828652088263 -2.402909048673739 -1.5399385843031028
Ni 4.587395284664225 8.637906822293427 9.663110230137365 -1.9490008401533725 2.0657962865785775 -0.5922942366321542
Ni 2.934465121485774 6.2443682044663165 12.283933003173157 0.8151021799344477 0.33232022580252446 -0.33276528375974307
Ni 0.7471741558848537 8.146834686530942 6.779687744732942 -1.5774640920523866 -2.6146540492936516 -1.9679146463387398
Ni 4.143825539229494 1.0658897860697811 7.695561978417291 -0.1702031726223843 -0.6047751427079843 1.3743045191086396
Ni 6.5947278509242615 8.988738753403666 7.970673455794503 -0.1869315411206587 -0.15128833799575236 -0.9049648065245511
Ni 2.692079192235334 3.0053456021020906 8.009714394291752 -0.48073149936079784 -1.8887665779526635 2.788925992668771
Ni 2.6835119486427166 4.061383530325014 6.114731734827379 -1.5089596194230852 1.6491191944955277 -2.6942199219434375
Ni 1.7598931912300468 7.052541701472187 8.437354922973904 0.8779844212809653 -0.9775915288523422 1.0822840213664264
Ni 0.6525405909660515 7.11548779992996 12.343144274600588 -0.7485584305759432 3.2747930134839214 1.649510002176043
Ni 7.441628689418257 7.824150920697439 3.6481099007656517 -0.7434421923953003 0.6124313737016613 0.6370214043361997
Ni 4.343082434032425 6.790385936676711 7.740340230870611 -1.0384104599119277 1.2897216528602369 -2.519579539485306
Ni 6.512928149146902 5.1772882610727535 4.155491914710465 -1.3694636460765706 1.2694359060280072 -0.19290241399211294
Ni 7.837270988338172 2.1722827039203145 7.487693445264427 -0.11790744854246145 -0.7941340623232129 0.7708300974899498
Ni 5.388909568072748 3.0294982392204175 8.759429441605949 0.4019464707410949 0.09826884837592753 -0.9772793969285621
Ni 5.222004171951971 6.973840187013877 5.14950281040898 0.09492332894246233 0.336980093172039 0.17795402021239676
Ni 5.978594739234266 6.973452913598996 9.360487227194712 1.7966537218758025 -1.9623790612324912 -1.2070761128438632
Ni 9.374661434179366 6.702786579369179 4.616283992275759 1.6411068657140122 5.06818220567584 0.4832452669215871
P 5.782209335117283 1.5881138174975928 6.409254111413883 3.0831087881696257 -0.09861337619953985 0.3066683295623751
P 9.148361520186066 8.994255038142462 4.817461196474919 -0.4869124313605292 0.39846673972261054 -0.7116448453790454
P 4.399312644734575 3.231343253917921 6.770977871175332 2.044906587613762 0.6217346533804583 -0.20671695127770207
P 8.847251717269364 5.80326378491656 8.457870968269566 0.4099490293305972 -0.6176748814887878 -0.2690919139704978
P 8.813445581858144 -0.030805238730542847 7.657267249670666 -1.2290772997053026 1.6668284388498324 0.6997375524184981
P 5.521961600317076 4.856068577661362 10.04637394832065 0.8064756146077013 -0.7393207140277589 0.6857798046868254
P 6.408543795296833 6.847315128664255 6.966155171151747 -0.5764888941687814 0.3517883618294651 -0.1377450520936789
P 4.255388619794434 4.479166533744483 0.6930815055189874 0.5271761639765824 -0.22158204131499257 -0.35407458676048054
Ni 0.6203052743083618 4.0866318678366635 8.047096669090145 -0.02435554602622902 -1.1249666478366174 0.8635775018270159
Ni 3.753812873364926 2.26141226350128 10.306292028433555 -0.35454895529373776 0.27570016331563485 -0.1282949624243726
Ni 6.477837399481441 2.7877168343249137 10.954284518198012 1.3710024513186 1.4271334899842132 -1.2914085536443565
Ni 3.7417601690383773 5.9886638480211785 9.69203199767456 -2.4788110993186923 -1.047748706593718 1.2447905966755013
Ni 1.9356019732695886 6.435473466170649 0.5300800143340738 -1.1374364981688538 0.289984698259107 1.1375840794903118
Ni 1.1571446265860705 5.512364776182458 11.139826266698321 -0.3929416961393232 -1.3572681324516433 -2.1788428074843122
Ni 5.764045267390048 3.634079268315295 2.13629366884619 -1.2481101479670376 1.3409233725450325 -0.2134624975316517
Ni 8.141630109662659 6.007744147973865 11.437528063564068 -0.7751516076834392 0.7659298319748551 0.6248845118633495
Ni 5.549901960346802 6.671275747368108 0.09629884060279162 -0.5928665641958564 -3.5565872055124363 0.5133449145204451
Ni 4.8523375289082376 9.289281814737617 5.611760859534995 -0.14463612278655735 0.26119708460345337 0.3476216320462852
Ni 2.820710640134188 1.7603088017240658 5.1093425572857925 0.4420903899498322 1.0574348235332305 0.27266729002658197
Ni 0.5595524657758424 4.414302959598394 1.9394567606016142 -0.2501027744625048 0.9758010126108226 -0.7269357100998448
Ni 1.569798618681623 5.085088851251876 4.2569651059637925 0.3315003010043904 0.04404222582187899 -0.4526198287262463
Ni 3.921407805078053 5.304436735163403 4.231859398417136 0.4930234293542735 -0.9257295498757282 -0.5842304857874131
Ni 5.36404850397598 2.1438133850800187 12.710937836713322 -0.09540283968204216 -1.0793843312211282 1.8172415733294833
Ni 3.6303765566413086 1.1367986037652353 3.0815449524725445 -0.30941709595210587 -0.3667586099860522 0.7099972824732933
Ni 7.528453499896027 5.782539934373889 1.4342189189782166 0.49862689158397994 -1.6338198451342958 1.6450267695937089
Ni 8.760313558475044 1.0641328871632465 3.0020528335062955 -2.2435705866800006 -0.32414437485995146 0.0008687757581985038
Ni 1.022005096178602 1.7914795887754844 13.617577016306711 1.2613785829411694 2.0174981136938217 -0.7158552839159671
Ni 8.328003079151005 9.08175049282649 11.942932149385074 0.8967786711693331 -0.318907037720412 1.6402722856278589
Ni 8.838372765806232 4.046005942046315 10.24968021173235 -0.8208467957277089 0.7752241127925875 -0.14643383811692845
Ni 4.843836405166941 7.105295897133451 11.36200313567709 1.3715866059568442 0.26243532788592866 2.040564765705299
Ni 2.9139490761901135 8.979822019168353 12.044336387079166 0.11584670935869082 -0.22146659878305083 -0.21695277007309732
Ni 1.2975359623270504 0.03802741563342607 3.1893505363438326 0.5912876497445108 -2.0961103641810865 1.597129688802114
P 3.304915757052315 1.8570893726721975 12.337821626569234 -1.875945257818279 -0.39797128814343075 1.3617835038234933
P 1.366461184482869 6.614544914934526 2.726083687200518 -1.221392015245903 -0.6047923690991649 -0.09775025686829616
P 1.5224284680565126 1.6206070015754352 1.9619356209122099 0.6977362057177532 1.7728913293488822 -1.092498500005583
P 6.965244606342123 8.123456596242379 10.70805230273929 0.22388472130624024 0.06346562465381328 0.8479454517167139
P 7.507984683065595 7.034528764833685 13.692990485015747 3.5828767353365847 0.9263702687835207 -3.299216179523292
P 1.6387994063818088 7.94057853318101 10.427009874698568 0.005563353020390419 0.15127214004583625 0.7714384204979101
P 6.608688585246078 0.82791310633316 0.2371227890852732 2.6692737935210613 0.8474142618035923 -3.3690982492264108
P 9.487915293799519 4.483804369030011 13.650286506755304 -0.6492092046516432 -0.13236758983184946 -0.3165920164339902
Ni 7.742757383721053 3.072485588272237 0.8810177372064267 0.8403789522233656 0.7764402445878756 0.8295358388612745
Ni 6.147956015546973 1.3455106373070973 1.9879405584368344 0.4760842303967736 2.5081692407658354 4.077572153076642
Ni 8.07809837823604 1.9316631192694549 12.736872876109405 -2.104253819223828 1.0717604961272833 0.4988770599215731
Ni 2.2299581056584845 0.7905903394009568 9.575351240617358 0.030463715806495924 -2.1950137608172198 -0.33828415669544315
Ni 8.018184347245995 0.38628917366587995 9.694133664377269 -0.45422882508457896 2.3975812087029227 0.5717174409220669
Ni 2.6121025092158305 3.6525550439130448 2.840801629242784 2.137799002169125 -1.2251339987868386 -0.9896150356757795
Ni 9.534954845168023 5.084966057242279 6.217795580789634 -0.4582245765075334 0.4667948346750477 -0.49039679036470385
Ni 5.504477622489143 6.553384052462424 2.6016895772020474 -1.086652582747767 0.32624676591493496 -0.1377846470823627
Ni 4.226248656747881 4.1623390975994266 11.706073839705086 -0.08169988827365285 0.5275672287674139 0.45941499727120877
Ni 1.316370674260544 3.20479141076594 11.714506009887147 1.4841389608349795 0.27123827088953933 -1.232183192324136
Ni 9.0334168815107 8.08597608623631 1.8205647668023717 1.7128249601846048 -1.4975210385688402 0.7123231023929926
Ni 6.826515712577219 5.066698086891538 8.247071436564564 0.4483638816633697 -0.5552063306409213 -0.11607348065751623
Ni 1.3702583530873147 9.172504711611348 0.46758447543458875 1.3073663625251937 -2.111620544001544 0.2538771539032724
Ni 2.833868490547105 7.9603200316469085 2.1127776714391566 0.3085490915248557 -0.027365793607462552 0.6928997035610582
Ni 6.203373896647178 4.367386202239486 13.213867150956306 -0.28628333814811985 0.19160452111629583 0.2849412222979286
Ni 5.507500244263826 8.926009905885948 13.119693591288838 -0.9650520016244347 -1.0740446641757695 -2.5674174849041913
Ni 0.38775608979590576 2.1700157375893023 9.425090100212733 0.6497126266506229 -0.728489684850526 -2.359203123145356
Ni 8.886696931428977 7.7803890248158565 9.233658962098318 0.6025935616756332 -0.7978043120859486 0.5714636730400481
Ni 2.217612584847514 4.274393354202754 13.519200123233825 1.112375441435168 -0.6861945236267407 0.9799674852836866
Ni 4.5714131720305895 9.190612105180309 1.5420925118394349 0.5620524070284771 -1.0598848277356199 -0.8282119778435285
Ni 6.954070351468841 4.09604922380341 6.123745759701068 0.2014760145937369 -0.964230534164404 -0.08428358984042902
Ni 0.6256420908792864 2.753778459211051 3.7524319130416175 0.3171196068026861 0.28793115816418796 1.1499030060669808
Ni 2.546861107347907 6.411471960141058 5.880250906087041 0.13652480653333263 0.9984789138243125 0.8923391473407406
Ni 8.14782648430076 1.7630480527073724 5.183678272418294 0.003964126854070591 0.400870978288729 0.08212283474368437
P 9.403300775494486 1.723763415329539 11.309386847134297 -0.533573582862494 -2.2123887617605575 -0.8216569503338301
P 2.97142611837432 8.689943145283204 7.453159046919368 0.8886223606107858 -1.5290304220310311 -0.2119982542812994
P 2.035131240894073 4.247303106547157 9.702303244292654 0.7664018865152672 -0.4763048310480119 -0.0863965224183738
P 5.669040486734542 0.21272834222497214 3.6670636284315234 -0.48742639488247025 -1.7178553235196607 0.4939289718876784
P 3.819602125429511 7.599333980512344 13.739510523266729 -3.5751027478181205 2.2952433324639436 0.21692705904148446
P 5.559035945522172 1.0912042434327514 10.032963897903407 0.42834038735359137 -0.11257832302006418 -1.2045505182085319
P 7.411147437959189 3.3804529643402526 3.581834195509204 0.39909177490111913 -2.5500152302673436 -0.597790483860035
P 0.9452588401807912 2.6346399328233105 6.107127951925443 -1.008680794057979 1.0631578420599368 -0.041607648238457376
