# total energy = -340890.5861880524 ev
CRYSTAL
PRIMVEC
9.10174082798439 0.00000000000000 0.00000000000000
0.00000000000000 9.10174082798439 0.00000000000000
0.00000000000000 0.00000000000000 13.32131771981677
PRIMCOORD
 96 1
Ni 6.575552468083217 1.9968581668353258 11.647160631136789 -0.2274863226145695 -0.013418587398751083 -0.25323874898832516
Ni 4.879961913807312 0.4224754916063654 5.870797415075177 -2.018892680048504 0.024506469781796505 0.39425501563410814
Ni 2.768476426350435 1.661340704545961 4.530992989143278 -0.4329897132001446 0.11286345836065079 1.4381483530374781
Ni 3.4960149563300376 4.208153341280923 4.902923784893866 0.4660139906449651 -0.09807215898408915 -2.128188475662554
Ni 5.080309427029609 4.274204672529978 2.5818179309314435 -0.19735247934366656 0.26657686085812793 -0.12711739717650364
Ni 6.886285890825774 5.969786125065321 2.850615084040541 1.2829005161733456 1.566668029878147 -1.7233533705197546
Ni 4.833388307358171 4.545573067347475 11.433327068925692 1.029499016354911 0.3044924049569788 0.15619811659254387
Ni 5.825814792876048 7.962138930323097 12.493144661903159 -0.9665470981127225 0.21028847067904427 -0.15706843501263917
Ni 1.8905589388268216 6.47603403679244 0.3645875114662089 -0.8973011193317062 0.2508764194037357 -0.24567559192908653
Ni 2.631176669992161 1.4078754334113752 0.5483070548581481 0.19942350294008235 -1.4819398963011317 -2.065291321917701
Ni 0.5013466244351772 0.3654266919459061 4.714507743372602 0.7205956268144299 -1.2187275810398623 0.6181209678872709
Ni 8.764657599041808 2.466407860621671 1.454861348707916 -0.10405743003324659 -0.15198716383498986 0.29440236771082845
Ni 7.114630358012807 0.6497359414926177 5.119328588813362 0.08307105758956661 -0.4003593287596331 -0.3294788996989874
Ni 0.5288775692832056 7.329622571797281 2.3365724416972324 0.7775818143914865 0.26390625600450035 0.20594999120469046
Ni 7.628223374372417 3.924825259366656 3.6422344184378055 0.767329283425543 -0.04187247186406982 1.0248697451130158
Ni 7.901302896415327 4.0040650126881765 12.431892678451765 0.2816622944363407 -0.09561058481747405 0.8245170454904445
Ni 7.80396888285912 8.690678651764378 7.304984160099446 -1.2651470488446663 -0.10025116891327895 -0.30670406789631693
Ni 7.0495529130037475 0.5244805184183278 0.3948262241310478 -0.873051245645406 0.02202484101052336 1.0526697980444193
Ni 2.160807819555352 6.582151229989729 9.084258847612665 -0.2709600775274882 -0.07831837339592963 -0.14046502212800324
Ni 9.163359344303604 4.921047170698347 1.482449634521477 -0.78427465303063 0.23741335192029434 -0.2754394534550805
Ni 6.359886725497249 1.8874825505173023 7.289171706223329 0.9651468753310863 0.5380300759719508 -0.6967481307728709
Ni 3.220341438227326 4.25647448191772 0.4204931325122433 1.2520966434186114 0.7007986466931608 -0.2760642315232729
Ni 5.82094536167607 5.284534281730766 4.714148224620454 -1.1921570296401856 0.7336671152864074 1.5347392994903504
Ni 5.4016645810065125 2.772508497418829 9.529098225950744 -0.5695065493136773 -0.2868212129294609 0.04286903144938424
P 0.1386185985655209 5.867036575875493 12.125675539375429 0.8037954966723769 -0.051963280441168574 1.417230114827572
P 4.003355076924441 6.123341590065019 12.79076884771613 0.1718183396283041 0.2909506617168022 -0.8783122369340294
P 2.3741799235200207 8.375931361434546 1.632553719500555 -0.34586942524186887 0.29914785281561385 -1.3906140549019406
P 6.088900603783301 7.8024944008882855 5.935566311079229 1.6127182872689905 -0.703786268566575 -0.0603749015436315
P 4.759145409604479 1.014662037707685 12.855724329401676 0.05346968978336597 0.2984636822643956 -0.9152533329347529
P 4.449485992248086 6.151402256213681 8.174905768540478 -1.2888729317066965 0.7161833566793472 -0.42127216765290026
P 4.744600828188469 1.0787655964767486 3.6435004705498 0.015965779300637018 0.20435642146532548 1.0688050130433853
P 9.175100589626918 5.867837529044835 3.775954460233554 -0.6411405687108959 -1.9076166207796306 0.05702963922048243
Ni 1.3835646843737253 1.0305445749861197 2.528319720263716 -0.685579001529929 -0.1329617717724226 0.5198654892477821
Ni 1.9024731172207876 6.380584083532299 4.99529461932232 -1.062382397346493 0.27280073028065277 -0.6599430461293796
Ni 6.315461129820435 5.9216652227208595 9.36034376438872 -1.397019187097336 -0.4825400133244464 -1.3719203351471791
Ni 9.162813239869964 2.504562357052157 10.13692338268347 -2.1798172555824396 -1.6221148979925417 0.23546342728277517
Ni 2.71322886114694 5.0522578626215076 6.937622438110334 -0.21721193727175495 0.5832640081090859 1.4310166270887035
Ni 0.6774926095065517 -0.19034743086824657 9.31426529262608 0.5358343538722127 1.623413047978675 -0.5854946972118175
Ni 1.4632686264638417 0.9571208338828914 11.3966934733429 0.24727636075730317 0.4404813935914995 0.6826654274275598
Ni 4.032517053680948 6.742696831740051 1.5908850410395794 0.7569201722770771 0.5848799464459541 0.7940517870220518
Ni 5.364902650881814 8.219763696893926 8.261094700780099 0.8553083198396882 -0.09956519858984789 -0.33144887894116465
Ni 5.616465658239211 2.607985435043478 4.909744629270061 -0.24055189754927606 1.200633699652629 -0.26907494468963333
Ni 0.7156025074082906 7.672539749162502 7.134471242261093 0.7206853583147588 -1.4300259810406597 -0.4576784741960763
Ni 5.352050993210096 4.310575227810566 7.429818172585775 0.3804199095232287 0.7557153533356985 -0.07026619251541447
Ni 8.394617234805681 7.131823545931984 9.357865360434038 -0.8739773570041012 1.4858957956250862 0.7203338885126112
Ni 4.836492000889373 0.5040207158119131 10.57845791902396 -0.6252578360423683 -0.21597857908528612 -0.06551607942493878
Ni 8.06017377790248 7.436750058196811 4.856552237085173 0.28290105193944826 -0.15262582586025328 -0.3291909361449234
Ni 7.3724280576542895 6.202080747655701 6.770813018506133 -0.663003173111942 -0.6429279996286218 1.2211328480472452
Ni 2.2264495724791753 5.165255971682693 2.5305441856567534 -0.10426106140362044 0.18460135032558528 0.6544043756993375
Ni 2.281123728027346 5.347409105524134 11.449219618118743 -0.3670715132407807 -0.2949816372530662 -0.3386258563055781
Ni 0.9341207354859832 3.403768815747266 3.8155716063721457 0.46745637951844654 -0.048195585868620223 -0.4428306105499664
Ni 3.49771698181489 2.396643019223847 2.361922609506916 1.0372056409705492 1.4810878327134815 0.8783492608195518
Ni 1.0584050028424457 3.575855424528565 8.227126094833482 0.43510341710903777 0.22678723966501585 -1.1492052086690079
Ni 3.9096890648141986 2.7251157343192243 6.637626338707242 -1.1154427675065821 -1.004983804822366 0.8033265274557585
Ni 4.016843856435409 6.892029089119581 5.915131083172328 1.1539548075388513 0.7625367471329061 0.5494624861786085
Ni 1.1478114003702766 7.67418716420399 11.356410079795264 -0.7610028269868829 -1.0649373025578628 0.2292734964219793
P 0.14748824474193048 5.759108136306621 8.101119778162934 1.1384801089420198 -1.18142113127992 -1.2965294198106898
P 8.428366488804784 1.5502357575214032 7.968292617116191 1.33293212680944 1.5883635125737097 -0.2960154778342192
P 1.8683870988209377 3.409129740937523 10.419987514121479 1.5453571842155127 0.7545190190347522 -0.2768435328914587
P 3.7245232548471634 6.05517865500588 3.7979743011720735 1.6349842977560423 0.40433322580571657 -0.36216533418841496
P 6.8501246755780825 3.952485448930646 10.526132012540451 0.28467768422389683 0.9476708300335098 0.0845206455518996
P 6.40684260504994 8.043299150902927 10.256415583634722 0.39248403977661434 -1.2288546421715354 0.7518592128144019
P 2.3063264476399454 8.440571922896693 5.852694053099929 -0.12923187241634518 0.5915799841739489 -0.8338930873887058
P 7.054649887717744 3.9152229230751088 1.4490926655405398 -0.9866441259729137 1.0817055231551371 -0.24731878395946436
Ni 5.293299257890728 3.06965302150425 0.24764197752384493 0.6129697627036347 -0.35926692959469736 0.45036677102601147
Ni 1.1411944349826422 0.9721114005863768 7.031430437373323 0.6134004224831501 1.135305310758464 -0.3862486003898638
Ni 7.2811922102737565 0.7446443411893964 9.455644449103666 -1.216321285591215 0.13672766657275806 0.6457490140171847
Ni 2.485002716587197 1.7027263188754984 9.050649760418194 0.893161643242036 0.02782062175669402 0.7726560949550952
Ni 6.543113864724854 2.0410289137764397 2.6344369134610064 -1.3418911357749408 -0.7248387183615 -1.21528358835532
Ni 4.1222875208312075 6.939376343516382 10.625069752783453 0.9337498490770436 0.15980974520320218 -0.3928437371088783
Ni 8.153120752508425 7.120282538901006 0.47576709276336454 0.14062597318589973 -0.10088751694569721 -0.693715000373502
Ni 7.7048782333746955 3.936129621143054 8.421683080711055 -1.013163769529997 -0.9349718944096027 -1.877376848058483
Ni 3.1080532649298753 8.31977362217498 12.506145588120074 1.1760750364766583 0.6342860076829075 0.7025742505363448
Ni -0.22389644657501484 4.932506262064278 10.078269035988104 1.3911120775842816 -0.001857107813396802 2.03284091469848
Ni 8.600507708029447 2.547631793385426 5.717696126929458 0.1723364169153032 -0.6144684587363483 1.052093356715659
Ni 3.402430859884842 2.6804625951283922 11.860501789183552 0.9175868661639358 -0.925981003764902 -0.9053072774656344
Ni 1.2498601155369304 3.1593324712489026 12.682640169854924 -1.6758126446263137 0.025008606229195637 -0.7606241034912256
Ni 3.0719193549038666 8.682323253929647 7.884900649750875 -0.32643985576234746 -0.21243945558377608 0.0545616372959641
Ni 5.46016146759018 8.032331553527273 3.70599029071745 0.8995055831821928 -0.6146846885122123 -0.06417936289138625
Ni 3.13203635130734 8.49494572100636 3.7232681248238415 -0.7296045151812596 -0.7416835578329808 0.26985424605781916
Ni 3.6772579161154084 4.502895005858317 9.276019778789989 -0.9341501698392558 -0.49491576128097997 0.7183024599048791
Ni 7.221057010389162 6.1793537014756135 11.430450008734452 -0.1992332413061472 0.7299801533531235 0.9102869900684128
Ni 0.4341056956948376 9.056568622304823 0.3444089526431201 0.8223498626357966 0.27282438442973656 -0.10704222369318339
Ni 4.686158552048165 0.3324337925873971 1.648353430939887 0.17733387012989457 -1.21227308366377 -0.923739516028893
Ni 6.185506478094652 5.71560181642644 0.26020511001978963 -1.1568215875636851 -0.875982560359588 0.7192434836619097
Ni 8.170850943120683 8.911823642167889 11.488277007212853 -0.1758526575986778 -0.11299638439408928 0.5547682146622381
Ni 0.147083217286979 4.8211919750068235 6.044947388441589 0.1209943149979013 0.8079573413595504 -0.32663808781608267
Ni 7.961246959748148 8.886821160847626 2.8001140765394545 -0.8580383171763416 -0.03980890446682176 -0.6361153475821625
P 8.354642390263052 1.7392516037456183 3.655968944943913 1.138344097584788 0.4332470806265893 -0.2823014706822364
P 1.7214303957277526 3.2516605274967203 1.4449495532373056 -1.0813321989761184 -0.05383041555689439 1.9457483946543455
P 4.524893912793548 1.3236661297437085 8.16434228844572 -0.6480900034455355 -0.9978567068592816 0.28214694738224316
P 8.445605185426764 1.8014255935158119 12.723802791540725 1.417220087525243 -0.697171848573851 -1.4276721360965026
P 6.263845159100663 7.666032004661596 1.498035455057633 0.3955943032708219 0.2161953230817825 0.35923967590118777
P 1.8109824211045549 3.32741431418349 5.90755115363337 -0.4970230374319698 -1.2397286087715618 0.5544172590807226
P 6.991447401264191 4.020520959621935 6.055937740168643 0.5724239800707883 0.23859143138879554 -0.022533405215825707
P 2.753376638760221 8.61187578198977 10.164338735426378 -0.7420178012439479 0.3592648727121684 0.08586121874019406
