# total energy = -340896.3221748429 ev
CRYSTAL
PRIMVEC
9.03961930522960 0.00000000000000 0.00000000000000

0.00000000000000 9.03961930522960 0.00000000000000

0.00000000000000 0.00000000000000 13.23039659193270

PRIMCOORD
 96 1
Ni 6.313170746068132 2.0745745707351406 11.365374248738128 0.7872892714872377 -0.27399783591254745 0.6483905654050898
Ni 4.668493354656781 0.3100869678924636 6.009987335503708 -0.15670051015025915 -1.0627834894396535 -0.32656583981725046
Ni 2.607740361968743 1.3188714293618518 4.73689253873213 0.6053682962072929 0.7248472030019323 0.1070789904683898
Ni 3.4925021493711284 4.3085266709329835 5.0535223831389775 0.3823574928655738 0.20353238290213335 -1.0340146448370773
Ni 4.99224732310478 4.722514120130612 2.380915520352444 0.11357616815695924 -0.5796724341030856 0.20583634844496163
Ni 7.260531897745329 6.329686130693414 2.638604334451558 -0.24426148519037932 -1.4214197274288876 -0.5635541883849843
Ni 5.176058943778287 4.439266686168595 11.638198097581691 0.6588287300192782 0.16806504323345894 -0.4576255094709538
Ni 5.554502609534967 7.990616757767742 12.38256646020203 0.21972467639127966 -0.5449355448425325 0.08503615173573742
Ni 1.9723545546745518 6.498537181276694 0.3702817934095718 -1.0488542809530712 0.20083683834784122 -0.7005111973597291
Ni 2.7667743858946308 1.548866465498176 0.3207302157620901 0.20355398016868817 0.04529949526774779 1.0620155009253773
Ni 0.6153494909165563 9.009002198991105 4.7082089224461505 -0.949189066450249 -0.28099432183503864 -0.15327708629100698
Ni 8.552139835027349 2.2346210320326927 1.476049619427 0.39928435052789946 1.1437976645001915 -1.1382188848608332
Ni 7.15438868686954 0.7786158646407784 5.143779366899019 -0.5637711894917968 -0.07873669188027085 -1.4541586124228054
Ni 0.44838410493800174 7.300676847455717 2.29999827134601 1.352601323103593 1.013031871937823 -0.2635265040675784
Ni 7.766298602608252 3.9289892112301295 4.023509279494432 -0.3404199720915234 0.04307780502608064 -1.0163992457481592
Ni 7.636525826647356 3.8895403122127603 12.527386586599293 0.640271021621749 -0.24815953469320484 0.7569062883200062
Ni 8.080750802704081 8.551615537102737 7.0672548916086955 -0.37926908374823715 1.240726968129089 0.5025550229937926
Ni 6.85862138005256 0.7182058961821915 0.29837071720126007 -0.04086768474863929 0.5705334479162948 0.2807240988927875
Ni 1.8022469969960802 6.340506555103081 9.260074011696839 1.073937449173944 0.9314834216403699 0.5137033263011281
Ni 0.14194733535516546 4.887134628839435 1.370457825333992 -1.2902965515271005 -0.451607585411648 -0.8645043845166595
Ni 6.1363015530860405 2.0253990412542775 6.95864657652529 2.142362453170091 0.7010984373217668 0.3342459820703276
Ni 3.3127312385648917 4.237782609587903 0.43889069665476593 0.24616615841225992 0.2975177734113586 -0.1190968408648723
Ni 5.895684964166627 5.575311813370435 4.574978492068631 -0.0057574713090675035 -0.08945947761441367 0.917887171013174
Ni 5.369226570520303 2.840519600877146 9.32479678256633 -0.5991811935599746 0.5609686870459951 -0.39309184856394236
P 0.19713692361610566 5.654363284934801 12.389234987425933 0.3748532140687286 -0.3066279632427429 0.706245528740345
P 4.1354541180946365 6.0268498415135605 12.616572375461637 -0.3022923119818665 0.7517828510505117 0.6698075976282851
P 2.423847384720728 8.566657463767472 1.281664355953169 0.05118269352140217 -0.8089096779704908 0.5602469783886223
P 6.366902243721486 7.857951303602089 5.790627411579559 -1.0530361802449026 -0.7496002415768962 0.7084978151096314
P 4.779165414846893 1.11540767613478 12.688479835822191 0.1302556856951692 -0.6679229790110626 -0.24960423755953137
P 4.01974698990437 6.121747765868359 8.14161546401798 -0.30831280714433357 0.4759708447473609 -0.215318576903784
P 4.657700049105283 1.0728672272860773 3.984148968747083 0.7134207063325455 -0.48669080226802625 -1.0314018898045787
P 0.1339337127660505 5.6092013464630375 3.529419954959335 0.8593017572697976 -0.3257559423214454 1.530931495708486
Ni 1.3213663643134543 0.917286337967118 2.586317367976703 0.5912881639651429 0.4513941838492613 -0.1774909645330492
Ni 1.981439372161366 6.366278509983586 4.887983449100143 -1.037946890011948 -0.46523854593152136 -0.8791650718526279
Ni 5.8416370798346255 5.437096032899405 9.165172471494282 0.6662365924475752 0.7662270515002997 0.8590191930323722
Ni 8.679417676036643 2.338621853113085 10.070726287455296 -0.21481078402943005 -0.377115270630028 0.7398637310154225
Ni 2.335349510893954 5.186454506076631 7.08352801443433 0.1502825224390573 -0.2743053398506372 -0.04212341153261133
Ni 0.5164967330786923 0.01886839755246433 9.209811016003375 0.344991907732922 -0.6147847044251864 0.21330231780470363
Ni 1.5416438096056744 1.1940071667296526 11.365849732718035 -0.3818874952076907 -0.5909091833591694 -0.13460496380280043
Ni 4.014585367232757 6.921961993117341 1.4420335316629396 0.9453851193231265 0.3378128734859795 0.5192821059404864
Ni 5.571216865786828 7.775961955736017 8.001386560308827 -0.14058560686626756 0.2367006421239859 0.028886601127363156
Ni 5.469403632598782 2.9648866844429027 4.79638950563234 -0.0644891808223212 -0.08386681401798458 -0.36304773679336827
Ni 0.9521521499538256 7.288220251936484 6.939554900373896 -1.116841704736638 -0.2159716371067506 0.6241944277748606
Ni 5.008030498559484 4.360974542632977 7.143342271975125 -0.08895477006385324 0.6539960845173254 -0.30937595830152526
Ni 8.093804013103046 7.031359466973482 9.293096645289951 0.31255332758824234 0.23107943928246655 -0.13888945011076725
Ni 4.534996255507261 0.4035710957746871 10.49330589488299 -0.030492769272218456 -0.18996184330655028 -0.7068050007882407
Ni 7.9809172461624165 7.308324365459543 4.6325436923052274 1.0929271029025693 -0.3694078746834412 0.2635491297753977
Ni 7.313956048339429 6.216112352679156 7.094363806196961 -0.39212434244435046 -0.7364436495902801 -0.6883475654140017
Ni 2.160649826565431 5.173573048446074 2.4865208738745372 0.6140074599395297 0.19612914845952673 0.7673336543009173
Ni 2.3939262445402765 5.204597022192089 11.463041008512041 -0.619460769744617 -0.5721406445024146 -0.04660664411494554
Ni 1.1901834077277398 3.1818285101802624 3.772899391339521 -0.2822053114240043 0.43561609507939814 0.32312544667713383
Ni 3.7933768411433806 2.5053847516173064 2.6497709762838575 -0.9206004561792791 1.0148735531322524 -0.048640386715522684
Ni 1.1623052215293974 3.2092185569315523 8.241518625628945 -0.3721900654142687 0.5884450380893931 -0.7153045536188196
Ni 3.770822990765669 2.4062562853880514 6.773698675694478 -1.5426032756194594 0.3945725468745269 0.2738785367258638
Ni 4.2693037624003605 6.839565862378725 5.897687239861481 -0.26043192430265466 0.17763288942755215 0.333674940058206
Ni 0.7703437089371135 7.553216694350364 11.508275263938923 0.2044906330503446 0.09532210704277777 -0.7573811710738957
P 0.2895381050954234 5.505480753583732 8.06511768493125 -0.9064295639955356 -0.27097421859487525 0.01597606371328216
P 8.57538069647869 1.5439398729307001 8.02170852865918 -0.7108606589148532 0.1731350015571986 -1.013707557848609
P 1.8694204086821637 3.142198818775096 10.36790739074485 -0.36412477190763093 1.0371282507653945 0.5315645228522652
P 3.77541511741572 6.03364763529474 3.655002867333029 1.3527777007804571 0.6632296873004514 0.4537835100170443
P 7.065402673595712 3.9616041579887606 10.33719980367748 -0.9612786506249313 0.4670516878808602 0.025390415048646593
P 6.2043879663305015 7.892862313685746 10.126942776478925 0.23297845607739232 -1.2478707782627219 0.8464061322540519
P 2.367973497271975 8.311866751644748 5.809030268733445 1.2718547998821452 0.9715694910279783 -0.9902043325203463
P 7.024344722326948 4.090961111457722 1.5947524774830677 -0.39526443073522893 -0.07227062453995295 0.1312185638290708
Ni 5.2581025293606976 2.8970804993995287 0.582330473171198 0.5958392736709351 0.06749634307976117 -0.5936970305169517
Ni 1.3752605751158269 1.0485416115079516 6.831819812523551 0.10840439414803267 0.08034003181164874 0.9670638898481411
Ni 6.743284876257278 0.7691721742641869 9.150473146404424 0.28272390293163563 0.07091436762237464 -0.6440469437244134
Ni 2.7267288719975307 1.5705525124144615 9.159178299876864 0.6727566529542801 -0.9437594107942456 -0.5448969782951131
Ni 6.361144006170143 2.2225712193860034 2.6086768665375333 0.21798558221298586 -0.4765912519401792 0.627786516001493
Ni 4.117637028277214 6.815186008884261 10.581446703743865 0.4367219265490672 0.16682037219308044 -1.112449232095897
Ni 8.005803318342714 7.437012387093655 0.086775826333005 0.8042834920523891 0.03736969889770984 0.2843858640150909
Ni 7.685601920314931 3.9359949162572745 8.090202628738123 0.4395971912143332 -0.6990862919877444 0.8857280697821261
Ni 3.158253182811496 8.485255691161742 12.31482716834214 -0.5615453854850716 -0.5994753277616257 0.32336610193303017
Ni 0.12670924894967076 4.749560661345086 10.312207967950322 0.07143707289506407 -0.029068121010549938 -0.10230239501535285
Ni 8.675485441602051 2.5549941828288834 5.903442765527007 0.04683958606135804 -0.8023361385180311 0.3918515483989381
Ni 3.68595000431423 2.629833191757572 11.52919294320707 -0.3194965916752949 0.46329839148601504 -0.5356788021309549
Ni 1.164321056653337 3.2618110625417844 12.816417569046946 -0.7544755673913265 0.5172157103297609 -1.076242957378669
Ni 3.098691130651678 8.374339561248103 7.869427100417521 0.2924149049671545 -0.22122748618905125 0.9135659179300007
Ni 5.48551223435152 7.854118504980787 3.508092780932828 0.16806067235808475 0.45624019908765295 0.7986995702067083
Ni 3.0488105108584054 8.20304781342956 3.569495299600422 -0.17935732831782658 0.1803549163444055 -0.379660662759701
Ni 3.4446916024181347 4.376477489886596 9.308390777335664 0.09171150687338399 -0.6991431133676088 0.2298885042981589
Ni 7.243248145471909 6.1102674492432305 11.419380550820934 -0.489743473051421 -0.047621715643021215 -0.681715919030097
Ni 0.5597214811152077 9.25566629328234 0.30362725587646633 -0.07693923366021589 -0.791844494958088 0.03455434093610178
Ni 4.63382641429665 0.38701684078602805 1.7333542497020444 0.022893102548089603 -0.1929350670022613 -0.4129592769118307
Ni 6.230322634360022 5.838744401629869 0.5206594778077249 -1.0399657202141896 -0.5438304847038118 -1.2930100938035216
Ni 7.814615368247078 8.970836925927097 11.156240846229732 0.5643458310483442 -0.09198918601480287 0.6975307745751663
Ni 0.07700851758225633 4.874994419998847 5.946507512300322 0.32892791229152385 0.7222725002962206 -0.5539534320704266
Ni 7.818583761159229 8.952251468461535 2.620439219287625 -0.10748033967186651 0.21533914572907428 0.04263891771644915
P 8.466164015010348 1.794129418783982 3.57524992130401 -0.34050816092995556 -0.7996043414091648 1.737112886197692
P 1.8189250947703806 3.1329060900423156 1.6551886608378854 0.03652174907511775 -0.37405591497841384 0.11308303057062462
P 4.725081372037333 1.0200668104298782 8.199644396729274 -0.6907859996521651 -0.5816053894597403 0.5510825382805348
P 8.542901344010907 1.6924337006480055 12.360657134686814 -0.5048654162945241 0.323017717454676 -0.2630480217692631
P 6.285780699316842 7.876084780098157 1.3780782244796477 -0.22607067321396548 0.05730346170715937 0.3126114345196874
P 1.8629570808184108 3.2797004693143266 5.96788802008123 -0.6343438575040365 -0.9840287998372538 0.22808179010672333
P 6.868763833007988 4.062911172490973 6.120897137683773 0.21105517364173979 0.6636775734711473 -1.3605398612243795
P 2.4182880187959612 8.277263088620346 10.106673237921031 -0.11525869806570473 1.3505922630933642 0.8671757607012355
