# total energy = -381162.7708868418 ev
CRYSTAL
PRIMVEC
9.36495260687261 0.00000000000000 0.00000000000000
0.00000000000000 9.36495260687261 0.00000000000000
0.00000000000000 0.00000000000000 13.70655476408267
PRIMCOORD
 96 1
Ni 2.759851582782321 6.663697701696098 4.935799296540822 1.1366769942950101 -1.1765643174082512 2.522954626605126
Ni 0.30446210667634704 7.639029438350425 11.666526647723735 0.790816825024522 1.9751720992321016 0.6240561024247833
Ni 5.967769331082864 3.267319643752149 3.8702783821871902 -0.4151262026561625 -0.14208635978151013 1.0263247323919873
Ni 9.374598676323675 1.695337400851997 8.043527034073675 -2.3507673336731774 0.1356956257638179 -0.9792414057509393
Ni 0.9824303708577515 3.5422371974140354 2.581039983982963 -0.8394813801097606 0.9471275559355301 -0.24865061539701044
Ni 0.8522078930360244 5.835863971247476 7.497595239066509 0.29770700660402916 0.08867066316453116 -0.41562911043451
Ni 4.517203700910139 2.381338921523767 1.7371959302702602 2.909339752572854 0.17710529905885627 -2.5219935482434375
Ni 0.5575799232686686 5.916964462278677 3.6918329530413336 -0.2097742500467871 1.3453063321040766 -1.4806103788564307
Ni 4.234101178522934 3.0764338113400282 8.459466729097379 -0.7561141314360139 -0.12902001351585524 -0.0021270736453318203
Ni 6.940619355251826 8.679700450515687 6.70676805600344 -0.2939711937106808 -0.6634731707698251 -1.14320733921436
Ni 0.2096016905328894 1.968681642447689 0.7098268970265595 -0.3652784258961 -1.4716462276846074 0.20204371417174882
Ni 2.1379718937607395 5.7319504552564595 9.75895787759964 -1.250728302316175 0.6089557564482351 -0.7193820661223029
Ni 4.664551867871445 8.487587809290044 7.2335934743591235 1.2424907448977311 -0.47713221204531375 0.8758732884752335
Ni 7.431951602590389 2.354939119651139 1.2743687261881371 -0.029154767187085272 0.20673212078635364 0.38930049984231013
Ni 1.4302905074149248 3.510836510759576 6.5388357228427605 0.44774398869118376 -0.21482363954523648 0.9340781789507396
Ni 8.632997431026935 9.113709821918686 0.08437354202605131 -1.4401707827841455 -1.1120188294266977 -0.1934549440614733
Ni 8.155038336251023 9.200138971078841 2.423730316754926 -2.1083385308161624 1.6603443737873858 0.8124470016997879
Ni 4.651534583514244 7.343546448394715 10.537545067385826 -0.7956852088604167 1.4316689159607214 -1.2574828474311892
Ni 3.88265323078403 9.247254048489694 5.360592617917979 -1.0218774952539111 0.6411451966965861 -1.5960405695029931
Ni 5.137425793290552 6.084765686100508 7.181151611809871 2.1768514880858962 0.8099422330000632 -0.2148915166686944
Ni 8.412424698318173 4.07238717400483 7.119527413064766 0.4331810032753443 -0.09281913811526595 0.08085476666453817
Ni 6.7120395879204695 0.8158044486091786 4.4683233299012075 -2.8483066486199333 0.5647695488493241 0.18579048553768004
Ni 9.461224489492105 3.657220087585061 10.061447725221578 0.3089252439173518 0.004806420249707851 -0.2530402598242739
Ni 5.748666895959772 0.28534823806264253 12.40355498658046 -1.153588168228052 -0.029187420197233607 -0.10149661128460585
P 2.9067595969632043 9.061387830764954 3.058535513596514 -0.3447887905831804 1.9523823550310957 1.8653029476130845
Ni 6.528196199995123 5.979157113657222 4.462593851793484 -0.8304925463475891 -2.8185972944809587 2.372954668403494
P 4.257485465602022 1.5711300321976303 11.231534892774643 0.7462266971189728 -0.07739226203723445 -0.9044593276430424
Ni 2.4487853114090683 4.246575295619188 4.479644621310863 0.2938272119336488 -0.23960753135813573 0.1668931344125448
P 0.09015359087875999 6.99371863748588 5.681134348508942 0.1862604831955631 -0.7237246593617148 0.15489148196597838
P 4.278406770101295 4.6579495761650955 5.680585562276328 -0.6858736499522123 -0.6755082475574883 -1.5405600199371856
P 7.068750639118903 7.398743480050362 0.1847190110098062 -0.19952711839748216 0.7163815887330823 0.7262559104240008
Ni 8.141740103310571 3.472065606271219 12.056107746667022 -0.3019321004289703 -1.0668460895448013 -0.13786435128036256
Ni 6.499267860873254 6.737989872059898 2.4449756486202125 0.43428889162754236 0.2422567960555247 -2.9532770773857524
Ni 4.272375740514217 4.439624432122326 13.650659525754842 -0.11970053588714225 -0.20667452807554082 0.9427062869393829
Ni 5.907636969314812 3.7268110516558295 6.674255749454593 0.41936698021038743 0.5671737874154426 -0.15953540849589298
Ni 2.708690845772685 2.8650574622562828 10.381920155162007 -0.20373395738997815 0.050528090656538786 -0.33438867829577895
Ni 5.179886489172245 0.3042326653333604 9.7329289278569 -1.8575081341590136 -1.1025854519279397 -1.036429682036473
Ni 1.0726335959862188 2.5691811442840238 12.230783782320954 0.04169095198088304 0.5157517241897246 -0.172821841192154
Ni 4.1513992805672135 6.583852114336741 1.0983675497165464 0.9056942284914079 -1.7844561513683463 0.040709047683587955
Ni 5.276551531715439 8.499509394172577 1.0046702607077393 1.8981251363494276 0.3922161308272084 -1.0174670248910413
Ni 7.193444985317569 2.679874886084116 8.377665739598612 -0.44577040990458067 -0.13942578223021151 1.9135566404131497
Ni 8.847173900990393 0.7019125754364361 4.595643608857973 1.2523416695498821 -0.23822299230578328 1.9394985570898924
Ni 0.9438374004721188 8.428775905863262 4.355395110369009 1.150003279090271 -0.20896872342635625 -0.8659357176465473
Ni 2.8478915038197714 0.23961917366248622 8.498064381959399 0.5002657127389837 0.9494014395713715 0.4960784141305134
Ni 6.072450773201428 2.985387740461814 13.249482742285592 -0.7472983329165969 0.14756049552220393 -1.2426874342895693
Ni 5.192510445512899 5.866337527577214 12.056120857600906 0.065710454823932 -0.6436718197731818 1.2845092554213617
Ni 2.1102797284051666 8.081720120975818 6.642690239631295 -0.28823069168247784 -0.21681984403965884 0.9056512910686145
Ni 9.075463354785727 5.600017000562745 12.109892543444202 0.7096247296252232 -1.3663050458429307 -1.0396103937572998
Ni 3.1267985273637926 7.371257343655838 12.751303777973252 -0.45502663839552604 -1.039450728250984 -0.5855021534109852
Ni 6.140946037797526 4.387545929740742 1.8767018857778106 -0.22160775234660546 -0.12817489190674056 -1.3310212829399723
Ni 7.230942256228531 7.909770223074676 11.842436047658133 -0.11317199074000509 -0.5047512593141629 -0.5966280881208176
Ni 3.1371280702745796 5.207007392408546 7.405199678493422 -1.7845008885633524 -0.33488927208128133 0.9871601463773837
Ni 1.5520629883478005 1.5308981950763787 3.6027132529489294 0.014965620170896806 -0.8060146158108827 1.1738448615945591
Ni 6.9591525967934835 1.1189526524111981 10.621141318331556 2.3950592136120172 0.3355698430880737 -0.2594993851860563
Ni 0.8104158547824635 1.0889005189563339 10.051812125311416 0.7152179074422844 0.11266831163070919 0.7317616707335785
Ni 5.143578567263704 8.42020697407417 3.316602707730405 -0.5420355975869181 0.9037491889498952 0.3645798571671786
P 7.175211422264711 0.4591758089951639 8.43001114313428 0.6470885587642146 0.23633991635045748 0.8724568065945167
Ni 4.275428715118856 5.053703115482361 9.915678489298129 1.4095474014713336 -0.4667279859928542 -0.24748744832684477
P 8.115246651910194 5.039655686319912 2.2022866434380926 1.4688031018088576 -0.16036998858204637 0.09617648462327308
Ni 2.502240461848571 7.006445608307058 2.8949344710942553 -0.34465663588069034 0.09622122181827944 -2.466919490087429
P 1.9806313221885448 2.0867830618927785 8.113608721669852 1.9757020035936423 2.090326410509458 0.3190363642094247
P 3.3523440499960606 7.530920423516224 8.479560171771345 -1.1394954375804118 -2.8741498349352823 1.866619866652295
P 7.398724750144811 2.6904010930031768 5.430797922890785 1.1112454415957829 0.20591091043663892 -0.2782321857088692
Ni 3.9807417461490178 2.295200085899635 5.9836513544939285 -1.4872101435611356 1.2287430562943353 -0.7161908128785149
Ni 8.825297371308075 0.912073353649991 11.948826593658126 0.14641404062258656 0.17345921766583675 -0.6354288630380992
Ni 8.40787333126954 2.329091849992235 3.3217562412424684 -0.1980307363576138 1.9186582233057732 -0.22649464812526152
Ni 6.162822567479845 3.1944884060212426 10.708726102664144 -1.3031780354754587 1.159920538203983 -0.1376010703166469
Ni 7.436559159355672 7.940075210254465 4.297114199764566 1.4887209237787071 1.0756678016014893 0.7651469310622435
Ni 2.3055858185270712 1.7266631678842568 1.4399560751739666 0.7120685631800253 -0.2089458406082208 0.19096868730450983
Ni 9.313604738900324 4.365397816427949 5.011336069128417 -1.1073880155229057 -1.747089794904746 0.1793789255843814
Ni 7.284837559448457 5.3272065612752275 13.495062708389344 -0.9618255242673371 -0.45181635898834444 0.4380987522919358
Ni 8.854450469296543 7.213823122555893 1.5995002201341104 0.15974803872733132 -2.269368264469395 -0.5817637694144755
Ni 1.6916195146003357 1.1346389483092651 6.0091043596410065 0.39073080453093356 -0.39409097925241804 0.3746012459589226
Ni 7.958027824724074 6.40412930563238 7.14422653951346 -0.49389246222278815 0.20125361417028562 -0.8566504356898794
Ni 1.3439456428297432 8.157023706239315 9.64900396706877 0.14529098276173688 -1.7000236946548786 -1.4776489822352616
Ni 2.552858031597259 9.08663574344626 11.284853314903632 1.0534480709713405 1.3235967083411269 0.1668838784411642
Ni 3.0199444162014366 8.507450874125746 1.0938882928042803 -0.03480913725938521 1.0449035238354392 -1.3754226918734829
Ni 3.3406659538856784 2.1075732570532018 13.01771795451547 0.3712099608891865 0.35437412027877035 0.12724775210678085
Ni 5.465442629186492 1.4034411878090987 7.349139198191924 0.6782068774355738 -1.5118716508635575 0.1345705110204392
Ni 8.916371537044613 6.182470238401722 9.541804289149017 1.1980199161788658 0.10745719974341493 -0.4678140199681814
Ni 7.180099927613243 5.550261006469355 10.786208912438376 -1.59219548472529 -0.8320066689992703 -0.045692616941108405
Ni 6.612302840867087 7.254541937221443 8.80725672628238 -0.8420956778041562 0.3023959274392663 0.9191135872211075
Ni 8.344435141171925 8.457460756212981 9.769909253374683 0.13632888847244262 1.5806129220940133 -0.016217747410443035
Ni 4.116224517944444 1.4977088024419012 3.6725064999996375 -0.40640579206402905 -0.559384630388327 1.1110464382110996
Ni 9.242637126771635 9.01911443393876 6.66253738404728 0.1106566805173191 -0.696172203664743 0.6212140049902978
Ni 0.022504918013519497 4.095621621839519 0.3048020544620783 -0.06562663686087407 1.860533551248899 0.6038585444309859
Ni 1.5747355390159918 0.3170560951681206 13.39479965099001 0.0920146399360996 -0.13527396484536702 -1.991909980812073
Ni 2.745719869044898 4.842382956115265 11.912092566398325 -0.5940382159064543 0.20982464366874834 0.5018947637019743
P 3.203984468135058 3.6904750348889634 2.470716157817482 -1.3512628067978276 0.42025015414628913 0.7750163676571556
Ni 2.2183044586643934 5.205003292514702 1.2833188115551717 0.027538057519268702 0.07641318595341678 0.44763291703461616
P 1.2887767060324216 6.085037269730981 13.380339227410184 0.7681826325647738 0.6983488996010876 -1.3914144393160488
Ni 0.8601334525694776 9.022710575804346 1.7107558591007002 1.5090640062114333 0.49721381328653724 1.8422774332521885
P 4.963041007667919 7.353220444611255 5.147757209191894 0.4002120045484914 -0.164738035742755 1.0736358587731252
P 6.71047564080705 4.99414201583358 8.655497666564067 -0.10433742316751064 -0.37825118400668406 -0.1693721920806567
P 5.892353366386067 1.1204885046662925 0.6331223148279274 0.10224171698074648 -0.1961880267219202 0.08689094555628907
Ni 4.450412857719085 5.3599932609403815 3.189090447241753 -0.5288756631661924 0.2318209454341814 1.1533529122887944
