# total energy = -381161.8263614762 ev
CRYSTAL
PRIMVEC
9.28762193379459 0.00000000000000 0.00000000000000
0.00000000000000 9.28762193379459 0.00000000000000
0.00000000000000 0.00000000000000 13.59337350732945
PRIMCOORD
 96 1
Ni 1.5853970741709467 9.397401684754817 9.132096118719492 0.4103951157290803 0.08457181050480919 2.691987690178809
Ni 4.267560141849643 6.4995986096472915 0.4254055939472112 -0.37996405293273267 -0.43684122573575085 0.5662818717287925
Ni 2.300061011272915 4.507245802617831 0.6208663850722834 -1.5983339935228602 1.4103588416290356 1.2165984505120016
Ni 1.4140125855378096 8.518950533809821 11.486277960868849 -1.7476330690027257 -1.4381892335777424 0.9785523501037147
Ni 2.923715540467437 4.55938651248541 10.651835277974538 0.08353128505543679 0.0878437963878616 0.5265472721433319
Ni 5.864576031133582 5.668830110013332 6.32698165357571 0.04812899429674292 1.1687854447937807 1.7363520967722677
Ni 2.7183847934506162 1.027879701187153 3.2453774679928737 3.8933716377339014 -2.017638753036745 1.0651033958220817
Ni 6.584561775637425 7.343044713301423 4.825172248577763 1.0064609035885248 -0.06555104642793226 -0.9691665380134405
Ni 3.615401900759218 9.160251544790663 14.228320185059527 -0.6274407026263001 0.3586588636970533 -2.9262882075017345
Ni 7.766634577149042 0.342407688770754 1.4795571914653973 -0.987584378398996 1.368800815681591 -1.8468264860754515
Ni 0.7961284558874143 4.1898227457699075 2.477256764986947 -0.22820905971320699 -0.4423071339463286 0.486816272102297
Ni 3.694736767821716 2.2693654205867113 1.2092242356453684 -0.24808291581899855 0.18034643170397327 -0.32999774831693485
Ni 9.465944335061682 7.850102435998336 5.33282995165541 -2.3970551609961235 2.005485662613978 2.1786314628044545
Ni 1.307418547926445 3.344379803387324 6.7691328299759395 0.048204327619368596 0.02795097668697122 0.788029749197688
Ni 8.463605594354728 6.057396351326102 0.6535513843893449 0.7301465037276587 -1.2974997541437592 -0.8394135029863027
Ni 3.7498216538610114 6.878645038417442 4.266823633425614 1.3156566275584438 -0.23654380483114743 2.9816116626643874
Ni 1.5028394022769482 8.087809833282057 7.314675671924417 0.5052248565164719 0.09813232279806325 -0.023186722529108455
Ni 7.419899785291843 0.055511187888765856 6.084176280580142 0.9886017639199167 -0.694770695331526 1.2099639759146195
Ni 1.909442205499736 1.1310001681732105 13.23660184010134 -0.295571191207949 -1.682584673242825 2.2891148509687027
Ni 5.325150945791763 5.469768507841651 10.952480245692469 -0.981403960619897 -0.08263345583151575 0.4881689294754496
Ni 5.825057199554219 0.7039980320054369 10.314977872106681 -1.9837459569440419 -0.24946051289281554 -1.207374103700256
Ni 8.444194464389776 8.199382036281563 8.275509887469946 -1.253529776320712 0.08710691822183708 -3.200550609929578
Ni 6.732142089103016 2.599726134870605 12.128307121413927 -0.8477505620970884 -0.07740666021493765 -0.40236633188733284
Ni 3.659239476565234 7.01908317057057 6.923621276679775 -0.42822854436607544 -1.4100251124387007 0.37596341641377184
P 4.777134810106604 3.296836466406181 10.989454268845805 1.4518253363039382 2.34265087521363 0.0533403632943533
Ni 3.5897216259491267 4.581138123192547 8.367265091423413 -0.1473355239955914 -0.6752369961739726 -1.5340366169963708
P 4.554092567949514 9.068406250903864 4.113721828685304 -0.8924083100157792 -0.5161638720264788 0.2531772996227704
Ni 9.308890647163432 1.3118208807510323 8.28427740263115 -0.9851539145806324 1.162575716438643 -2.418299157976564
P 5.985993113445456 0.47251427021909104 8.057934339617818 0.08106045491744104 0.7709270280791304 -0.2548868261147094
P 0.4479401511883417 1.1210531250189217 5.72822073760849 0.44612625058210265 -1.2034323454436888 1.056982052266528
P 6.765336050105283 5.672963101800128 1.9442197060517754 -0.7125233913292568 0.34010552617489814 -0.8193491281362598
Ni 3.5505557240054895 9.062137106058726 11.145302423409385 2.6903637814221404 -3.720824133249056 -0.42734099955479954
Ni 8.966743940570677 9.418577462898401 3.339239104614309 0.6688290357650998 -0.2888696108180574 3.616858748708984
Ni 8.629751864183925 3.893937684323288 12.741599450751083 1.60100845503123 1.8543382210714645 -2.2419507916883905
Ni 3.7657406379566707 8.840441569090592 8.76882657342851 1.122151032764693 0.3468906674175316 -1.0715522367712191
Ni 2.3958814073726318 1.1831223027968036 7.275839480561523 -0.1545073591536823 0.35123480331884027 -0.5975423724049709
Ni 1.3497143784816559 7.242933435841033 3.7657452817676673 1.2383924064586413 -0.2642204448108095 -2.982226156319935
Ni 2.779618085249146 8.736726694296994 5.451798816809982 -0.09271449421660162 0.9333001631341347 -0.6903442841290564
Ni 9.440403374581482 6.249278621697349 7.075609495543148 -1.5146648973379786 -1.0195205649859604 -0.0009687916711725251
Ni 2.073842402394287 7.078588964678438 9.578122091015116 -1.2979548394033067 2.324231235055862 1.0822495685840652
Ni 4.070532528894386 6.485722902390049 9.312711574851273 1.2567971342180744 -0.1671168203875767 0.5276561889367944
Ni 8.011994974954831 3.640404179163836 1.0875173795273199 0.28445785490360687 -0.49780439568268453 1.3648827115741073
Ni 6.20566394881916 4.292952500377958 8.690026673392797 -0.5903270856034543 0.7834326167453088 0.012167488600469368
Ni 5.3019318908097635 0.223834476313076 2.0161690561055976 0.10380031971711802 -0.015474184376199155 -0.046353904674191135
Ni 1.1827136474291207 1.430618853660936 1.9231767409026885 -1.8404547782211529 3.364553053057889 -1.5518188806804563
Ni 6.934454358972177 2.363560482837688 7.4316198354845575 0.4489413514333946 -0.6669601008771611 1.028599644469093
Ni 4.3267687320537425 1.6329775616400608 12.075075115962195 0.03461553319134038 0.3149308266814834 2.9129698931262733
Ni 6.093590214232043 3.5478158755176135 5.672038983411844 -2.352002491631859 -0.39251437879391754 -0.5989299967811169
Ni -0.11398141214443776 2.1543753726938557 11.35336280252989 0.4424061214180381 -0.3219908188520583 -2.491631648122128
Ni 4.012085523693695 4.122273871016274 13.033762033302988 2.3869507255722695 -0.43661831109166743 -1.587096472935828
Ni 3.4487912498303808 7.937944764806237 2.3690940480209983 -0.2949824085840146 1.1623237483288371 0.21996533164717602
Ni 6.393961197101186 7.6149584223846265 0.5527231025111103 0.10956807543883067 -0.8558220262513132 -0.16609943486665588
Ni 3.767421697537368 2.144688382955365 5.507966639573638 0.5252442370611922 -0.34311217421170587 0.04159530694328321
Ni 5.174793633350325 2.579284078864452 3.429132140358221 -0.3473940894165114 -0.45899462190433854 0.63597008025355
Ni 7.644520923187709 1.9406671906395292 9.683810585482183 -1.1482472156311128 -0.2666660781378246 0.3075273351285607
Ni 1.7997089516548048 3.162816081050078 12.466034777462509 -0.10067000161825243 1.8450172007808545 -0.7583633324815068
P 5.566554816628619 8.292295406697532 11.690083680354453 0.2133066886800778 -1.3483397196137619 0.4258222489174279
Ni 8.557735643251755 3.8147607068346687 8.874148206826861 1.1211711853499273 0.9203875688375245 -1.1443319397371066
P 8.4321669939091 2.0726442991572163 2.7961565537317252 -0.46395813655720103 1.5492156387296545 -0.12295452404806566
Ni 6.240297491230311 2.2654924822157136 1.1208005017007177 -0.9892440254896059 0.19342511926480238 0.29668113644267613
P 1.6170957280323728 6.840556500624969 1.0943001298686617 0.32882841059918205 -1.4288810688029392 -0.9435876611030717
P 9.03319687592916 8.581790584213106 10.107420882098186 0.7539865435700499 0.7376309850301619 2.6103803616189625
P 0.6561769951267095 4.692338821312341 10.883561446694896 -0.2883458771041034 -1.6010015130526942 -0.1399032360872623
Ni 0.48461789920010784 6.187841002214977 12.380599800275142 1.5026385623010639 0.48849134581187476 -0.3127219919556227
Ni 4.655206908585126 2.6782622664417204 7.892856146317792 0.3050634469691004 -0.9898988854647855 -2.0659613514015325
Ni 8.875585930711347 8.271240367639855 13.256230300420922 -0.6832027879882685 0.4624059615787327 -0.8615244759527291
Ni 5.235692570757115 8.546330443444596 6.3664429018987185 -0.6693468559417827 0.895129051381052 -0.5680896143614926
Ni 3.308148789993411 6.622678176295876 11.89527604180358 -0.10307578284626764 0.4687447593125669 -0.2153430023838162
Ni 4.928532336211235 4.449337479492724 2.1422745299994363 -0.6971929316197735 0.10886924959959314 -3.6470352722923645
Ni 6.374642943356162 5.097019086782619 13.110074708169027 0.14771758992535852 -0.23255268139388335 0.9839876621866731
Ni 1.6091733864725144 2.4503997484703675 4.474014691127593 -1.0614375169347205 1.6941734065216887 0.2439958902338185
Ni 0.7511689353446686 8.690084256649154 1.4645093863126628 1.6008729578946301 -1.550708421225097 0.19346522847411843
Ni 5.392170426091807 5.156701345708352 4.079574957666575 0.6031265513609677 0.9229445309314233 1.4499797984547673
Ni 7.639264129139784 0.23324283739178228 11.471475348936725 1.4757929028631294 -0.5491346705255445 1.0421786687051084
Ni 5.98029980116387 0.3880870000179419 13.283512690024773 -0.08845854715372507 0.8141570424123592 -0.1955550211236116
Ni 3.784241580966328 1.9478186595739853 9.75187306573202 -0.27384845481887676 -0.2162238623268728 -1.2958007691747813
Ni 2.815328991811462 5.819558927334481 2.539038026483052 -0.19419953553698166 -2.680598731615577 -0.05248341461069671
Ni 5.870687286404846 7.658498794286873 8.639527086331347 0.5544887357486064 0.5592295928677015 -0.09143768438670705
Ni 6.452640392851695 0.6388212159087642 3.9108002908134156 1.6205544954839572 -0.005529928679293703 0.9622183888303815
Ni 7.4342120107827485 4.042558211452072 3.198670016991083 -0.17111488580337628 -0.2891076949707924 2.6828206789675604
Ni 7.500321304127498 6.891378368169571 11.774730138434633 -1.143144861407541 0.6618230367609118 -0.048526486845477716
Ni 1.4914713529577612 2.833848510065105 9.583464331185374 -0.2546824234133872 0.36547897194268025 -0.9694789270475368
Ni 1.3872828094425316 5.185019305164398 8.840151795284417 -0.003881851552909443 -2.049311658659993 -1.032074747501887
Ni 8.308028638353335 4.083423748220392 6.0044921989307145 0.9085203850862933 3.307819090700954 1.0011865425634627
Ni 8.048123824506822 7.475783406822521 2.2837408019071668 -0.22641442970662945 -0.1509612936736368 2.3840109262176554
Ni 2.193587712747457 1.3292537472315176 11.135759391811783 -2.473712344639546 1.836175691229825 -1.2609708059797897
Ni 8.883313232209355 6.3604050188412 9.716706413818482 0.30024082876947644 0.08001041638637188 1.7788444616085235
Ni 7.851829933688997 2.168046752267257 5.404807164575211 0.9614434583375702 -2.212477207709306 -3.3198258853538434
P 9.086879331047545 1.6941922781946048 13.29775804463733 -0.7062846095083966 -0.6424119792241517 2.3550528484224085
Ni 3.498396438893925 4.59594259264907 5.615137438510756 2.3556884251238785 -1.1421084497232266 -1.44694589672445
P 3.0714816063728834 3.4951550588184377 2.9983443694661824 -0.7765664857530948 -0.1474136855316945 -0.03861257016587544
Ni 1.062225327316527 5.060528019972908 4.848403377468354 0.27888370324993905 -0.5217897028536884 -0.29791552307040947
P 8.634915782011921 6.080429653868245 4.151484370945829 -1.1327609470700555 0.5296850464413652 0.015034525735619267
P 2.0953711101735975 5.465143272089236 6.676222245846567 -0.9048452502275514 0.9958077947500529 2.348159206626369
P 7.349285995280585 6.183132177864627 8.32795337381449 -0.5030234779897789 -1.3795385138140692 -1.6642164551482823
Ni 7.382674996344701 4.654055243458019 10.788258371140177 1.330030894002245 -0.985374772342187 0.25177450573797283
