# total energy = -340872.26816186146 ev
CRYSTAL
PRIMVEC
9.26446828004644 0.00000000000000 0.00000000000000
0.00000000000000 9.26446828004644 0.00000000000000
0.00000000000000 0.00000000000000 13.55948579465368
PRIMCOORD
 96 1
Ni 8.965402069669524 3.450931088811185 3.7962354275712125 1.4836314250709417 0.04997041838085587 -1.5020793473634841
Ni 2.940829460181382 4.310988745771212 0.9490706690899791 0.6438757082538717 0.07728813235920237 -0.43737858629645965
Ni 0.06763154557138436 3.286755444769253 8.45969550483598 -0.45895631246723545 -0.2905570258228093 -2.652792765146902
Ni 6.33433010954694 6.014353900872474 11.535027443306689 1.094725846674205 -0.7478279801678218 -0.18225753268375708
Ni 4.563741971929553 7.409962681083555 11.261492161693527 0.2151828226568681 1.1041070307787888 0.7349765781264503
Ni 3.6595669165762255 0.49357011126461886 3.0153445057540726 0.17627071897270288 0.08496647484006657 -0.7840363117675787
Ni 2.208538086556509 3.0087750712306187 12.482591709839179 0.9401387833225228 -0.53618916610847 -0.6497259963870616
Ni 6.277724207786532 2.1292527662184444 8.651060510659653 0.8199021724262524 1.4388114405427737 -0.899506097402825
Ni 4.100175767938463 4.970628158413248 3.1427087111618293 -0.010183882511537299 -0.15133307519075873 0.23224826277958707
Ni 4.281981695294642 9.071823017872767 6.775404037221514 -0.15254303633845986 0.8934979435355321 -1.2859483018607336
Ni 4.5591931179583 1.7905438024933156 0.6211696341690554 0.17376492183171363 0.1871112612316326 -0.23983096022285147
Ni 3.579836901756246 3.2111203249702394 9.723195745385375 -2.128286177582683 -1.2256695595753342 -0.8747499735040677
Ni 3.252671465624156 8.58569783339287 0.690528076645209 0.5267321344606283 0.2907372601544154 -0.2703178159577989
Ni 3.1907477590175164 6.085708836283058 5.406777094700615 -1.1456599145199107 -1.520540382282149 -0.9895546147514893
Ni 4.449316523051843 2.0977165158759843 4.588366928865587 -0.33451029147530775 0.37808406230120045 -0.7113139444021879
Ni 1.8136864444896332 1.9694592157170487 6.580676029378359 -0.5242373930632326 1.4618814349883598 0.4769152109385013
Ni 2.158055998390803 1.687986137601708 1.0257721291987512 -0.6733518633361177 0.2683236683459056 0.8341399132921893
Ni 2.6513148235180815 6.3914270281311305 13.044645697765521 -1.0944635941517538 0.3695387438343507 -0.4340950304491814
Ni 6.25155208463217 9.131495458664713 8.899930998122775 -0.8630008033879395 -1.739481643540185 -0.46723012244025336
Ni 6.698414452146335 3.486108275224322 1.4371562150776482 -0.9649183042600479 0.1766335016287603 0.13598898863452064
Ni 8.428943028517894 1.2546498939124529 7.088994247846316 -0.9232792885630229 -0.6558930444297221 0.7706159245966147
Ni 8.515593601212673 8.671811066922004 3.5608160217391767 0.6264287164220179 -0.6321640762438984 -0.41766439569698394
Ni 8.83243841957699 5.405205840864516 7.676066006167714 -0.8458032085627303 1.444280434077145 -1.0574836744932947
Ni 5.473271890002605 4.1804616508608365 10.214699880202765 2.284072660559105 0.129729380878054 0.2558892992372948
P 6.311270847765982 5.1483299262800895 3.0476978822070513 -1.1859326459970285 0.05803931143191939 -0.6869031196579911
P 6.862590096188266 6.450311989111352 6.404090629950492 0.9119430376145972 -1.3702195504059886 0.9107762710000057
P 7.010988350590593 7.91073499006152 10.586324573611126 0.12245418737287943 -0.41932172879474877 -0.17060246494333198
P 4.27180930902084 7.8317924550532645 8.395952256640838 -0.3976614702124958 1.427171542311 3.340584972278066
P 8.661434862343992 6.442650273766695 3.4881371937980585 1.4903628302575043 0.9984030662810546 -0.7319994977759974
P 6.995470366065441 8.998012998343278 1.97308162285098 -1.1464687835744514 0.1566506307489302 0.22464036852534214
P 8.663750979437298 3.0233851378551955 6.070880128204873 1.4480339875823063 1.7738788900731322 -1.401539957785825
P 4.064090663624749 8.090354502881619 4.823475048560282 2.6170366905932156 0.33104881528926855 0.17748556521641046
Ni 3.978940934806432 5.9751744641221025 9.341142966376111 0.19764301400089188 -1.2510118949948648 -0.4939803939509041
Ni 3.464698088813798 4.835311333353916 11.377222047718186 -0.22936477058420496 1.3249830471656923 1.2257747176946308
Ni 1.0267717653362223 0.5049894949814567 10.407339676874594 -0.5839885449799362 -0.018594989393367976 -0.8619247967149413
Ni 6.103746756205728 0.18587210252518832 4.370615790668129 -0.7052535971407209 0.10666787107290016 -0.8074058397314546
Ni 8.844973245285964 6.7005823377456695 13.227142754462342 1.0842820256330616 0.4778693473216544 -0.5417090674854348
Ni 2.18754480122278 2.3542774385357212 3.6581865107886147 -0.08603888196863892 2.1267874815499694 -0.10652131819270685
Ni 7.250178395050533 6.874485673579487 1.3845590487823345 -0.2840513634938076 -0.36019741182876674 2.0182167370274016
Ni 4.974954665143546 6.4206842192537765 0.13018894181475305 -0.33621313309902745 0.7248950255207322 0.6953695052577895
Ni 6.562041477692453 7.0792211601594 4.297773908083642 -0.3475105603897176 -0.05262791060836098 -0.5332941039488622
Ni 4.207708452346492 1.1204911273997726 8.859117309151367 -0.80124239123322 -1.0832214455790312 0.39434037625906276
Ni 2.5222144567371823 4.778964836707957 7.601162779370185 1.2922243646774325 -2.0741444014329566 -1.2813591398281545
Ni 8.01784150892438 0.34900642032196894 11.515149599965094 1.1370562320112998 0.16709805133449931 -1.4014057462008058
Ni 5.2910397971012575 4.7102595392521165 5.462520474455476 -1.016662526711875 -0.2437773464651092 -0.7899171960283881
Ni 7.714133706713299 8.371595969287627 6.005116299457531 1.0647321285255922 0.9301127665450885 0.8253074026022238
Ni 0.9805605970905729 4.555811587002072 5.580542389955673 0.09349071026099383 -0.7541325822296109 1.3247539618740216
Ni 8.684568239871936 2.233209365834409 0.9030031001041146 1.4290592462520164 1.2702938831529282 -0.0007993559728437847
Ni 8.63052859585091 4.863753251259718 1.732183210423018 0.40679171464853814 0.7147538233216724 1.4005523970615752
Ni 1.3678153750914037 5.483750003732723 3.5414532828391345 -0.07637564784726202 -0.7821738046375433 -1.6605929994630821
Ni 8.690312210263336 9.157760226502807 0.6969205598227346 0.039254831735564655 -0.5182130412460237 -0.7236205296836828
Ni 7.644085061343339 4.99435446191708 4.69052436872347 0.3283422149913829 0.5980401379769958 2.2493691956396487
Ni 5.439086001705403 4.296517646172233 12.912197152114539 -0.25288882184807415 -1.0738364048197055 0.38619743543695423
Ni 0.9991729140523832 5.3130429094876686 11.437277111053948 0.8728255027878452 1.0768847047277261 -1.9806734886663049
Ni 4.362313900558881 2.2651161949117977 6.813289227740145 0.23570511097993602 0.7852262183106219 0.9594521389391542
Ni 0.3280724275858284 3.1538844393604513 10.60655539319774 3.346278680228734 0.0969033354869686 2.354336024861042
P 4.842917461888334 3.9998693688615488 8.077168385046006 0.3376274969480508 1.086869840964896 0.26654060830355386
P 7.853276757210774 2.352211462088492 10.079375643568733 -2.798339572673187 -1.0712935837931936 -0.7458176346060124
P 1.37647765302037 0.5794915702984252 2.7928064167481694 -0.5469155513870387 -2.2902947302094168 -0.03178886237582267
P 3.0668262300572504 3.65173844080085 5.40787586064968 0.2572627825460537 0.7218747506371697 0.11969050858481321
P 4.900042173877643 9.223491629610844 12.703624322734436 -0.5208862172028126 0.16389831345027903 0.057767031607139224
P 1.8089800945560346 2.1657640360773267 9.077981110000449 0.34305843815563497 -0.9119967736706681 -0.3316445398917385
P 6.176139312074113 0.947680998833995 6.387535024967538 0.5791582134708284 0.47332132293965573 0.5289484253856568
P 0.25865006027789944 2.1207479842518233 12.5369241110608 -0.6734688485299563 -0.7358450967743327 -0.002776791414188766
Ni 6.705631473009078 2.835798182234123 4.623160566288073 0.04668223454788734 -1.2959594062398325 0.08867683381211824
Ni 0.21246297965002048 1.402316255313296 4.641439362388447 -0.4704355167514285 -1.4974567609898084 0.7407481905029049
Ni 2.357955432479892 0.15566067116009957 5.13981773273877 -0.7660478456099582 -0.09707251407498121 -0.04190615331548267
Ni 9.039943982200498 6.79458889832879 9.941910388293648 0.6046859254282877 0.19332638890340897 0.7723030824910506
Ni 5.042511168521107 7.868998560040137 2.442199096291307 0.14590110554191002 -0.5102012266851407 -0.018506286334303613
Ni 1.574440813219455 0.40753469926982183 12.63617991942419 -0.4026879768928097 -1.0163455096920881 1.2248162104361036
Ni 0.4868089022458388 4.336679116570166 13.292892686507125 -0.6652932546976993 -0.8697939150503731 1.2043021496431516
Ni 3.265845539650883 0.7246018648750955 11.077801841470233 1.173056818475625 0.5898182642878359 0.48318098934255493
Ni 8.553105433655864 8.71453879505932 8.89267691938654 0.42106673651031357 0.7131407131982814 -0.8433827720466959
Ni 6.683943352547356 7.890279043893437 12.917824390204435 -0.000996302474998284 1.8593762977160042 -0.6928835056111422
Ni 7.7218880667416885 1.6464164680110447 2.8282513462972934 -1.1420374872759753 -0.9139775515461228 0.49736987924842735
Ni 4.794705168474068 6.521203701103275 6.91960919323812 0.5598991081309002 -0.714505454756292 -0.0923177729988152
Ni 0.8749447311889634 7.083492080079457 5.357678191663031 -0.8103286698052045 0.827021557079853 0.10778990049248532
Ni 2.1475871491290577 0.17939253334495428 8.176817933315258 -0.1176930185388102 -0.6107334171739482 0.5713952816959578
Ni 2.612459643160773 7.485838677060272 3.5797044198585084 -1.0129740221166943 -0.011115907407503437 -2.4942616295458078
Ni 2.3007566047435972 7.062748935391805 7.389188037203433 -0.5012892689074915 1.1083046137999042 0.7318912543329074
Ni 0.9078002418277707 7.581401668330095 1.684223836995341 0.6148039876988961 -0.1979597739103623 0.42851393681697814
Ni 7.807510283447039 4.781447714231981 10.061586011398465 0.6201678231139707 -0.6075629898657665 -0.7604032457296711
Ni 7.6378222807230385 3.4153833236631175 12.02175852401819 -0.2547883528636322 0.035963048358170324 1.036921534071227
Ni 6.6325070241392075 6.509206214559947 8.829924042860497 -0.17513814803015643 0.3205132058652673 -0.5705463034321012
Ni 5.604095447900924 1.3260974740067688 10.879141993249482 0.6588454421898265 0.33584623667791197 1.1253158036459199
Ni 2.607669913011815 7.806213257874788 10.082060486503291 -1.4063980572090746 0.04581114479684368 -0.380976296247331
Ni 6.895024999962929 1.345034047361642 13.171074191867582 -1.488668987494849 -0.05931303593802044 1.101196284889897
Ni 6.890754080042871 3.799515975822172 6.889398688319869 -0.18028961032410887 0.5879269608023939 1.3453816654267023
P 1.1958019908057236 3.5858032193886027 1.8825177387153502 -0.6384162278011973 -0.1068758733186482 0.6938101311904695
P 7.36304741324154 5.1502384067649745 13.514346832713361 -0.4378925498184007 -0.25111373222552236 -0.8119466650246017
P 5.366591536684911 2.2727686457880822 2.6706627392687254 0.07357468806335717 -0.8575755186073103 -0.01029341150620808
P 4.274310715481612 2.8469989244973526 11.870407683545318 0.2651108178355628 -0.9359661400020719 -0.3319718413241702
P 1.229858176545701 5.312181313928958 9.084475502330081 -1.053532917375663 0.6631132163272452 1.6861579924163799
P 3.2373758283399603 6.43609103015845 1.5835042426289814 -0.18024127358467668 0.5819501743936687 0.9524327701985275
P 0.6663135356581091 8.977214266845387 6.723199684385225 -0.1912481662181416 -1.0949973551680368 -0.9710002487880695
P 1.1002945863461406 7.5614645323909135 11.875736605753596 0.20171101342267841 0.3503398023083966 -0.5304430076533122
