# total energy = -340886.88653020683 ev
CRYSTAL
PRIMVEC
9.08793891814829 0.00000000000000 0.00000000000000

0.00000000000000 9.08793891814829 0.00000000000000

0.00000000000000 0.00000000000000 13.30111722965755

PRIMCOORD
 96 1
Ni 6.266115826633069 2.524838501783441 11.537509462589313 1.2091543355291305 -0.6057501050267438 0.6767395488614281
Ni 5.010162644403837 0.17554808422466828 5.866324662952034 -1.008316982960657 0.614186151609239 -0.6176586835388717
Ni 2.828339315630962 1.6172987283841977 4.886125907734839 -0.10178740305214727 -0.04321613037615783 0.7554474443862925
Ni 3.6458903161616534 4.469775610238031 4.661362998162528 -1.016948690493726 0.8316171468703355 1.2739330225674126
Ni 3.567161499825533 2.935413413988594 3.0304605337546047 0.9188544200224498 -0.18302886363214282 -2.058337259197371
Ni 5.003573888563634 5.009072091713045 1.767917686891261 -0.612832722905138 -0.6128136967417447 0.9477276514133743
Ni 5.246594467767627 2.977899529234048 0.6922683074124625 0.5424143210825755 -0.7218490396055568 -0.29215188111375495
Ni 5.93509673322122 8.178863454831104 12.391414037067571 -0.7012886989557019 -0.06115420291181726 -0.4019009622151401
Ni 1.8653722017221954 6.618655159809887 0.2088544721953767 2.444406139476261 0.766149404184829 -0.3028700388622074
Ni 0.8298697019671006 0.4027165712740851 0.3508053543984586 -0.03039352469019282 1.2397216667930262 -0.2956382970004586
Ni 8.051150646800226 8.955400586248912 6.715588026937059 -0.4013260635482766 0.5945730053640018 0.8427924467608647
Ni 8.902127087303704 2.596678660289389 1.4371457854226584 -0.03968549151508004 0.3778349224048719 -0.24983949349878906
Ni 7.189223239693374 0.8041917300684849 4.739667407743149 -0.5310549302056984 0.30676628859282007 -1.2338014446538494
Ni 1.0312266244132797 7.678236154183769 2.343085172748164 0.3607949362034496 0.7593899739738084 -0.44154377341774276
Ni 7.965769459050271 3.9931768205444884 3.997398168251764 -0.20156548898374962 -0.9076750063668626 -1.6114949563848504
Ni 7.895456074311432 4.261025649342188 12.198055409814444 0.7063200907320222 -0.35317675753655947 0.3419819172620046
Ni 8.281457199217398 7.422974121025631 8.784710005467815 -0.3313321508576423 -0.5908508193174082 0.5241510039970134
Ni 7.0594292936109 0.9362849247407127 0.1200889359283305 1.1046387349125426 0.6122318560963456 -0.08180838882705911
Ni 2.2390137294658468 7.098425640245818 9.275307856535495 -0.33403952248647634 -1.6078743289131276 -0.973524300761504
Ni 0.085788327421183 5.158168820422544 0.8881052156554141 -0.7062020770969193 -0.8367488116699461 1.5801997458159946
Ni 6.615447117311139 2.0772393257258863 6.810437938424817 0.6031985422494837 0.7642519300517999 0.052818172242296124
Ni 3.4913499119372826 4.352241293987881 -0.10309267224233118 0.0649496653985075 0.9423062232874869 0.9316472009117439
Ni 6.074696565581735 5.640992848392694 4.480042255027932 0.4757705558110968 0.5772044321785672 -0.4545700104740817
Ni 5.5859290254467675 2.966285143077109 9.352281791833349 -0.3346383324127398 -0.28139361415598635 -1.4461187728374645
P 0.49209826981142907 5.759681332907265 12.129781358607387 -0.09754122618128362 0.24482095723827516 -0.5467075491412907
P 4.340626907830943 6.462206288376629 12.591742204808769 -0.7213839270436803 -0.41558077369507784 -0.647377293649227
P 2.833355858008607 8.703610145823129 1.0296407790420858 -2.2564217316110557 0.024364801997609653 3.6020355676532225
P 6.496177004694812 7.6510268645484985 5.611475222228579 0.20859179970291175 0.5040136098171901 -0.8984773990279945
P 4.756409209134629 1.3874193091042526 12.600773798676348 0.9164535238904411 0.29933117247101354 -1.0651836142407138
P 4.088209399607956 6.336501914884627 8.17075701316288 0.725498720543002 -0.6143671572717936 0.1370832501399639
P 5.052539704380212 1.4034140819025411 3.78158778747695 -0.3800908083185841 -0.8936121005158932 0.1386156276240903
P 0.42646244732218036 5.852441927198247 3.3774598592621974 -0.7627023261764929 -0.11171648924040116 0.24735477940372239
Ni 0.9039173208779946 -0.0920335591637874 4.606669054337563 0.22265676243641008 2.0287510608998223 -0.6851655681415942
Ni 2.163520219445744 6.8950920910475775 4.506205522873951 0.8200296991430522 -0.5599487304219131 0.1516341513709453
Ni 6.232017879167627 6.09259980558891 9.1515546635661 -0.6455273849246818 -1.6408546404938902 0.09581781573227369
Ni 8.6104405942731 2.5519841758450816 10.280101301311785 0.6763268868040416 0.9856172273702961 -0.46498426382887015
Ni 2.4286335785773727 5.536008976025746 6.68101841543285 0.2847514748846257 -0.4552824631600739 1.1082254238225366
Ni 0.5357458236725763 -0.03656804931008668 9.226506532416444 1.3663526112514146 1.7027696328311321 0.5347341788294984
Ni 1.8293930508651368 1.6095648922186616 11.186891319736107 -1.1296218872204415 0.3686085187105974 0.16098808178201954
Ni 4.205471077685407 7.092881997400956 1.3268054817561028 0.5575110675146978 1.6124159255372232 0.20367122247284275
Ni 5.950200887988694 7.951146965054563 7.740279514350766 0.5162839425441109 0.7418432233392966 0.6992942942334924
Ni 5.653343357615917 3.31987867718836 4.714128481312608 -0.20529487411919484 -1.763059173749809 -0.23611391638258045
Ni 0.753763664852336 7.631933104520542 6.4982472372195 0.2678523851364419 -1.330352796118038 0.7260129411752594
Ni 5.167974706700586 4.722547548085526 6.981131245587641 1.1224775628661765 -0.6585867892118012 0.46014364790711726
Ni 1.0990408259023863 7.701882971695784 11.315021264171214 -0.05222501874298748 0.7474515706650096 0.2876275108808401
Ni 4.904015515833379 0.7673155996232495 10.479697889956244 -0.24453685033895306 -0.9070764535509152 0.1782340133466608
Ni 8.290872304114572 7.471003879115946 4.288985602746287 -0.17912927146742055 -0.09814312143134066 1.4715400411240462
Ni 7.496222910090519 6.302085889551037 6.931065789141181 0.899645965414799 -1.394366065745205 -1.0815196323965761
Ni 2.3647635426532987 5.672082688019366 2.273373409577079 0.09577976340548666 -1.3228780850075477 -0.26055842257819
Ni 2.567333704967984 5.674518255695469 11.261404241128409 0.5379951089689574 -0.48636812882128494 -0.4713896531345817
Ni 1.2893786222020174 3.8654549245745207 3.4826445750830324 0.10996813909072674 -1.6765711200588933 -0.11780383308506163
Ni 1.8706977340288984 1.3011656792016648 2.51188909737419 -1.653418850312146 0.42333753482236125 0.110014676057946
Ni 1.0265099840256027 3.424835285738037 8.109771489105952 0.5241186080971812 0.12823042773502433 -0.8229497010033247
Ni 3.991295617152872 2.700699211112803 6.911619417076536 -0.1407918093398027 -0.07963606376608866 -0.7289738235757962
Ni 4.490132593799489 6.554676068616733 5.871552045516566 -1.199810432420385 2.803605706168133 -0.1334680219848798
Ni 8.84116519188841 7.581304195850505 13.426147697175656 -2.3756910934980504 -0.49067652638865167 0.47446649228769255
P 0.7620464125389041 6.041689170807086 7.95417506635933 -1.4239046986342703 -0.9079508857360685 0.20096822171938292
P 8.750285800989044 1.6995354892090335 8.100234605824973 -0.3303448472437085 -0.5847367359998704 -0.25797986321773636
P 2.0970692088201277 3.414184221124631 9.993435894628373 -0.8485224072661064 0.39358730014312215 0.8057199673885994
P 4.111901656815419 6.163349411404066 3.362070343207299 0.811533488746583 1.1815304031642748 1.7780849577346798
P 6.926563624116027 4.306765246781839 10.23840220159152 1.0197828175084114 0.6389790422832028 0.5402954749673597
P 6.555312224353028 7.997640861438679 10.092994267358625 -0.11322778367860499 1.6294510266426387 0.6683518390183651
P 2.6517333952962248 8.546579646288116 5.954883903001738 1.1504861322639606 0.19246429801342982 -1.054280851285281
P 6.886040503714001 4.145136250067318 1.5213955247559152 2.4068513211509392 -0.22018258986430467 0.10184808108675364
Ni 2.8671175517277208 1.744975184658716 0.3402069998317746 -0.07782832113338854 2.8766052384543106 0.7611120988712375
Ni 1.7338697230908138 0.8911969325338105 7.287322998199692 -0.9799744272622218 0.6978310794244046 -1.2993424637794526
Ni 7.1042782730197365 1.0148410702341242 9.39364827298292 -0.635494683279028 -1.3254766989726592 -1.0917688209284102
Ni 3.1633752781205624 1.5751943065805216 8.921192674720482 0.012835718312087572 1.0717854358279477 1.3408876342110907
Ni 6.66973846543442 1.7395860367783837 2.3597379123365636 -0.07834562708943928 1.665382193321609 1.0409689646677234
Ni 4.439058376114045 7.3854136687669225 10.549262428514073 -0.5725800460326784 -0.3284728270319762 -0.4657386254963915
Ni 7.861630765018688 6.816999430447752 11.333802399094477 -0.7266338625887099 -1.267157908627108 -0.29476900702162784
Ni 7.685388362247549 4.098178868789615 8.1140809898224 0.1845512138139402 -0.3866502067036567 0.4259670020254083
Ni 3.0675156965999117 9.056403941294466 12.355234951550534 1.4130839538696824 -2.3679191628621155 -2.743988508726132
Ni 0.2883857535531384 5.008117858108602 9.879577649740101 0.18015128497403168 0.3965834066569686 0.4703311299630803
Ni 8.86399409488233 2.1877941047549645 5.93232491179879 1.0939056647657548 1.1119108430939237 -0.3182436931048003
Ni 3.888601905436589 3.1819146738640334 11.158240682961175 -0.031674962505777705 -0.5852095618712309 0.5523038122821455
Ni 1.367344051654583 3.770413257571964 12.393582419334429 -1.074961262452768 -0.9534858940533901 -0.5068168835939401
Ni 3.7290540467736624 8.432889528273009 7.947896209242093 -1.0051606967198625 1.3444663527012843 -0.13013021586089846
Ni 5.901934843482041 8.003566197725318 3.389350518767471 -0.6314783630307833 0.38256986598669596 0.09395582282287045
Ni 3.453498645627697 8.898391944337739 3.3241890866987167 0.6557323504821417 -1.0448276762921813 0.17639798857918654
Ni 3.779164942915573 4.280264816395584 8.989307686993465 -0.7665870059428798 1.534346692037622 -0.620226701376364
Ni 5.566526275489753 4.828903699255053 12.052980094152241 -0.1687625835211158 -0.39645536571953655 -1.2776732063361351
Ni 8.30378626556137 0.10389422847006359 2.4840500135599877 0.5767557746769228 -0.3265879513044375 -0.5060861760755027
Ni 4.931152101955929 0.5011653066414588 1.2512038252608297 -0.26343265880219147 -1.0334747131732072 1.0495752182794957
Ni 6.657515187358456 6.139875264734759 0.3213059041125246 0.46435280089245834 0.09465953375811441 -0.477518648850455
Ni 8.30678528546105 0.12622511240185566 11.363902562154257 -0.19402470052201426 0.6551877908325813 0.2553961616509602
Ni 0.4116445626360388 4.990250969857787 5.480778843794474 -0.13372821762480194 0.34680299279973176 1.310058821755692
Ni 7.448511229868353 6.268078821476495 2.5376270496707996 0.44714569298555246 -1.113678733627624 -0.6744888051540384
P -0.08968977967249277 1.8266303173817962 3.67144105691301 -0.00887699077465568 0.27032938592202477 -0.10636705200302972
P 1.9601684943693236 3.596988115918705 1.275668557290939 -0.011370189510154612 -0.4991542248423597 1.0594564819489496
P 5.188477097287483 1.252636084461404 8.07625244336054 -0.8501617426417424 -1.9070962294997864 0.24181482342209967
P 8.828787418847915 2.089253581202782 12.377142337520734 -0.3703450417857299 -0.815420739616131 0.9809401336096009
P 6.738107031208013 8.112794137647265 1.2803179469293506 0.17789874149442908 0.09046503606079259 -0.11291925129925069
P 2.057791136073422 3.369407945228514 6.134262553552815 -0.20272222829601216 -0.18903881727164862 -1.1749653483522473
P 7.123408384804053 4.210096838682184 5.991780935706881 0.675305901738695 0.14684135796799228 0.12952137863230595
P 2.6437632727143505 8.934307479621168 10.211826341310818 0.3425732709891003 0.23441133186917693 -0.9636538357253276
