# total energy = -340872.91057583096 ev
CRYSTAL
PRIMVEC
9.21945402817464 0.00000000000000 0.00000000000000
0.00000000000000 9.21945402817464 0.00000000000000
0.00000000000000 0.00000000000000 13.49360288692624
PRIMCOORD
 96 1
Ni 4.16113598790516 5.560160460992467 8.253618390294351 -0.6591205502280842 0.36739907178352854 -0.440798410611286
Ni 0.40700846610505254 0.3353613239032075 12.650374117988749 0.8723187383547557 1.4857829241963056 -1.4693867422264695
Ni 6.0789114743713375 3.4436504259561698 0.34903653989383926 1.1332566557595516 -0.7782734411418726 -1.2346792192731124
Ni 5.041934956486695 1.4547837303591609 11.391461373814021 1.1416281676526985 -0.6285660744799949 -0.6600767434937663
Ni 1.9835101928729764 2.2453980007539758 1.6966312112673052 -0.7637176548148847 -0.5242199095617359 -1.8165486610275163
Ni 6.747414077675263 7.835964220754805 0.810999404944054 0.4815141431630932 1.054138926390778 -1.1500660140074064
Ni 0.5830954261354387 4.053379010558363 5.7392206949101165 0.673668366135272 0.5567155681965962 0.7092233804217463
Ni 5.612075205982184 2.0487009514988492 6.813540610873406 0.762228471863868 0.547304045074709 -0.1825429251346598
Ni 3.471364104421645 5.175358893530059 2.684633068015405 -0.6611036420963841 0.5269833312394859 0.3756230023552176
Ni 4.649379828282615 7.932049369446482 8.682606956475762 -0.2947659216978343 0.4090923377572568 -0.4741697869828802
Ni 8.246930598425138 1.78649046273086 6.460318438902612 -0.12302342961278813 1.7279371332356952 -1.098399181760734
Ni 1.4873744999451404 1.5648455711844573 6.610380724424568 -1.9928828862483032 -1.722858433161207 0.053696975302823656
Ni 3.495602048761543 7.46129483314388 6.2778580703814795 0.1847553594049463 0.32058262565062207 1.8634039308181587
Ni 4.677038190024605 7.131948280974164 1.4098250633475544 -1.4838970200275023 -0.25174519516193417 1.1527235062349115
Ni 7.784353717744249 4.20585955884196 7.119063172183963 -0.5201948475627428 0.6445488230614965 -0.18502146858213941
Ni 2.2997282426691603 9.18354414100201 4.953191258946733 -0.4156802753874196 -0.25374602764204685 0.6485042081648187
Ni 3.6859192359081834 3.166716469287527 7.617098072618082 -0.2779005134010633 0.6451067524474955 0.12037442202571526
Ni 5.66873796973761 9.358114500863541 2.7097044509891286 -0.5637346798269066 -0.6863338774180825 0.31040979888267833
Ni 2.905206659017001 6.27670563864223 12.936519231062865 1.6983907870371457 -0.4155717748340133 -0.8833973647664204
Ni 8.73256533334493 4.877782579547977 3.7836463693419433 -1.5302182716915453 -1.6716173755980435 0.8365909459358429
Ni 8.879523428734043 8.3790361535588 8.838673872331904 0.8497742773953364 -0.6996151679080209 0.14203365216670377
Ni 6.5695154949507755 5.284526447325698 4.477123551353494 1.0408398952890268 0.5898740572264357 1.3277906918178164
Ni 8.948964355614269 3.168182362459852 12.901341482708618 -0.1707767857376672 -0.23739612552911377 -2.088037357364965
Ni 6.353466811930169 4.843541527711392 2.207526327966059 -0.440964503875505 1.5436929091392124 -0.4335985504287371
P 7.189339381588796 6.1348182429058165 8.866134015814746 0.8768816751350897 -0.4213670413595518 -1.890553751760073
P 9.116924367019466 0.7495517446072637 4.399305828647011 -0.3917965267912865 -1.4962012913161522 0.15496552973702343
P 1.0428032127582898 5.765136579862363 2.967337480888818 3.036741770869312 0.8819251510962682 -1.6214682655474784
P 5.775480807153868 7.946468595367974 11.888727371791713 -2.9294113265117483 0.39944530158579594 0.9216890612577674
P 6.756439923057065 1.1016233287295907 1.0548613365324064 1.1398731326348046 0.7262137443321558 0.9339059150389336
P 4.177860077305151 0.9913955377338424 9.290291588145223 0.20333183685555303 0.02235239955327118 -0.201196278569789
P 1.2844358803902378 -0.22841750239162473 10.342941177683661 0.001583285326719854 0.444825272382492 0.5195420444700924
P 0.6662668857297801 3.076116895674678 7.677644070362082 -2.226002238778934 1.403589641226002 -0.38016254209678396
Ni 0.6843591420906079 2.617624233077692 3.837486136308903 0.21833833756671428 -0.02619825566192262 -0.5792520587362153
Ni 3.741051570313886 7.966954221964874 10.83543057658851 0.5565137365984352 -0.5847789020917155 0.6384087716020296
Ni 1.8096681698706483 4.535233769373418 0.8731007245633464 0.2249794970323158 -0.3813527057501432 0.4601595887467172
Ni 4.8319618935954125 3.967905453321696 4.459190791545379 -1.5768621968023293 -0.8641148623877248 -0.05175065020973023
Ni 3.551407403302967 0.8245086707642336 6.998956736319365 1.0458666590796566 -1.904807690575926 1.5137971500210445
Ni 8.099631383241206 8.857608786780473 2.48877314517567 -0.23495357752589213 0.25537944948041175 1.1529050261180984
Ni 2.7766321547323987 1.3441595028451105 11.184860787164478 -1.6937255203509927 0.5379318598311896 -1.9836955633220803
Ni 1.134573657018216 7.145058344439867 11.550685952635707 0.8759877025659106 2.261138934581067 -2.0602838414007807
Ni 3.5678180312698813 3.2389140128880376 9.906368688712595 0.22191705605690812 -0.36207354580555706 0.09865991316675911
Ni 4.475039954768931 2.987213701582005 2.007686366871651 0.2286975693138513 -1.0790488022585805 1.2940411061711972
Ni 7.570222681137755 4.88791475939946 11.235327155944308 0.30088900387643663 0.263811639408165 1.7212301535291645
Ni 4.852973029065411 0.42061361424593796 0.4147186954133283 0.8112727788860284 -0.9329054987988772 -0.09567769060998361
Ni 7.742847736223435 7.612641388596055 12.017052028875247 2.3867416948852576 -1.8269891396345503 -1.4284213555577012
Ni 5.333500186516851 4.002672014031379 11.448418238149303 -0.8544475145012898 -0.7499779366312891 0.5324533532151218
Ni 2.281565918458586 7.181097189789683 9.071655004410959 -0.634456728932817 -0.13091517365603905 0.2585496196782773
Ni 8.943865997599827 8.749022058581415 6.276724999495449 0.5572344168145436 -0.7232924569203028 0.16018898291949185
Ni 8.530585536997084 1.2288978900123197 10.481736368577321 -0.25405661690393017 -0.8270369836988208 -0.15135698645015866
Ni 3.4057492509157274 1.180993607475191 3.223945307513272 0.9150489302334305 -1.5231680497129831 0.5364892138473922
Ni 0.9716290285422327 6.6063287744293655 6.944468841742252 0.41728027288468783 -0.19574631119881128 1.5201652583309175
Ni 6.557345815784299 8.606498520524935 9.993928608369998 0.41903350813036866 -0.2558355631812239 -0.4596240279582213
Ni 3.116507323271899 2.543260117807392 5.507926722897325 0.3375711897888186 1.2454027763382036 -2.658972668705369
Ni 0.35436630620152093 5.821200079113378 13.016874147486481 -0.8482339294914102 -1.59539393705793 0.6071984074374962
Ni 1.6364161919188163 6.969529161371279 1.2153812486290088 -0.9998097168205944 0.8955406849971738 0.20173955266776866
Ni 8.280627702480796 3.5002117757185416 9.532812089189088 -1.023713005800753 -0.9082905284636744 -1.7686335825137927
P 7.4367249884630775 0.3666291018525284 7.790531673812019 -0.30526193613315167 -1.64513295615427 -0.630923776078894
P 4.561112776510007 8.916355147120461 4.770798192439173 -0.8541613507194387 0.26617268344117384 -0.14181767950115576
P 1.6889855181364273 2.1456250704967 13.021447918573216 -0.3269502197398627 -0.09441964983316642 0.257257383229415
P 3.547784157914766 5.48778774776759 10.441524798386032 -1.0232324666199086 0.1511546406313655 0.29377270454662957
P 6.749036701564125 3.0368788998167067 5.1364749247023855 0.1891159503664872 0.8317302754094321 -0.02163274777842726
P 9.037978183153909 7.910309897117278 0.16082046629419855 -0.17322550438847586 -1.337859131797412 2.154883468455237
P 3.036639194014943 8.806809595714348 1.4179621533720481 0.8722338919504333 0.7683312423274962 -0.8778062438318883
P 0.7626820908715782 3.854828851066523 10.637182815185051 1.1636188129911766 1.0828933728156511 1.0826565742144967
Ni 7.080669678304512 7.589601973264976 4.993200001151914 0.5951203932270396 0.9087458708335382 -0.4408264356357441
Ni 5.616509763314817 8.688929657969982 6.721527694975541 0.9544117483017693 0.8013262091962781 -0.10776984588782731
Ni 2.8701358563281567 7.599346936052072 3.08868577719563 -0.15973081233615072 -0.07103058148526477 1.338598838176914
Ni 2.1220601462925237 6.1255803500839905 4.9600191865154395 0.024026701931900554 -1.612395870932565 -0.771554120140168
Ni 1.1805418542334052 2.0045858645203736 9.393868465087415 1.0307740264125924 -0.20649943595025727 0.1817836783711321
Ni 8.689860822815296 3.6610543687021333 1.6183414525204252 -0.2786664450328104 1.6344567073873464 1.3135323821265894
Ni 5.986449571067862 6.356702840253982 6.609868122786949 -0.3379388575408825 -1.0480536394286468 1.7568841552873484
Ni 5.750772670664356 3.9459815919142116 8.904833595564138 1.0337253957314327 0.03457979485739851 -0.4216406067359126
Ni -0.06801652125051307 5.920779400838461 9.714260161670465 0.5342307568305187 -0.04131891335344497 -0.14764688458842312
Ni 5.6937042509367135 5.989436674135996 10.224669413147952 -1.0977281238356384 1.9488290904621985 1.360678957905405
Ni 6.69269661869569 2.6237551699305 2.8075864712486434 0.5974683246339259 -1.0738382045919184 0.757345946960586
Ni 0.5394099657093553 7.67294583664751 3.9964811507281306 -1.186815305712298 -0.7059261977277133 1.0322089590869061
Ni 9.01329770502614 1.4717936228304855 1.3071221906364103 -0.953499778010461 -0.48413075485033397 -0.9262255156755402
Ni 2.995013359593246 9.071020705981676 12.723806146468345 -1.0914782862711847 -1.3800414215924168 1.8186878188577067
Ni 1.2210152569158523 0.0849277655649578 2.559857900688761 0.3303620736348891 0.8863214803917508 -0.15676607328087197
Ni 6.442323908753273 0.8865012008273412 4.842772625254965 0.7354087805678625 -0.16996843090375888 -0.3365445482965172
Ni 4.512056062233629 6.694900068181135 4.312555377043256 1.9121019102444943 -0.4792757407508777 0.21963185956715725
Ni 2.6401842368052426 3.941712984752031 12.026808055007038 -1.0457630436222571 1.0087679544551464 -0.36059464726718543
Ni 3.8597889172722533 2.3556442306575525 13.224135768981657 -0.4395216007813914 0.5896136044761974 0.38438943569393796
Ni 5.645394312427369 5.970121918186173 13.106376606083565 0.3215251920695495 -0.69697001697569 -0.8775671312378887
Ni 6.363396163795544 1.582399411436708 9.037191763735045 -0.7495069105321414 1.2222463928263982 1.634040188675218
Ni 7.170282770348564 0.6643077517730557 12.383227533595205 -0.7950663443294953 0.0744627470952653 1.1743961061123387
Ni 1.8066441889868574 4.538967648208587 8.67803318538903 0.4378894644946072 1.0079143482055997 0.31164598528262455
Ni 8.310609366609114 6.373390051838316 1.8779852453187578 0.8231235075770276 -0.23755064882910698 -0.4600480028695173
P 1.7606852112255822 8.582970474136415 7.461827717580109 -0.012271618278501446 0.6994470177612728 -0.9080514158696749
P 8.618198007541796 6.155663428205363 5.68764799166061 -1.1089548457893934 -0.7357425097581973 -0.7387748688266179
P 6.974894883549225 2.5362348939249264 11.331266637264141 0.1445859862749123 0.9992044791364275 -0.7185366874028722
P 7.683013480321594 5.02919367117755 0.09495023391486399 -0.8606449015612533 -0.5240818413219748 0.36558078762786717
P 3.636908618901375 4.992076149719797 6.191323353999312 0.4040393487143816 -0.08479601070047332 -0.4023905002570489
P 6.472001330902429 7.083518489563938 2.975784344564823 -0.5470857584163159 -0.17929125096658155 -0.9339779059274494
P 4.0779027579695954 4.526383093615981 0.7106419613086307 0.2716589033667257 1.914497149949548 -2.657963510714564
P 2.709920186210716 3.2300541176766866 3.3421221116736683 0.9233739051593581 0.8803508646306129 2.282392701753521
