# total energy = -381172.0953442668 ev
CRYSTAL
PRIMVEC
9.18941601494240 0.00000000000000 0.00000000000000

0.00000000000000 9.18941601494240 0.00000000000000

0.00000000000000 0.00000000000000 13.44963921826970

PRIMCOORD
 96 1
Ni 2.2531437755563317 0.14536737531261848 8.893896548464037 -0.7892844475403955 -0.8095413980172186 0.7846343503628939
Ni 3.1454360913067116 8.369122988516189 6.65609174647568 -0.343032470013706 0.5139653217132631 0.7550962316944608
Ni 3.7211622074146113 7.267826590073465 8.51768368596808 -2.331091966731437 -0.037640950281225494 1.216921123958743
Ni 6.55199863415166 2.2065901929446796 4.971309688862034 1.4219995111917574 1.1309717163801167 -0.3674535791705478
Ni 8.76015102785512 2.7340351161900407 13.28466670499788 -0.2787145246619265 0.10552861526213439 0.6788391117029342
Ni 8.473211506132097 3.9239450553205186 10.56428798026445 0.5182755190528429 -0.1288300089922362 0.8432724717210768
Ni 5.924949628409715 6.671543749863263 8.639403017559255 1.42176888323819 -1.5762718715164983 0.8491911511983569
Ni 4.012769952581519 4.942766443115873 4.027010790910236 -0.7029668579890732 -0.6644741012305138 -2.419966261266342
Ni 6.303654660586737 0.11704099978944088 0.6960054661761296 -0.46688765149917016 -0.7213615584461771 0.9400531655872519
Ni 8.302297553705307 7.430231143073017 3.8737515449409083 0.428481798027462 -1.4132798719305724 -1.7897197137601306
Ni 5.038336371888312 0.7408011134633424 5.70301052343467 -4.193321931846153 1.9525818726364115 0.30480196577759766
Ni 6.835446177707999 8.728089154635212 10.065038023890203 0.5158849073334792 -0.5511424449841927 0.5233915001231695
Ni 8.696468373394254 6.564156231821461 9.558564267419033 -0.4596826491102986 -0.534047437175119 0.12198830348005443
Ni 0.995268914002684 4.063183090008982 6.263322312761521 0.6691226557461185 -0.5937124571359195 -0.5422623688857435
Ni 2.5706013485729398 7.779493285655145 0.004006585475459995 -1.0877861821315782 -0.5351856645446201 1.0039764466037742
Ni 8.042080854373653 2.448409680987638 8.641608477454005 0.1210141124922432 -1.2272101645895768 -0.6930778810101353
Ni 5.8677547018059 1.7703777940120868 9.698051335287278 0.6324947201104397 0.6413750533192051 0.9037296485658693
Ni 1.6078353997691135 0.8215292160857474 13.743782804937439 0.4627810855299643 -0.08291653428957332 -1.5233469984930088
Ni 5.721606226113892 1.8926429769272135 2.6439034839414015 -0.1767566574701859 0.29715241965213984 0.09443507645213413
Ni 5.9539973731068 2.684880928785831 7.4652088180621075 -0.2500390111041048 -0.8705755304114039 -1.4145597670842607
Ni 6.904688428986876 5.230882210116095 3.139871899780585 -0.18827571385337896 0.14694317365317922 0.2835371428615504
Ni 2.502544531987488 0.589761111513106 11.332638963579694 -0.05396308448001674 -1.12061711261867 1.3984165816654948
Ni 4.726300554446295 6.79581222551612 1.04354275533224 -0.7309314615227992 0.6226052289108697 -0.20750756549979746
Ni 8.025530715746811 7.939664810511264 1.5271798935349108 -2.1932407280771966 -0.4929450107078543 1.014225635135608
P 4.039097630075081 0.1308361514310935 -0.1299025067423166 -0.34419949373861364 1.132391736656095 1.2338914332644941
Ni 4.642704435019094 7.195129118292814 5.246717412160391 -0.6462287818670805 -0.8661923137420438 -0.3042414652884373
P 5.057900639037979 3.8558882387350675 10.745454564376951 -0.33290078089634284 0.1580066305561924 0.09257436909431153
Ni 3.7712904729390018 3.447528960389904 6.292198215375141 -0.9023579650293233 -0.8410188998002096 -0.6188701873484697
P 0.46611016463077887 0.8196646835330619 3.582069365502552 -1.241805031684616 -0.9468843295764726 -0.25548615026160515
P 7.913419837763756 1.495062883817634 11.035012150783366 -0.04056815123034949 -0.18262725731835 0.04584842579268233
P 2.6706005759673337 7.675404768039239 10.53902995081984 0.8533905339916852 0.10655525675443583 -2.1776361887707205
Ni 3.5020497668713353 2.8410734364151735 2.316646317459127 -0.27474859803564294 0.048717005589728996 0.31592661493584945
Ni 6.714357240070071 5.636714398998526 10.869137674216075 -1.3123591877540948 0.5824854780718485 0.8354450052568579
Ni 3.6903592842179553 3.3949654995650618 12.390735916334028 0.9207614072371755 -0.5040799442787511 0.39196570537929915
Ni 1.4783749039473695 5.058424435762981 10.093335912223074 0.3599932662377606 0.3868792919953273 1.8465644906633167
Ni 5.358771315762831 2.112361918941545 0.2379682037017534 -0.9480035307825804 1.3658494463627509 1.280422486946498
Ni 2.472807581073295 8.797285458832949 4.584161421054615 -0.7256365316724471 0.09555582032013867 -0.8887856256615275
Ni 9.016793044274033 8.851401931000344 9.688327095034682 1.3242639096114808 1.3031757214826136 -0.3572110755069332
Ni 5.25573039159693 5.203543696837441 12.876348779025744 -0.6255393718385291 0.2990092703552205 -2.6035538256154322
Ni 0.3127277804839948 6.898669361357459 0.4400269256088852 1.0067887192415887 -1.315451196415857 -1.7909497295124899
Ni 4.186596949952623 3.7219708760426853 8.5833181724358 0.0468670968651838 1.7412929857173107 0.8686279197667298
Ni 3.08612759897043 7.132356216038531 3.0910503692438334 1.894106502108338 -0.9615786983638537 -0.02441442428862247
Ni 3.44554404648463 2.281437988122711 10.23565975288094 0.009315106753338796 0.19024954975029815 0.15415280402774095
Ni 2.1042384749958876 2.627557350354823 8.164227493819437 -0.6396141047640405 -0.044665204117858556 -0.9743935907403349
Ni 0.8683345887020499 7.753808867297552 11.48907223391421 -0.24663744162172363 -0.3069979449876519 1.1028669877241006
Ni 3.1357872042671864 0.1396488015938599 2.1521842541661 0.8062951231657792 2.0619671426404746 -1.436132865269346
Ni 6.7016758456752665 3.0983770908025132 12.05934994514046 -0.24542465226054508 0.3016086556512806 -0.580207223560633
Ni 0.25744609033887494 6.529273207819521 5.845092682445736 1.275943625239538 -1.2292608764710184 -1.994444317198152
Ni 6.32147293865306 7.543665296992921 12.506954463371052 2.495253818255748 -0.3721558697422236 0.7827602732686326
Ni 0.29099113533800147 0.7247756905031253 7.539100913952414 0.1399330608839332 0.46315338126771843 0.2646621603339183
Ni 4.24851523649769 7.647331101462334 11.93689086554292 0.00786911833543161 -0.49633629577759036 -0.8110460075872031
Ni 1.4583971130674382 4.160085484134499 3.679955946106101 -0.1684849043796969 0.5137704320936377 0.2840315659994657
Ni 3.858323434035519 5.790857666808998 10.37767482915354 1.689925172768296 -0.7468345059063008 -1.2455521574318742
Ni 7.495411672379067 0.48443202270640306 3.367238273979958 -0.3574010800305522 -0.7253987046300281 0.625863073726535
Ni 7.1552378624465485 6.44303972593485 5.653058694701859 -0.5787612351427258 -1.1648439436475293 0.49457457589147724
Ni 1.2044016485222222 2.3017190297381704 1.9816029586067676 0.2773248434032514 1.5544475765525552 -0.03603015415067988
P 6.977836182162705 3.311010992904964 1.4118894775369266 0.6957754824469565 0.3922729522070728 -0.7863405344207232
Ni 0.8676168952946337 7.509388774462036 7.707759783636824 1.3759618522064045 0.8764890676823616 1.1725796217288904
P 1.9491211290652344 3.8544363109710247 0.16971565255064328 -0.9545922397436913 -1.224939366277529 0.8397644585678182
Ni 1.230665000102187 8.230564970628608 2.0485680725443185 -1.685285874224072 0.8109483056670743 0.8957088351439219
P 1.2066254872494269 6.347405471248813 3.079577383083026 -2.0936207649900136 -1.6647892969326168 0.6300295463993988
P 0.4164349373264346 3.9451266597263337 8.715070508664835 -0.028869631846498673 -0.6211147604082722 -1.1267502220996013
P 6.139596012666124 7.227319643339916 2.520610005350348 1.1502246510724576 0.15836041435118534 0.5750701594443839
Ni 2.425812906482693 5.446695650233475 1.2962939729201688 0.39375005097323157 1.198197836517627 1.1772186631627983
Ni 5.50730903967415 8.574846449615094 7.596921639801363 0.12097117506944972 0.9690323264284214 -0.3798013021026233
Ni -0.041488376386712815 2.1399209782096746 5.5603898646326355 -0.5688190363283494 -1.1550673238767397 -0.865411212601645
Ni 6.590676887055814 4.173621494238518 9.200857970264886 -0.32909014890100097 0.1527602945555885 0.12315969808033628
Ni 8.670857470366485 0.886153785709996 1.3381866836209189 -0.32122231611715 1.1542736243308507 2.1247084875337534
Ni 8.253979603177855 2.8640929240666124 3.108655452853664 0.08837061542560909 -0.403532327170976 0.578033870058398
Ni 4.678313422903057 8.907540074737925 9.754592894397273 -1.9422864042476742 0.08923964829412373 1.2694256216153623
Ni 4.072859545297191 1.3088761216197098 8.142559769295154 0.4923654840553004 0.1284991080153787 -1.7980907114326452
Ni 8.461577705187297 5.286128980479548 7.406878079612498 -1.126397466745873 -0.2587807618524769 1.5315737572781754
Ni 5.763482395865432 4.7300498362673675 5.230443874962014 0.18727555472363874 -1.439908016041062 0.23758792982494564
Ni 2.597985808932735 5.59574798145357 12.174062346857696 -0.6996663328609306 0.44087117283075045 1.9464454207213702
Ni 0.719617671174282 2.0294917633963654 10.077572387625358 -0.2218185828058309 -1.8000545200272353 -1.7049435005539992
Ni 5.4965849909359354 0.7297140827841165 11.903146410211642 0.44367753193129394 -0.3239381723864163 -1.1780475868219968
Ni 4.801754851095382 -0.443506957534474 3.470410606797921 2.1523709864460288 0.06651032501740804 0.42113384230282314
Ni 2.406579458317239 5.809898137233661 5.2347344133989235 -0.6517970199834774 1.2560944517240948 0.7203084345913142
Ni 1.9317990794752296 5.326865662618801 7.876606117412288 1.0180797187743755 1.0117458061365479 -0.5923801114777411
Ni 1.4723006998205825 2.8709941756539297 11.86945525349449 0.3118784130084048 0.24934147081644797 0.4922009334529781
Ni 9.029878772982876 4.7513325242516915 1.921536339431666 1.2333077928468825 0.6233246235753975 -0.46248952243147445
Ni 8.087550085870388 4.277498655281178 5.23073977416456 0.317425310968563 0.049071303605354194 -0.8415899418123313
Ni 7.17081392295321 5.575044226691618 0.7119812662887148 0.1815759332357002 0.49973400860522965 -0.48616552589217565
Ni 7.8138341340996265 7.916498292200176 7.4570587248093885 -0.852846231452441 -0.3084053668581398 2.744783750933918
Ni 6.507595374937387 8.480360871957572 5.501722793549077 1.3873011884786237 0.41008709757035827 -1.8254603616948497
Ni 4.167813783182347 5.733414625967025 7.040267238133303 0.721461574359151 -0.7791568721880903 -1.018524262510962
Ni 2.1229665052687947 1.9098271852737967 4.194095513594768 1.2319181115882074 1.0647562968953082 0.7804365102314624
Ni -0.45174618812460565 8.659968012136163 5.6702870122463365 2.2871171038123834 2.78510070538541 -1.4192165491299817
P 7.220207035179351 1.1012596407778115 6.81335849686209 1.3819597216610522 -0.9960705614931362 -0.1343895053578847
Ni 9.426135590155607 5.0274377242417625 12.472307607366174 -0.26249292059674145 -0.4733681170171913 -0.016459431107603912
P 8.226310270914988 6.726634300150838 11.762665047507515 -0.03145950406086195 0.4768411631674562 1.0192853090467027
Ni 8.50597177498534 9.23527141509757 12.822254361457297 -0.4503955673814179 -0.7555621155872858 -2.5305154696715193
P 4.472994296118188 2.729082020843084 4.3776963740661 0.3462432636415198 0.15991361777091814 -1.3182261880578328
P 2.7669699839516197 1.3236527029145255 6.201373701142901 -0.4733269793666106 -0.1804806432889924 1.2556313960447472
P 6.207882564657278 4.7995402017844055 7.27025627172418 0.03379020907656761 1.7225121055653818 -0.5245068446745353
Ni 5.083998581125837 4.3417510535481885 1.4529643301933741 -0.28202224887892074 -0.01296915856615831 1.194383862088175
