# total energy = -381161.03685936454 ev
CRYSTAL
PRIMVEC
9.34444674922552 0.00000000000000 0.00000000000000
0.00000000000000 9.34444674922552 0.00000000000000
0.00000000000000 0.00000000000000 13.67654236865255
PRIMCOORD
 96 1
Ni 3.556047853545717 0.8972659130937937 2.357138531045633 0.1547449290857851 -1.832277384616683 -0.26431891806188673
Ni 5.756805201366303 8.20545202936006 6.444769526641235 1.0214177820086732 0.22168822787555367 -1.6120405444756754
Ni 3.1861105559516396 2.7429968968061407 1.167086809505145 0.06148510388867476 0.007644146808819094 0.23597970479756133
Ni 3.295636814889733 7.790754832413243 13.173600886356363 2.885844497664391 0.11979309560094852 0.03741263632050331
Ni -0.0015932281502384557 8.455182365519137 2.323534966523214 -0.42962388205170526 -1.2880578920045687 -0.0034625046273037145
Ni 1.2325605437003109 6.064321595478897 0.837132530147081 -0.5631168437372496 0.9604633538124877 1.5244577150586842
Ni 3.7676248141187325 9.237891904054466 7.679487703068173 -1.779407533200845 -3.2838978039986673 1.8150764473573644
Ni 5.815927515187762 4.331141668078439 5.846543660122901 -0.5758669443140664 1.0409373400988395 0.6603575079589789
Ni 8.76651129385635 2.548940773662434 11.995640878753754 -0.9588929240015744 -0.918262809185038 0.22879732811650919
Ni 8.119688698199424 2.406634195949933 3.03032554842152 -0.79515170495445 -0.3649164145709909 0.24817393287090808
Ni 3.523725412656129 6.335983347876154 1.334978482087751 1.20348273906565 -1.3372199555515163 0.05322646342430833
Ni 8.432989304775347 1.4127401636000054 6.640275907901756 0.23067011965918982 0.562595938236773 2.1357117806227928
Ni 4.965143682960426 4.389039859391504 1.1492688186730355 0.3172121665164924 0.20604357935976128 0.39886808892608727
Ni 3.5982660634153794 7.688292975126647 5.376673112500025 -1.3599708760947868 -1.0851394885373506 0.12839112168260466
Ni 6.876596963148269 8.50507236607118 3.103057114313403 1.1387531600977485 -3.3901764100529483 1.2115457185794425
Ni 7.653858689298912 0.4817333226183465 1.3357587433812697 0.47317065629440447 1.16077877243922 -1.4517134933164224
Ni 2.1805172764222487 4.964863349561558 3.1104420304842733 -1.0331199009369498 -0.9753261298569331 -0.7054114628748238
Ni -0.5221994487450775 4.6282950708795125 4.147890528571804 1.2580423194790848 1.065639727941526 -2.4188486027221305
Ni 4.845759032828775 0.8643304765053452 9.510941306776125 -0.3388217743664681 0.966617803449658 0.37770456747459463
Ni 2.8588400016654143 2.8064737227566967 11.472963928785937 0.4249961534717068 0.9118941866545327 0.6905944524666493
Ni 0.9381263748682669 8.904865170644799 6.7599726625508145 1.673299905506789 -0.03610394481140879 -1.8539664395543427
Ni 6.297727183377174 1.9934414549103783 5.762268899310259 -0.16908422852659266 0.04159530694328321 -0.22497564037757384
Ni 3.942982699557881 2.9903724324147194 6.132493071415845 -1.1671512516244673 -0.39891359745204197 0.4213896670673711
Ni 0.5332791591130407 3.9500938234425234 1.4337670374045013 0.05988639194298719 -0.8669623591388489 0.7624094775264224
P 9.016652785667102 0.3470340589064854 13.207518424285514 -1.0847093429784673 1.3349702402853911 -0.553604276261124
Ni 0.5414219099055204 1.4775719343117615 4.985209013206802 0.2677960779772098 -0.9915207373389247 -0.5672378078841587
P 4.221839675859441 7.387046704702088 3.1909967670939254 -0.2661248609223739 0.32074434803946694 0.6882717178707437
Ni 5.655903866666743 1.0025376454817196 11.871197145217181 -0.03511227032210082 1.7088428356084053 -0.737027290007892
P 2.317759164061851 5.682227172820537 6.511470186678783 0.3819510014557745 -0.3675057725647219 1.060626848107967
P 3.4439144939981423 6.200199193910671 10.506182808329948 0.4196138061138709 0.4369818650786732 0.08828319791812538
P 5.912670571137431 3.1189052957961265 3.963338642094418 -0.14903759428836266 0.9481475125596123 -0.8328605323591334
Ni 4.922233984040221 3.6032092756821017 10.316256930596245 -0.46561829786844333 -0.09686811137365899 0.13820476533891682
Ni 4.834041096756054 9.244423672248113 4.503863485123557 1.6246952571252085 1.024488964734829 -1.96733486257587
Ni 2.4284161010420493 6.930719998023232 8.540111237595807 0.5303820725083898 0.053737598732771966 -0.18037034296337323
Ni 9.043237736326507 7.66298821365541 4.860370009577824 -2.3153295616908576 -0.013512946884770278 -0.5801709710060589
Ni 5.905867813991546 8.452528542676513 12.953436379331327 -0.20957498955178744 -0.8640048191724217 -0.2200463213967565
Ni 0.22146245066179693 6.922422129416711 10.646682170064409 -0.7749708591312008 -0.6259941999877606 0.11059317426923536
Ni 2.4815205912344545 8.165457797788092 2.068385785764 0.10630354575494595 0.30090828715014634 0.19108207295392254
Ni 2.9108418471556017 2.590028305489991 9.032754201653471 0.6423217335031906 -0.4829326207771747 0.0989800155103392
Ni 7.246039005071012 5.6704718589612995 9.866448909885756 1.5549119177834834 1.6027642613800719 -0.02251103661832252
Ni 4.718310125256329 3.269705975494357 12.850574579729011 0.8318063800630061 -0.8353565593081096 -0.3563397286455734
Ni 1.2451007910763814 2.579142025167247 13.428805199350688 0.2744500929586177 -0.7362302480278933 -0.911502864753385
Ni 2.712085467357526 4.508162865017544 13.499034322435332 0.17421949287062902 0.4155303800731166 -0.6455692939062108
Ni 9.098388660330654 0.94811558831463 8.920019059742991 -1.1235057470203749 0.42402864735211493 0.1947348392151614
Ni 5.465183710969577 2.8606154465249176 8.031221084184365 -0.16386540332981456 -0.08862901129331834 -0.04111631042433564
Ni 1.431550534664111 1.9217321714797044 7.300879693447079 0.07859579542703239 0.10798041923673662 0.10222089104514008
Ni 4.5446155513171345 6.264330131125254 6.931011544758056 0.34258715494617126 -0.5812922290946957 -0.45957491988784077
Ni 5.754637289748383 5.972306829523483 2.783080835065747 1.0933569913511363 1.2004298111719391 -1.0786556805852199
Ni 4.454693941406609 8.338984171687963 10.804263180236616 -0.08269336253517372 -1.586030750675475 0.8277499506054453
Ni 1.4398203699307446 3.62271113579675 5.704239885744388 0.6997563214715755 0.8832798653519498 -0.9514572936591355
Ni 3.6266731811674315 0.7181468878864867 13.20617843063892 -0.09985341925422803 0.9678961559414491 0.3475876934845562
Ni 1.4291396674338381 8.755942724718992 0.1646659696062875 -0.3978566169424374 -0.18048707104689563 -0.11697028144017275
Ni 5.99345331224483 1.1278279858828764 2.929597085984597 -0.8043343998949826 3.290815871274739 -0.17923288692482037
Ni 3.7634852242621015 2.5210008782418303 3.8000687328144975 0.30473306021287516 0.9261239571006695 0.08867451981927309
Ni 7.8556987364845465 9.65785936890002 11.13396329064637 0.7481840779556599 -0.7949082214850762 0.04124975067840638
Ni -0.04630547082517093 5.4806581145871425 6.226341217799862 3.634752598270269 0.07310057664041604 -0.7220009918023889
P 4.829153951169105 0.8479711537920169 6.483939578020528 0.4325495403389325 2.052216233901298 -1.881072037521883
Ni 1.1557398479635934 1.6356986601670995 10.671956094861768 -1.4184768427504795 1.2549179149174903 -0.8971363116190679
P 5.6523436325011085 1.3927056700275056 0.4497052317975705 -0.18728943868070969 0.5632130029954816 -0.36527096969693224
Ni 1.1320610202057972 4.3247874443707435 8.872424055283023 1.0405609305960273 0.38873614269840795 -0.4616847671419919
P 6.057995405111088 4.900881923493037 8.517339755605684 -2.381853770665337 -0.4473009876164942 -2.0564279579898
P 2.865932436656798 0.44551237859515413 10.47486396100831 1.3248218389974797 0.4757900961951226 0.9748864712163532
P 0.8391098150537699 2.743034274592657 3.3799386745975997 1.2243608680662397 1.818220906523617 -1.058584106646325
Ni 1.836408029310629 -0.025477633733871845 8.723062420365654 -0.7732819014645521 -0.18457821039713374 1.854914919510541
Ni 9.09067014741513 7.2405070926666655 13.02793217674676 0.5903846783142671 1.337986915624528 -0.8926772474064497
Ni 6.788366698077587 2.155034970465062 9.957316177795132 0.5625504297108183 0.10701008490366731 0.5678782696816349
Ni 7.194569793038675 7.096836225746335 11.605790565393352 0.05905438295999507 0.13835851730796173 0.31479918619962555
Ni 7.643439631307617 0.35690833565931224 4.9443980769994615 -0.23186645396013617 -1.2337369099645012 -1.812107851647344
Ni 1.573137589986182 8.758802125387454 4.005777380904523 -0.18262494332550483 0.8598067219306741 0.4347817721035609
Ni 7.571431325584816 5.9541692586166635 7.152803854385856 -4.107207202334255 0.7551880200773188 2.1196470138504466
Ni 1.5919853388368033 6.637061418261393 4.73853898331871 0.8548969433338826 -1.9457717916931137 -0.1496495168407487
Ni 8.885372654976779 4.930886941618642 12.625664028261129 -1.0119121565110831 -0.25175239425078577 1.3872327971345335
Ni 3.7749788936157276 4.92839197436871 8.603064774535142 -0.2774937648809479 -0.943244161720724 0.7859471556370464
Ni 6.811550270164047 6.2296061674520224 4.916156355952743 0.698591354629197 0.8728365585314388 -0.18295353030951716
Ni 5.35767585250334 8.758671303134648 1.432768116059865 -1.8081810057891117 -0.8223953711617514 -0.02727426233492077
Ni 1.0329911970455152 8.90674340441722 11.513432858246656 0.39384209646640556 -0.6201467400680482 0.023530736132088507
Ni 8.203657895607298 8.435362794219104 6.9812594376159876 -1.3070724854338587 -1.680739649614286 -0.13945329303403725
Ni 6.825258573368738 4.18448992268347 11.594343618272871 -0.46569800206644313 -0.12287533407069806 1.4335784742786084
Ni 1.2574821828597593 1.1219036067201127 1.6483519753473805 -0.4661060361381392 0.9807673554771624 1.4563957292834402
Ni 9.495265997556038 6.628997160820596 8.429113228313653 -0.7180476635815957 0.6186593568892442 -0.9847047428583557
Ni 1.8259142157463017 6.449210007679318 12.400137677760393 0.24725450638043225 -0.5896367444046491 -2.3015854726318876
Ni 5.015416805824255 6.050033936583211 12.384834277516138 -0.5038732275845837 -0.1886834908147589 -0.2617452437974396
Ni 5.8073866909688885 7.6106219347466935 8.554198925333635 0.5835296030656467 -0.7736431414587128 2.2486806542130564
Ni 7.639944808268384 4.509312231952907 2.0071282658878227 -0.7168119914022816 2.3900342495936 1.0879946985979585
Ni 7.90304704755351 3.552908119478385 5.796022909423404 1.596604155315947 0.19332047536613803 1.5244001223478714
Ni 4.250144004698575 4.861289503126114 4.030750414520431 0.30747128507964466 -0.10680851041582251 0.900470003977991
Ni 7.5638529793687255 7.363040821312277 0.8158533562836029 -1.9755130275112882 -0.8083350364139433 1.4553207510517066
Ni 7.532969583259997 3.0733791518198115 0.43288616231009724 -0.5581425304511097 -1.7727740870447277 -1.8154353733586797
P 8.095281003604569 6.53744961719663 2.9322639910525035 -0.14426665526228058 0.19872647687305775 0.6969072820585546
Ni 8.540459785455068 3.778398961081929 9.98788279716314 0.4817247165120026 -0.38804374461707364 0.1531744992748717
P 6.649274610005449 5.3075896185720906 13.713332385866702 0.24738717530355459 -0.32418962627559006 -0.3164650039378227
Ni 6.705771134324168 0.5115776162619335 8.102736003125157 -0.5946316265160791 0.7366681068962603 -0.10572659020555342
P 1.1257067964981013 4.722814148531489 11.36563081147166 1.0229416748523672 -1.7682831411529094 -1.9300628655982888
P 8.062369862577356 8.378389703122307 9.144833363410598 -0.34990811408761674 -1.2860012665858562 1.2282332065374524
P 8.862497449629075 3.1205218850629377 7.890680606884738 0.6778458945517294 0.35162226856524603 0.03532335789164239
Ni 2.807006356214548 0.8229663490575707 5.150503864071219 0.36325702459069703 0.9009243179065903 1.705885295641978
