# total energy = -340856.7926696189 ev
CRYSTAL
PRIMVEC
9.33494457512103 0.00000000000000 0.00000000000000

0.00000000000000 9.33494457512103 0.00000000000000

0.00000000000000 0.00000000000000 13.66263497634814

PRIMCOORD
 96 1
Ni 8.501782236593144 5.872725744583118 6.235012148799771 -1.095024094640914 2.062726132293686 1.220794233760904
Ni 6.0387010617582595 2.7640491276494923 3.6947729883568377 -0.23217704322201949 1.1313823215549739 0.05446599225836426
Ni 6.37141716157583 3.5269381501928723 13.579525418675168 0.878907704426183 1.0670540917905493 -1.2889204971151802
Ni 7.4913771547191175 1.2783833400375129 12.281766467370574 0.24983640817499553 0.003628340781206655 1.3978635373755022
Ni 8.784295003690358 2.778676986030451 5.023095482179044 0.3488315931939863 -2.9124518158392743 -1.6358651576990988
Ni 3.6873498403130993 7.21328915142061 0.3508772347761892 -2.7052885210527733 2.346212367312643 -1.0641276621723736
Ni 5.123633770340349 5.805952884979418 8.8501633071504 -1.421686865047345 -1.9278797419040412 1.7427659707184116
Ni 6.132433241722016 1.520345107257967 8.244471019764642 0.5439626394063019 -0.8048077399869753 -1.5568003930554477
Ni 7.162002965112385 0.8281505545964245 3.3196108948837346 1.6941001300815919 -0.4766663281524887 -1.3738725737775437
Ni 0.6744432217762641 1.4058893500091245 2.859315972525712 -0.6866580935267207 0.4629420365878608 0.9336017535349534
Ni 8.983988141205018 8.13706594626509 12.53541278490082 -1.0430384456022421 1.4844726900253145 0.09523391820434567
Ni 7.593454775265246 6.3868664950924146 12.951535682324025 -0.0032563021537685855 -0.34015720534844 -0.051083448939376545
Ni 6.743480053400893 4.0205606922009895 8.500891682866568 -0.7921021194948488 1.692941076776484 0.18710740457689068
Ni 1.244226777296014 8.521376285566744 0.770400852561987 -1.217745419632251 0.08415092091730668 -1.5042699272568996
Ni 8.884776348688852 0.5022060236809263 10.546952872090365 0.19741881380522774 0.2771039856416969 -0.4723615301295478
Ni 3.535769007900841 4.774702871538908 11.678588080598722 0.5507778625559223 -0.009151070371648756 0.24437821327390172
Ni 4.184631680652637 7.9973404936510555 4.944589530552991 0.5005513623002025 -3.5163224444551187 0.5344603563428215
Ni 8.416619535885111 4.797032059316351 4.373586831252416 -0.9029279786001805 -0.9038463766493918 -1.1657957660378373
Ni 3.198656149118732 4.35423829132503 5.682399290603529 1.586752459332848 0.701404912818592 4.322196163812762
Ni 6.2613861681256955 6.306903358595099 3.967492464945142 0.23311652431715335 -0.20134128878808552 -0.13552541873454077
Ni 5.066307874796336 2.737183156736666 6.17997891567973 1.8756197561580603 0.1305307937334268 -1.9902187091525787
Ni 1.754138797845786 5.323448262136407 10.08271020160898 0.648366911256006 0.4779120276341318 -0.38944833827408415
Ni 4.140113329268596 3.7792990458347613 7.944630728272572 -1.7522523129422918 0.3269077965377016 0.5800164477060656
Ni 4.394975990096252 1.6102686297747353 9.651258391456121 -1.4231930172792262 1.6074385269272897 0.5811405340081798
P 2.934822606412262 4.857233117835051 13.814836971274948 -0.7052579680160951 -0.7163425079650309 -0.3123568953067201
P 6.629808431508785 7.723257181638719 11.303453058465315 0.33157743409922896 -1.2571187792235512 1.3944429417297275
P 1.1165994130430028 7.693338683801468 2.60632496811502 -0.4657648507486365 0.6856278524899935 1.2737029088344773
P 7.929139387504735 0.2820656232449833 7.706874353649835 0.5699744900890312 2.0499438929273532 0.994546668649442
P 3.3093779284783698 1.8005708128980447 3.27009741457841 0.6126301199760289 -3.587890643611408 -1.01409733708786
P 0.24582923481919786 1.2042638789368025 0.6810710325296022 0.7970342666891436 -0.8358173009946122 -1.436388690033894
P 3.8547160642519698 1.614992111804579 7.519791792961492 -0.6825728677137535 -1.4047294112574 -0.10440092941559438
P 6.866561299573799 4.528232326017239 5.813793305052275 2.4472140412387016 -3.9220988304652646 -1.2018683433906785
Ni 0.8690152086158789 3.0181556579545843 6.7765164227756305 0.3396247298837377 1.176318262835716 1.1155594955901045
Ni 6.093991939352656 0.20856600247388116 10.369461967104916 0.24932013066020933 0.16602924375035277 0.0848811142151119
Ni 3.137008174167965 3.6520450793706702 3.7672121594074057 0.94944669098701 0.46044832363172955 -2.632659484732137
Ni 7.8978953275168156 5.084109614383119 1.235917742998062 -1.1641921689961434 -1.3873762646909331 -0.4927619481627707
Ni 2.4236877081037753 0.8067520608078654 1.385610116092855 2.9326336901037884 2.550260770619247 0.3551778471269883
Ni 7.798123438317271 5.756029600600753 9.999190451172199 0.030399181117147643 -0.029747406465761673 0.9708313273103731
Ni 8.993789833164179 6.114510147853834 2.9038427253600045 -0.1752628465334788 2.3774867519458924 -1.5562159813068877
Ni 4.466715040292594 7.225751302625829 11.715614205348075 0.2204209311273559 -0.43557238632565626 -0.9911988352231318
Ni 6.4269600826777475 8.416591531050942 -0.1036122854585922 -0.2304497761182676 -0.08418177415524211 0.6326718691182524
Ni 7.770109269203513 2.7624901918807496 7.078638174758004 0.754854805107616 -0.7643977116010449 -0.610177030449846
Ni 7.776531711172945 8.12748829297928 9.436372631404758 0.35853699340720835 -0.43076828006879364 -1.2545705588804008
Ni 6.145558174002571 5.237202707840504 11.566240153868335 -2.010083566397306 -0.27274365179047216 -0.37971722702924926
Ni 0.46709169561084674 1.3982066905020865 8.450189864098004 -1.009259035158952 -0.16469458409932927 -0.4308487555977419
Ni 8.990559942290018 3.6276715386988876 9.532297589883953 -0.492780460105532 1.6335012854526125 -2.4915285468853607
Ni 9.113846557246829 3.1700258736532563 0.5595533895978019 -0.7776468633014672 1.3747004689954776 -1.0481248589862144
Ni 3.169204398517631 9.282407654110244 10.859827546899176 -0.9737245896977683 -0.3086699333734361 -1.1625358643396428
Ni 6.286058427028615 1.5489007031656585 1.0172177245328795 -0.31892683521475396 -1.9642413112522106 0.6750107390957795
Ni 4.716452816467316 0.2357512284962348 12.328834192158467 1.0806469999836357 0.18763473783527038 2.2659903491360973
Ni 3.377130957277986 6.501527621125162 7.331110156242097 -0.7037790694777234 0.4165583071169987 0.7242602201502107
Ni 1.0922538772053894 8.39157387919327 8.694628192153473 0.39652787082868485 0.6805350113481183 -1.256294483550043
Ni 4.284515589188858 2.954155276933619 0.9506735710748929 -1.436904453328048 -0.1898875384251891 0.3572414145242364
Ni 1.0383725762641678 6.165628305157045 0.8922134797470345 0.47655782759908255 -0.4968546301749056 0.18005229750232218
Ni 4.424735793873212 7.406961249588925 2.5272458508829745 1.5608465381003636 2.658045786015726 1.0492954822555478
Ni 1.9703827923543442 2.6087436522927523 13.49216620547381 -0.9236307583651706 1.100174528493602 1.0748684456286457
P 1.6936950307642875 7.605739562520729 12.630259557264505 1.6086598009289006 -0.3865252510900182 -1.392402257150615
P 6.964484869718188 6.3858769909517745 8.086039271420164 1.3320810916630543 -1.6340646141552502 0.8828492055724344
P 4.994876877775853 3.8908516352747466 9.854544549194665 0.4505359496140241 -0.1458586823397488 2.133230923182468
P 0.8509427556321288 7.773525858972135 6.314295701321252 0.6231788420261526 -1.1072574034823126 1.072879440223075
P 0.36971141924933687 2.8268079610222974 11.173835483997358 -0.7214181227157253 -1.8654335596536777 4.212101012225869
P 1.6000188604688688 3.863369558010201 8.63019466969736 0.7848840044798547 -0.07848960886647127 -2.1857313070740294
P 3.0141883064473043 7.661431842738215 9.563571521694985 0.38751255470395196 -1.7809080290057717 -1.3094759526690287
P 3.9248495039559543 5.836590173560341 4.333514714039945 1.7788570600140137 1.3966044681574206 0.48488974450354555
Ni 5.369721583128373 5.527444809168374 6.43111133259607 -2.8782731130750365 2.1268139639125305 0.42249858386083367
Ni 2.633695959537362 9.060898750777909 3.6168551382483343 -0.9070216890535799 0.04375683337097625 -0.3774338303117113
Ni 5.066746617198318 0.21543092082318366 6.367252842734895 0.7859458700854658 0.1925602001613458 1.1342670993019366
Ni 3.466008965985777 2.208694596188101 12.01150581522231 0.8545629570332316 0.15580988001518972 -1.2244264311968525
Ni 1.997388787438016 2.2936612630569506 10.083010786829062 1.119297365365982 -0.3727415670423645 -0.4244348816515981
Ni 8.227736264359699 9.181114168920848 1.4888172649504685 -0.6429030599279573 -1.444480980123725 -0.3318941940086994
Ni 2.0815433141159634 1.6744463747454383 5.35125799596073 1.9791794206192814 0.06308407294467845 -0.5973379697036486
Ni 0.5762041305002372 7.216612391742001 10.580044317638967 -0.27065848712666934 1.0316335461994104 0.1284911375955787
Ni 8.675822946008967 8.188389472352206 4.222000397873323 1.0112089597964713 -0.11733846341286888 0.08447539413626097
Ni 0.8185850367387547 5.658796816365867 12.2913301182393 0.03920083856917765 -1.1303731635641694 0.0019103296488354197
Ni 3.6223972949303858 5.435878336380356 2.1634369171819974 -0.31015037457370453 -2.067546436500465 -0.45740362326813483
Ni 1.8598850516680587 6.105091188628316 3.6834328975073234 0.7303015412482842 -0.25228641237738486 1.964602037025739
Ni 7.1989880161049555 1.0232873055917813 5.522013738328526 0.2102370486158186 -0.5337111368816227 1.8277239609180458
Ni 1.4266129272942099 4.1998849803300375 2.343879531688862 -1.6586842124761434 -0.9839791775462408 -1.0644475074056376
Ni 5.015441761000647 0.4864915777342089 4.041530712026762 -0.455366538233448 1.6828651805977213 -1.287974331151827
Ni 2.9238167065838314 8.756066130847973 6.697492381717451 -1.5765120125517624 0.6259283797468317 0.6973965629901474
Ni 7.0574515842146575 7.929596799796163 6.7899606101657115 -0.1574993519024707 0.7649751813710696 -0.7180288945285183
Ni 1.3917935834773776 5.3980344704732675 6.413486956959025 -0.5296297677233975 1.7195900468225807 1.1147125742087771
Ni 8.230910145565524 4.204953855314632 11.961773897210467 0.28267248086841 -0.9997426110280848 0.42390600573132153
Ni 5.266878497114958 7.890838109306219 8.667316010882887 -0.7508120024968101 3.4418823230676723 -0.37332160791555064
Ni 9.320792946811267 6.292415524384985 8.35240631812446 0.7809250198321067 -0.17897089151268533 0.052725355418173706
Ni 5.134789029284348 5.669363973792315 0.34747744790806845 2.2581654537750397 -1.704121518873336 -0.8374694918860544
Ni 1.3670279751272283 0.7279987331466525 11.988483974546421 -0.6641254596418433 0.105903739213366 1.6604701007319724
Ni 7.08839692597144 2.4188242019030866 10.138521969118921 -0.3754476531196179 0.029929183459264583 1.6691683998369191
P 8.496853385779394 3.249671622029989 2.5945890756092505 -0.4036320859736339 -0.12188314536075784 0.9262319434334434
P 4.424166362245108 9.282986420683072 0.9421507665427836 1.0514773203982148 -0.0335068735081939 -0.13782192807820134
P 1.223577879568713 4.088164361885037 4.72910260006147 -0.9232808312249197 -0.3634948516331159 -0.24661070214884628
P 0.36325537147890224 0.6234809580499282 5.049832630854694 -1.3554753022172785 -0.057062549340946886 -0.4394290410675851
P 5.60034139251037 2.263051979310196 11.882831070171376 0.6129741335790089 -0.0012505845776494592 0.41644594990885053
P 7.211282138305162 7.024480559452981 1.775486882932841 -0.5934008394327716 1.201079786051112 -0.2774847660198834
P 5.661419935833033 4.260142048517076 2.0593550840038377 0.3006961711393402 -0.07987029126408181 -0.2344522124094414
P 6.613668312082698 8.319937513388881 4.768628623007644 -1.8791671071896863 0.8301652449151573 -1.4319180558570501
