# total energy = -340887.69591717335 ev
CRYSTAL
PRIMVEC
9.14121757303094 0.00000000000000 0.00000000000000

0.00000000000000 9.14121757303094 0.00000000000000

0.00000000000000 0.00000000000000 13.37909592656406

PRIMCOORD
 96 1
Ni 5.357786535443195 2.8340700089513873 10.160259635096596 -0.9964397719070969 0.38379911040810677 -1.0227508989977998
Ni 4.628710434576395 0.38144838907444095 6.29305834182076 0.1348808431720064 0.7225316674948783 -0.35000195935300366
Ni 3.3691054814959145 2.7095300588754156 3.380857430983412 -0.002886063298543417 1.6064684497045365 -1.0710274746160007
Ni 4.789833537926297 4.628527610222203 3.573823966224804 1.1366302002174746 1.2217871938017926 -1.526435150500029
Ni 4.550470752199689 4.925132701246502 11.868194696624009 1.8459906204377177 -0.3701118427290013 0.5373016824463585
Ni 6.079046895168264 6.197334252330849 5.241234181401896 -1.1839274426415416 -0.7092935715380494 0.482329182865221
Ni 3.54639025775644 2.979991267250179 7.51964064592521 0.910469281282548 -0.3286553753564275 -0.017330263748331444
Ni 5.528736447830948 7.9553366773756675 12.551946811842933 0.2022406606739033 0.9999303015588585 0.55230484072341
Ni 2.2508968839479597 5.507291151084161 11.978519139039738 -0.9415212654923463 -0.344459946488852 0.42650281992422034
Ni 8.454657412328677 7.001898529043758 10.033545903449275 0.6025441964949364 0.35483023397958247 -0.5344647272181957
Ni 7.958810340105326 8.963713544142442 7.576007222566319 -0.350924471167273 0.5304928870546413 -0.49078091317699984
Ni 8.581692914839378 2.85390645138128 1.8940383705124182 -0.06549988147502268 -2.3141756505920728 1.0559960342041748
Ni 1.4395498236945077 1.3280726737255941 3.0397035295730115 -0.6892271398054776 -0.8968804868545198 -0.2400037383552899
Ni 1.6901563072039592 6.879333081993066 0.8472528492951 1.7744553314018923 -1.2589095525753866 0.9975240061102111
Ni 7.863421733305358 4.3246095450302 4.434086596564247 -0.5037505859637905 0.3003164192024183 -1.7038392117462269
Ni 7.60463385994579 3.8878878689527228 13.360699594510393 -0.6668739689212578 1.2801610057549953 -0.5004156080532866
Ni 4.442723219056304 0.4124362029883089 10.70406610603351 0.19279005678396474 0.8245535551553348 0.6187652863394891
Ni 0.5974992413979567 -0.004845759507873802 0.8344624574757885 0.3684658224851461 1.4079911127278073 -0.30476339923017837
Ni 3.3209769702547227 4.2841413742296774 9.938862084534719 0.5427562778030265 1.0913926685359139 -1.0223081550334265
Ni 9.291864977482668 4.995273264732478 1.8949214121431683 -0.6085572354582358 2.653490305434559 0.418804422838698
Ni 6.326006032811573 2.4699021778352273 7.5677389911479604 -1.1256734440956548 -0.9630138881484834 -0.2153535439067775
Ni 3.5679452491157426 4.665832919695194 1.3247992036637763 0.5303859291631318 0.18123449073588144 -0.9846144971373947
Ni 0.4515130804534267 0.46140479213701513 5.34464146437675 -1.1821397546134997 -0.5292821545759917 -0.64643138479619
Ni 6.738613176571053 1.0766343394045663 0.8023941516286426 -1.0266489485006254 -0.762610537793635 0.9552334728721161
P 0.22933669814268917 5.717036391431575 13.048793019161947 -0.5922608122910575 -0.3398170484002018 0.054972499581137584
P 3.867183010840415 6.4353349966187245 13.329138626246133 -1.2366911074968183 0.40520611532897316 -1.2550901788292967
P 2.3435157017819104 8.613010726712563 2.0738534358349687 -0.3341367101859729 1.2904940122498871 -0.6122025455203071
P 6.147267802935217 7.995119256847969 6.503030284367374 1.24142887929212 0.4874834733726508 -0.07994176793196554
P 4.6031881547311135 1.1484294632959846 13.181031702792968 0.5411809628961066 -0.014693083235800503 -0.24876451526705545
P 3.8168423249134937 6.184609677279048 8.84988435885684 0.5714793567693318 2.055679252749234 1.8853472678584693
P 4.651334948407724 1.3724715681412574 4.34714904553683 0.9219896232173218 -0.4677566843676847 1.4140018376982615
P 0.3816915454655171 6.020543101826644 4.050788939147148 -1.1368238042855194 -0.5390867993712394 -0.2686931358701824
Ni 2.5210747145737247 1.7258436211423467 5.330526510111313 0.7210550829493517 -0.9284515767925817 0.5383200964085438
Ni 2.003398414459782 6.440326101488181 5.3752663719475455 -0.3937536505176573 1.1496680072380394 0.9358208726734593
Ni 6.84752164436356 0.8115545658954608 9.786581281075339 -0.12224541379618303 0.6400187964016268 -0.8375993325956994
Ni 8.617672747744473 2.3817077093727366 10.741447287613491 0.6952298943561317 -0.5946470531350468 -0.2326141307594381
Ni 3.647482984407216 4.708732654406478 5.552030098798622 0.16727031524630548 -1.0909782067063147 0.5620608916689094
Ni 1.8440304249101271 6.849925784621193 9.861397577419789 -0.49617123095463583 -0.32136475523228525 -0.8924962417438952
Ni 1.278956910971763 1.1645088652472204 12.211810327963613 0.059789975574438964 0.6128715465628736 -0.943006334678305
Ni 4.099543623801449 7.189010114342134 2.122031309651792 -0.2850844327440123 0.3632606241351228 -0.4655504207449853
Ni 5.2951234880436955 8.281074829240552 8.64472892392143 0.6213261050881299 -1.1300558894340667 0.1716018527421238
Ni 7.040538456302356 0.9701391530874002 5.46350106176796 -0.4929509242451252 -0.35468779486444724 -0.21828228751779827
Ni 8.076503518116787 7.333359083194869 5.13837537148962 0.8985542750125171 1.5872461111398148 0.49213485610173296
Ni 5.180410347005574 4.901438664943146 7.89077682730142 -0.24276330337829807 -1.3884067628379768 -1.5745572028182366
Ni 0.7470852138765384 7.4077046068272745 7.566106369665021 -0.005528900238029188 1.2396841286868716 -0.790287177773297
Ni 6.710503932113946 2.0503477086164312 11.980806271710687 -1.0275071827358628 -0.9431364324982661 0.6777664474640456
Ni 0.3445334095976502 7.743653498873813 2.643736144410368 -0.20487089920789878 -0.7342363575263161 1.9734111506769367
Ni 7.236827824181197 6.570323358536801 7.853703704758253 0.1674729181754148 -0.3767092934408609 -0.8602286399594411
Ni 2.4968413464255015 5.601500540799587 3.249126999057047 -1.8137214759913667 -0.5925240932547731 -0.9919837930182722
Ni 1.0779323923193336 1.4775681481488505 7.435045074874999 0.48330105986018695 -0.49349985477005975 0.7073457037830593
Ni 1.004619826288117 3.4598046436108434 4.206695149550167 0.8055374190641481 0.9797558834935126 0.10700879935208668
Ni 0.9103592457535169 7.624634844294456 12.228921773394266 -0.886393471280267 0.3222314741079547 -1.7970203611866018
Ni 2.4693628459903594 5.31906433722521 7.546479261120678 -2.2661279031552266 -0.775362952363297 0.28170368919723743
Ni 5.932805694249634 2.7301800696814653 2.862430636895508 1.0597120496031813 -0.5132618678883354 -0.6465406566805446
Ni 3.9990085114309606 7.1023056643663125 6.706178307893751 0.307825840205586 0.04020331169176302 -0.04885918759454811
Ni 7.9875686110198165 7.636152778608587 0.7377639141780307 -0.646153705654771 0.09854909862050769 0.7518481570708083
P 0.21937551320450752 5.67662306793731 8.573859805383998 -0.1860655935759376 -1.495872961442456 0.6571788531206811
P 8.202378085978363 1.9731958311471707 8.50078308276969 1.5130307041686653 -0.675177860801263 0.12193456742398355
P 1.653152657915385 3.487721922496047 10.969614824011119 -0.89322977747581 -0.653683695483229 0.688518543774227
P 4.050756944885165 6.560395996104145 4.320912836588427 1.4279313032951602 -0.823408128696982 0.8956376155863542
P 6.672019405556412 4.125148174606117 11.269105797466349 0.49246010065163576 1.0357606809939066 0.009318706297764595
P 6.666333568141024 8.009388697692698 10.571091554376865 -2.448560785074583 -1.4248583207967913 -0.3201437383409906
P 2.0956515835853478 8.493681270731079 6.197263864954485 0.8146254974083454 1.0661840304807702 0.20461610288461535
P 6.946639867989056 4.534153678588003 2.087473850222314 -0.7129481375715011 0.0305462482179732 -0.26705200072233365
Ni 2.8045347345315794 1.9422071031115318 0.9689754760729646 -0.26300199902267607 -0.3127397325674356 0.21915029194504837
Ni 0.7681730890108792 3.4126176777937434 8.957773580874726 0.26049697321263526 1.073979615265789 -1.3259752358756325
Ni 0.4037081683191561 0.01921941023449287 9.396313445154648 0.679088765819895 0.39884777721111314 1.0076479819180904
Ni 2.6733674016161273 2.0032795786295567 9.549664685207826 -0.2889338883970895 -1.5989436020824013 1.0975095800669292
Ni 5.216646134006538 3.218449072423535 0.47452152542856035 0.3087586364325005 -0.23175152564882667 -0.06131618241097828
Ni 3.8337078715877575 7.264105217826727 10.9843989154129 0.9604944641607395 -1.1678637043104596 -0.6399977133557042
Ni 7.49919905488294 6.506755330584047 12.200491672195552 -0.6780952915583741 -1.9432731936409757 -0.9885138321918008
Ni 7.460732810760826 4.18846938968071 8.790025837050655 0.7088873372385662 0.3182244098310907 0.28203227618124976
Ni 2.9729890944846042 8.588302015243439 12.862917326497913 1.2837464091134085 0.6049420073031517 1.5653971335855235
Ni 8.934836437397728 4.781039686489636 10.884510087134483 -0.1367142968363194 0.3305564490338823 0.5550507788996635
Ni 8.582799002182243 2.8866137283463296 6.379099139390864 -0.13134789031808347 -0.1073175888417571 -0.18858681733589458
Ni 3.3325040457865636 2.662562482283347 12.091170935484339 0.5850966904424505 0.33842556736931395 -0.39193073837630565
Ni 0.8586409783177547 3.5373952995301656 13.134700354953488 0.6055279617136088 -0.3504956111599705 0.05592766440555529
Ni 3.0960481672916167 9.15319270482761 8.084666625531485 -2.4606316001961877 -0.8692208161557223 0.32977843321727723
Ni 5.606034584783562 8.363528612981396 3.835171380543069 0.6680947287022365 -0.17838545132286052 2.162099269477386
Ni 3.1857875015470345 8.453907832476489 4.056823056957273 -1.2957696588265297 1.5783434093335462 1.3526347474446898
Ni 5.82088062461295 3.2081012139762364 5.157842508724044 -1.212554362349615 -0.8952033562624131 0.5713533727144289
Ni 5.929396020043943 5.851668245858976 9.819641409043978 0.07186670423331494 1.0108891145632073 2.0779138957777183
Ni 7.7547235135201715 9.451196402161484 3.139310808345973 0.09212185493792523 -0.522480815383442 -0.6387730969199837
Ni 4.662350115747826 0.7390555682404011 2.323748732606611 -0.7862014377396976 -0.14225733814173566 -2.1308742500248337
Ni 5.76555797503428 6.084659602841975 0.7690314493538133 1.8236778158731302 -0.8287372542193792 0.5143638427032625
Ni 8.104100854382153 -0.2979451935405311 11.785110168861202 0.5601261365400417 1.8764427662799876 1.0126652326270236
Ni 9.027564949844193 5.33580190685154 6.2672371441563755 0.4155208669914198 -0.15218205345461533 0.9069052180803736
Ni 7.057495415153715 6.524068796926084 3.079025391672747 0.6404219453773163 -0.4471544347363009 -1.4067433563636356
P 8.504056552831507 2.0718112877986377 4.0555789372269935 -0.40156877568670196 -0.1829303903810656 0.8504440497688514
P 1.8240020169083322 3.750714756002045 2.0752045078124515 0.16195455946034687 -2.005874927632597 -0.3471488061749247
P 4.65879418205878 1.283253283295288 8.622051391027385 1.1388305503029033 1.3501803723669263 0.11504786760647928
P 8.548610847948234 1.6238550551560271 13.26909362359867 0.5678628430626672 0.8301395338835446 -0.8911687811817233
P 6.151244232638905 8.260305982604278 1.7563542634917721 0.670655033230245 -0.8328268509077206 -0.20387793916701016
P 1.7464113609890097 3.422097120558628 6.453768262130189 -0.8196337492562141 0.43905108890287614 -0.19296540601956447
P 6.81314152455765 4.484142076498628 6.5054252834072965 1.2432494774406266 0.5574593883411562 0.768834664326476
P 2.300625108288336 8.873745679444283 10.802442976902757 -0.9567797343133135 0.24740517302568363 -1.230759572503732
