# total energy = -381169.7616698636 ev
CRYSTAL
PRIMVEC
9.21463472886125 0.00000000000000 0.00000000000000
0.00000000000000 9.21463472886125 0.00000000000000
0.00000000000000 0.00000000000000 13.48654935523790
PRIMCOORD
 96 1
Ni 8.704512520325745 2.2796914094428233 4.777016825553594 -0.8021517904213669 -0.9982359445755712 -1.3983898421926173
Ni 1.2823914961691367 6.353352404171743 4.853499215003496 0.8649067621614007 1.4370882872040798 -2.019613103154296
Ni 4.338563313002891 8.680112167647662 7.190313066397487 -0.7671500775352014 0.2505221213881105 0.046355704446404036
Ni 6.847413472729401 4.7654036214447615 4.467406021192469 -0.11251198855850301 -1.27107215607985 1.1423329070292068
Ni 4.258607927735629 1.735871313520499 0.8624446559442116 -0.596930706962901 0.5195343311606084 -1.128309339056605
Ni 1.7339638841381868 4.243827653681383 2.203122402426768 0.23477951384187304 -0.3045641387351787 0.5005809299865573
Ni 4.211687007857687 4.368243651362445 0.9314539766547166 -1.564116467100887 -0.5107306168260495 -0.7948791680193535
Ni 5.990203650756645 2.6657661739844563 5.351314325736776 -0.14049638958657093 -0.2911221542976599 0.10691109743195781
Ni 0.6950663454511085 8.79824378446526 8.238177366108372 -0.27012729721354767 -2.024508483573384 -1.1066112852578813
Ni 5.8518643400481745 6.830080744864041 3.8040969927616546 0.22087138840121318 0.7762792935299793 0.7200916905948179
Ni 8.064159911315965 9.531157399008018 9.955635996577007 -0.15710597311879396 -1.4821180737502087 -1.3126736336707199
Ni 2.1069907259486405 8.023348294242242 12.557190910137766 -0.8298397432549386 0.6870514723103974 1.1611675232372067
Ni 7.575830345539942 5.265518704998454 10.091377701764348 1.5163985921996337 -0.4245045585472689 0.793698517447691
Ni 6.244914583055558 3.672234648781817 7.842671422954196 0.7748806134102397 0.5004816854045315 -0.39611777987445973
Ni 6.475225162676388 7.676767454012639 10.790022089868364 0.22628973120330706 0.4754381121723425 -0.5448095607876294
Ni 0.21431581671349953 4.438772465334512 4.110309439846467 -0.5763140591538138 0.3838759863926292 -0.42794777990086297
Ni 3.755839029389155 1.7414093089734926 5.7086808958794055 -1.3769735813003703 -0.7209794925164099 -0.2391424187962591
Ni 5.948498214117297 5.823437192007434 0.955795355670736 1.489228973763377 -0.17956121679851655 0.6906708142305396
Ni 0.8928815158124026 6.109514740815481 8.3188275348318 -0.06284187502688532 -0.47255924796265064 0.5879524147236906
Ni 7.382341446168965 3.7546134829744324 0.19967284071624172 -1.1430705565261796 -2.1360501377988177 1.1409424544395834
Ni 3.410704886807007 6.211474673739562 12.115088402246991 2.197509787766196 0.30560337863297043 0.7159781826470766
Ni 8.887542809315443 7.361765166890205 6.447366557596463 0.4838595034668184 3.070178196150887 0.40464201529538696
Ni 1.917510192670928 8.31922099973337 1.9262705458775184 0.5112846895573065 -0.6370625419867804 -0.9610665346141255
Ni 2.206610141659643 5.1013876317726305 6.492303566624106 0.7192936201735547 0.2780972027929017 0.8572901261564075
P 2.1993582241529777 1.0421567549794641 12.842781926233805 0.9267698182147845 -0.20565662833398776 -2.565366258802117
Ni 0.33539519517071953 8.535709627308458 3.651186580206563 -0.18283808777757543 -0.055963402739497174 -0.05188614734632999
P 2.289606356376968 1.166065947752182 7.681102018174183 -0.03146104672275872 0.755750320338692 -1.95854580352933
Ni 4.419117649525469 8.778248027172422 13.581359776724906 0.28182427393550175 -1.3077556275438122 -0.7277047270553855
P 5.7613489834179665 2.809072172794697 12.681429065369175 -1.075198832384871 -0.897546659683609 1.3794474967621597
P 7.428829278216139 5.680896007877057 2.6981058559176105 0.19813306626343297 -0.6048250221093132 -1.9693297815187114
P 8.45117456859671 7.2087192992050655 9.36787867949168 0.8487406939244996 2.563628450175404 1.0298463723920004
Ni 7.696477557629865 5.540851989749611 12.50266515224426 -0.7586659513235902 1.7674493323977045 -1.3026535304305566
Ni 7.300174548574383 8.385750662246869 13.247230672361574 0.1423334427953097 -0.34928230757815976 -0.2774246022059093
Ni 5.4471022963407 -0.1503128070339618 5.169731655858 0.0419766015421019 0.6529061938872562 -0.5161936968231496
Ni 3.9540458217250785 7.995289731589388 10.774822549935397 0.6328770431505231 0.44920951749311666 -0.1801505136430833
Ni 4.300221218028006 6.233211996990164 5.91843731134475 0.36223012598807935 -1.0244665961373258 0.6250457200315622
Ni 9.084330547908005 0.577785239416058 1.1855134342805393 -2.9425026124780675 -1.62459884075666 -0.3088159720329972
Ni 3.558599773696433 7.8298593948712645 4.514757264510767 -0.5064962670297277 0.057850592459881015 -1.9677722072236046
Ni 0.38486304007895616 6.454575166320052 2.383909849331179 0.13394110496655642 -0.32645193994720556 1.7642452236381099
Ni 1.9647996979367557 2.6993535174556063 11.124771339146811 -0.3910632481696878 -1.0273953397483468 -0.6839725762747575
Ni 1.2147100043184926 5.656154713715181 12.29072394689222 -1.561681118186517 -0.08035905797504224 -2.2176896051481805
Ni 4.202767241470836 1.3683732525283419 11.744572548391513 -0.12503583205712662 -0.10958813004348868 -0.035432629775997045
Ni 6.903733319998446 0.9878088395356112 11.64434035947315 -1.117339984529295 0.7653868149871915 1.8479657418862174
Ni 1.7897953557682824 1.5151163100806235 1.2211639344603837 2.3259824134190135 2.5405952225050243 2.259091308023419
Ni 0.9855236101307154 0.4860931739350226 5.520624945125874 1.2606352770172418 0.07803478071723981 1.1198622367305164
Ni 5.801801229738501 3.5138350783376278 2.364178552054149 1.699446739105486 -0.35934560535143273 0.060057627413528825
Ni 8.506701957281798 3.0298732494080585 2.302477358121962 0.3033498067121034 -0.09623227756187297 -0.46739313038067887
Ni 3.523611805751315 2.780027644229247 2.6929134092657607 0.5657959332313095 1.795892932450378 0.4690196102405084
Ni 1.7572769099220031 3.4864676132870605 -0.2245763124487878 0.8871560604779044 0.7645841165802381 1.3353127112264744
Ni 5.3714870040158 7.082008857484412 8.409605508550877 1.3645494966044047 -0.06883511649584274 0.4525524658234206
Ni 6.567758524305274 6.757911725915879 6.076095103695819 -0.10283461336973901 1.113108462946451 0.25735071427416967
Ni 1.9621274538745792 3.6066909521809145 8.687725298834456 -1.7756917749121548 -0.6399527190503818 -1.6022240726058858
Ni 8.506232010912242 3.7030760311132136 8.342955134322846 1.4068528853583062 0.011330594521470809 -1.0015184719815848
Ni 6.133067347101423 3.132063548199569 10.626995851342729 -0.32444210860602835 -0.03667704370605941 -0.8174737654904178
Ni 8.785389369062722 3.123530796469998 10.514747778779267 -2.309417052861164 -2.244154741318245 1.804832401031853
Ni 4.99293138138705 1.6866283056988731 7.586413353489631 0.6052734225006414 -0.15780197074455404 0.5456737085601375
P 0.7105073088131404 4.708890266847076 10.342727135325736 0.9775910146317099 1.8852719345358433 -0.5615746960611103
Ni 3.8373148293814485 4.002155429478954 11.88249996492902 1.7700065516019192 -3.283006659642965 3.179369604976589
P 9.191966695805537 7.275258176353263 0.5290582511374731 0.1446582342737444 1.5027200662712765 -2.0467004462893916
Ni 4.387511452514208 4.922135343008766 3.6099446396924817 -0.8101926584479725 0.34315588296544774 0.19482071406074833
P 6.987273198162903 2.0567801814838123 9.016715401427179 0.9732090835139304 -2.3789952181706187 -0.4912545103793088
P 5.706586409412741 6.937394380547173 12.656398431677808 -0.7551952191661704 0.7980899616471675 0.06447786796841154
P 7.850647610748058 3.482247310595761 6.24785958030477 -0.8199821337345685 0.30649632276088506 0.0021754103847639954
Ni 9.084791279642863 2.258276598406622 12.659109377205713 -0.3130076415168416 -0.7295561784418274 0.737609130653291
Ni 2.8418670576818914 4.864110788320746 10.292840024538776 -0.3059795310254666 2.603890897239877 -2.1986423587087427
Ni 6.943208815041081 1.474958932070398 3.3574221831341453 -0.6350758505740547 -0.34505541398100575 -0.009972023611047343
Ni 8.186668479614715 6.813835343892947 4.310921251838349 -0.09975391756188627 0.21008741041183174 0.45493279313013907
Ni 2.3118412699012163 5.980168913571437 0.7116416303443609 0.8178504321035464 0.8155827191152921 1.0687273657279142
Ni 9.183203578208536 5.023385749061166 0.6323192904807936 0.6276340495840288 -0.921332192138981 0.9323447411994007
Ni 0.9198831598654922 0.3666300424036846 11.176033273430585 -0.980508445388821 0.16004834357656955 1.388353798112854
Ni 2.5191429066832374 0.4965821926108004 9.611620510647091 3.490757194391504 -0.7113967339239813 0.7250693463150675
Ni 9.085915465075916 5.20916199919062 6.365799532720668 -0.7141141328551444 -0.9883811632686785 -0.8758498914364657
Ni 0.6241155012099115 1.5587015321981932 9.228427162375262 -0.42591532285186645 2.611752302265825 -1.240514852118283
Ni 5.6103395500009 5.30661597574779 11.16268218921787 -1.1598981696064798 1.4083446394124843 2.19346698515539
Ni 7.6962011185889505 9.260615724299383 5.108691151233599 0.8010932672498654 -0.7670472334087499 0.6017841784004604
Ni 8.479712292253815 1.3632407010020233 7.0076375408436276 -0.3135971954717244 0.29553442443274264 0.963049112261793
Ni 4.072665814181626 4.084801488077787 7.599576459154525 -0.7215677609197122 0.6133256033811566 0.06380552449173527
Ni 7.6366377199065045 6.015110808343071 7.979748328709157 -1.7742067057261959 -0.39631549770756264 -1.4766868754323084
Ni 2.4093597489012666 7.630076900002126 6.411829397423394 -1.6862950322148762 0.5706746014798495 1.559071962698444
Ni 1.7580048660630787 7.469346026979554 10.123408693435147 -1.0624757283912476 -0.43215564733462347 1.0776310959754474
Ni 7.117660279127724 8.401065385113549 2.1324387825917888 0.6292597581129098 -0.9479775626406513 0.600433835020153
Ni 8.839903147931123 7.416398736009669 11.493736369982757 0.6537101778457903 0.7255776534100536 0.2637188225840426
Ni 1.8444289248877477 2.6499446462094314 4.353890014894678 0.9270238432071197 0.3688987962575066 -0.8187744865797125
Ni 0.99612044003245 3.1889823467239293 6.326500037200748 0.05431558272342903 -1.3571164373651272 1.9692318224882668
Ni 3.179500487620551 6.714842523341352 8.541894490117194 0.2194544534490285 -0.49811087117950986 -0.863073565607404
Ni 6.488107221983019 1.3735058040546604 1.0168616612722887 1.143266988807702 0.05825939786252548 -0.9910394268271318
Ni 3.8830009882099707 2.6456414118058578 9.545981903308808 0.5760687759122273 -0.29725449244764285 0.4336617995665048
Ni 4.535627490636367 7.2980459679593395 2.067312508942667 -1.6090619214633255 0.7998552810777063 -0.896496878262856
P 5.29727233616487 0.08696495788139214 2.760683361609498 -1.1681308419289174 0.5707743602825074 0.2353778095475043
Ni 5.2707434028717435 0.4377872944620978 9.614359100079088 0.006451926272930824 0.1278085097062573 0.6222974678624638
P 0.6792079591372951 1.3154351761931544 3.0880553743493997 -0.23796511065870632 0.31904767706333437 0.24292348310524614
Ni 6.720896538337386 9.04796959939301 7.901540038180476 0.8170798724861088 -0.3437793754820595 -1.0865510241728964
P 3.7269327203441622 3.894786505987639 5.444978323043004 0.08467851128600257 -0.04003361888311815 -0.8816518428302237
P 2.7016571761298964 6.361212487568421 2.8658647308237066 -0.47722759997259745 -0.19370639795064704 0.9013200106831123
P 5.315231659189635 5.100493812207006 9.178041539851188 -0.5688210932108784 -0.10958118806495322 -1.1250106137006755
Ni 3.055747943637685 0.7721135920079466 3.4130002523100695 0.30198969313978313 -1.6843152827806862 0.2503290315406979
