# total energy = -381170.6159534366 ev
CRYSTAL
PRIMVEC
9.24256465790637 0.00000000000000 0.00000000000000
0.00000000000000 9.24256465790637 0.00000000000000
0.00000000000000 0.00000000000000 13.52742762959512
PRIMCOORD
 96 1
Ni 8.158883205199125 -0.029280444875248883 3.077286952024291 0.032539367388602025 1.8607960608816665 -0.7742596919967892
Ni 7.439321817928686 8.743724969836475 11.413942570346844 -0.7566802883521291 -1.1072661452330608 1.4566410125250269
Ni 1.6175689706287668 5.99394182710607 4.246530535220688 -0.05069084148664818 0.1685764356522387 -0.06539703734857125
Ni 8.473269042456572 1.5010849280900163 11.892489295737892 0.9507486976278853 0.4552410683991772 1.2779501141466056
Ni 1.5438872450777932 5.911304056389656 8.711541435398312 -0.36691827549236805 0.22776528730756906 0.5568230403087377
Ni 8.655264383377823 5.700046755722496 0.2056137906795255 -0.6296906750027413 -1.0082017975390314 1.467292321591286
Ni 5.681404502782668 3.8382707413772432 10.322158148882139 -2.2952183927632794 0.6379400594957271 -0.4604336683437103
Ni 2.1671688361785773 6.9787186075884 11.30829358637099 -0.1643531415995105 0.24486775131581054 -0.8989615377532648
Ni 7.114085209748404 7.558763481161907 1.8535011461960065 -0.5714166218521965 -0.8047948844711689 0.20268751840333477
Ni 4.148146207075624 0.6384689733668852 8.541407077718349 -2.6603536082132955 -1.7187161288580595 -1.7693707177901334
Ni 5.42098600063462 2.5289875153235797 4.340856453219059 -1.9471506743185112 -0.10367973497885369 0.824699850925212
Ni 1.2149905812881052 3.0627918378519885 5.747952816921167 -1.3330635101809816 0.1346103631194391 -0.6362834977289107
Ni 4.643427520058566 7.901403838616208 11.813421003497115 1.1690055312243868 -1.029909364419452 -0.42556642415288
Ni 9.201573895905037 4.182999918447014 7.5530802281461895 -0.9256462461333026 2.506836637997341 -1.9113976850886176
Ni 4.015524646622674 3.868891358129674 0.5082014941354396 1.6028910167659234 0.2283424999672777 -1.2181262000104378
Ni 7.57253490252053 6.223767440195697 6.324396787299157 -0.026932305614469746 -4.181413867554657 -1.7535121534913218
Ni 0.3713764152704744 7.643175824295001 2.084225136571579 -1.7037528226800076 0.06573822273807389 -1.3842785996022158
Ni 1.655925614010169 1.2795314103802338 7.256207202425871 -0.29356984450720414 0.2820369041669401 0.21653470869907224
Ni 2.977113263359073 7.4730294512809685 7.305608710588183 0.6667405286671872 0.13487390119347095 -0.947345585483607
Ni 0.28897802697901886 1.7443954430334907 1.87948754102279 -1.40840403189551 -1.3110692652980775 0.3710747208629029
Ni 6.608184189959381 6.948726485233544 12.983165533698639 -0.38106268531355014 -0.09226480827369271 -0.22936631324610177
Ni 6.113244851869237 7.679591529095659 4.490254192804921 -0.6019016778149312 -0.8639210012093638 -1.6462364736310937
Ni 5.134595891763262 8.48851003159776 0.9965592019239221 -0.0657266527738481 0.31011052247470466 -0.890102544700738
Ni 6.17627914292012 0.8754723621794033 7.508709447933877 1.6442724079261875 0.48887495440353873 0.07260641061281689
P 4.6682068359394195 4.651588704662369 12.137010586653165 -0.03792891383528951 0.4542666203010499 -0.006645273230659524
Ni 6.852169412123782 3.9277387673849486 5.624826143153931 0.33854563788694597 0.5292171056660112 1.3380838462137083
P 4.960567641587738 0.7886172092039689 12.184221606988634 0.22476378147708387 0.16123413635455458 0.9117599750695136
Ni 3.5287464931363313 2.560061017744851 9.751219050021732 -0.6562206029724699 0.53646478836736 -3.102197429369961
P 4.106794972741071 2.752694550601523 2.7101926169655277 -1.9261303633131022 0.6055130493152733 0.5325276580964828
P 8.093316451428603 4.970817645807009 10.00603563372316 -0.8392808340631803 0.4488737314202528 -1.3094733815658675
P 8.91019280211176 4.740077018815031 5.153205795726745 0.004585819598469521 0.07058346664551714 0.07949156776842438
Ni 2.1642112154841078 3.123700339028722 1.3632265304949207 -0.18381047899317376 0.4539465179574699 1.7315976128064179
Ni 0.7927994697172424 6.609968004940733 6.469330368149304 -0.3760266655515395 -0.5752136270007835 0.10211624714647574
Ni 8.861493728864385 9.16767216869468 7.71187858025813 1.668201150827643 -1.0845859300267258 -1.3099801459989568
Ni 6.354216997951146 5.0899727895354525 8.118202056803163 0.08037088504958416 -1.7598928602066852 0.04194009187721164
Ni 2.225840636705118 4.8706097596525115 12.894398094092937 -0.3455310680658436 -0.12348545685087121 0.8728208748021548
Ni 3.7719645824331036 9.186628668833295 3.1412991064172826 -0.17616504663277402 0.14851308924346038 -0.2563060750597393
Ni 7.386278739286308 9.317614295339617 9.354513386272526 -1.5418358013258155 -1.1198727782534776 -0.6673102851277282
Ni 2.602318023417085 7.227870423403451 2.0629598437783425 0.8391587066630193 0.12467073540822399 -0.3802689857676612
Ni 7.166961922226718 0.827640241498094 0.5007085469572943 -0.13894807126284456 -0.01215231909181778 0.19768775119589824
Ni 3.960614569916912 1.306408788441226 0.9573430000281895 -0.07616044651266238 -0.13827958444091024 -0.2150344700044619
Ni 8.21772137188973 2.203658481496596 7.3785491824526055 -0.2989156822001497 -0.7163054840795082 -0.502847871643863
Ni 4.971436897639913 5.565807746452258 6.146010667881624 -0.08241954004849676 0.5362279897662056 -0.5370060055828106
Ni 8.421954323407524 7.419256210029643 4.263520217597481 0.9519545450105283 -0.8898328359791191 1.7111038637284401
Ni 3.956834360966793 5.492615876828805 8.42470583490985 0.8137325532804308 -0.4507604069200043 0.8683497264046787
Ni 8.815881672216863 6.560769833201166 11.630286978608492 -0.12571820283613186 2.0637751423834914 -1.7318053579418495
Ni 3.2279564685087743 0.31180531320152194 10.992158131621473 -0.7322712633801454 0.6636346360483538 -0.788399730942597
Ni 6.034488958314314 0.7768967129456662 2.8335632944400575 -0.2875316087329242 -0.3636144079301157 -0.6206244510354151
Ni 0.23756810951386828 3.2083160185845623 0.18120695015488228 -1.560123801001726 1.3869227220932823 -1.5766945608762137
Ni 4.973876934712851 8.798052764968013 6.188690058759288 0.5334270299823006 -1.5476184694458637 0.039059942115939175
Ni 2.8153961093242783 4.778895790429943 10.625672881574477 1.0707935042283236 -0.12253337735024704 -0.7309162920141478
Ni 4.226689521643132 1.8113578240692159 6.452609644404413 0.12704360651577473 1.7535041830715221 -0.016285624533900988
Ni 1.457164260777143 8.428035930960528 3.8218633405746734 0.5226661919213709 1.2078893527737777 1.8652147587746521
Ni 6.104667751855276 5.081830090060991 1.049592113745163 1.0906761020848637 0.07242797605342365 -0.5730240755486325
Ni 2.9867902285687906 0.12875169862553015 5.641356470066615 -2.755628406957906 -0.023756221879333277 -1.2898406949366044
Ni 2.857606902173161 8.514611034226455 13.210047389940803 1.9008322508679456 0.3721882656420558 -0.32983294060429647
P 1.9406428186762177 9.25402545040852 1.4246405999591147 -0.7245620676613457 0.7830454086092192 2.0425177756666115
Ni 7.535712524874384 2.6796875322714753 3.846875569085216 2.357466600070224 0.3353047623521451 -2.2596001293390375
P 2.7877515983956576 5.2948989334035135 6.524467811945954 -0.10911170462770241 1.8567555722637055 -1.6013835789824613
Ni 3.2982184451317673 2.6315337703396424 11.865691403733063 0.8132327308258769 0.9066969587243094 2.7305809770709746
P 1.0385685068629944 5.551638894812814 1.670488198904564 1.6570567041750495 -0.8960790739991472 0.14506703967638887
P 0.18751684905523974 7.915378596397576 9.594287695973176 -0.5074935979459906 -0.23393002135738422 0.7348626782564054
P 4.81572741064076 7.06034893875576 2.6036646650895356 0.6348423944070098 -0.6593817743092709 0.7586602948966353
Ni -0.011775951646324055 1.2919903875556868 9.435854425165708 1.149315251884311 0.43075568166330336 0.3984322869402493
Ni 0.46574022778399354 4.472199766978118 11.3417202457573 0.24671380338561383 -0.9949899268344479 1.1037473334465249
Ni 3.6717751814079467 7.260968047487499 4.623336957234915 0.008631964643385134 -0.6522713885167347 -0.07521608032152208
Ni 7.607120579516484 2.8079188745060724 10.262298678795476 1.721822535697525 0.38217134499669664 -1.2270954933885834
Ni 1.9065932104311367 1.7197917358813717 3.476779249021567 1.959059767051271 0.190139249424679 0.4567364219977812
Ni 3.5092077114234916 5.146823804821961 2.431812114637381 0.3497571903320493 -0.9482200176687604 1.1669854154705643
Ni 4.235072527799019 6.392139240793049 0.3685814637142007 -0.2085601751340279 -0.42931097879697677 -1.14465512740448
Ni 0.7928623191569997 9.053720588875569 11.502019590371681 0.13072388358083936 -0.6062211311258914 -0.3493635544380564
Ni 5.279972191461113 7.6827986990362245 8.379903426927436 0.6658267586036662 -0.22137172507639938 0.09294949304554316
Ni 5.979412515444489 4.816411360426357 3.377176750852968 -0.3207191512284864 0.2315751479719625 0.8084733617640205
Ni 2.638918579511146 3.551039559120896 7.5526735553007 0.2531150789262673 -1.1056414651454443 0.8875455826068391
Ni 8.511930690472091 8.213562217788132 13.477876580441428 0.444981338344382 0.5903340275819898 0.1154553874575431
Ni 7.280146369178201 4.701923711856373 12.04263013752324 -0.6706591469953029 -0.28281003488753875 0.26876127010395645
Ni 8.428636697664091 5.609488107083705 2.8243512302332516 -1.090039239831813 -1.2135653201126326 -0.019488447741914824
Ni 2.015331983776245 8.853896340705466 8.942089817045149 -0.35696065005902394 -0.5793477037738152 0.9654170982733372
Ni 6.3824160627599795 2.449815706358497 12.292251475623539 -1.269579116474091 -0.2785733710983719 0.7705153944630085
Ni 3.242846240192495 3.7603559212073105 4.852112614978005 0.5301812693514933 0.419807924402548 -0.44749896255991317
Ni 7.803377197723881 6.864046107725011 8.446268738285465 1.0798872389994758 0.4942943256468972 2.014551886581305
Ni 6.118651752201314 6.211317705584915 10.366946693017546 -0.12558424836142887 0.8879219921096515 0.26709982324113357
Ni 5.55824732855202 1.3697295989968858 9.92968650400836 1.729846691553582 0.596319041520831 2.6376088583176123
Ni 5.762221488259049 2.679595106624773 1.3933388061904894 1.9737037422166912 0.2284240039374905 -0.10269628801966185
Ni 9.24681624996575 1.1941208702627544 4.711047971698811 0.27101252803197845 -0.23653789129387653 1.0563413333587355
Ni 1.937047461019503 1.410322943028481 13.2962028807707 -2.289141333331264 0.32741404675015867 -0.9250070698874068
Ni 7.31626631190941 8.225586794424084 6.414124529374095 -0.4937911607582335 2.390023193850006 0.5794484910177375
Ni 1.3149396756318368 7.049701504255669 13.397726908134237 -1.0699075020789446 -1.1344684166794656 0.9344910981184421
P 0.7782572184651222 8.711708725818841 5.94148934834612 0.6770768775961887 0.49502297628280545 -0.521105018081838
Ni 6.867632222817056 0.7517366034004002 5.0837423766912595 -0.08091493047851225 0.6932249481109609 0.23093108663006034
P 3.65236579560049 7.189523022586719 9.817003004062006 0.5949435013295432 0.5093157387563939 -0.6856715612437352
Ni 0.9280274334071938 3.516832827276421 9.313728721152257 1.278972384763533 -0.7647622940293152 0.9014609071363509
P 5.38994946847203 2.772251817443703 8.147866992368693 -0.4955271696127337 1.4078090786239883 0.49394311295506543
P 7.728604849541822 3.535151590452792 1.6556899286110787 0.9258974429121603 0.2643510568514028 0.1247201005889207
P 1.4682645809460741 1.9699509912454773 10.766182046716992 0.6497193115188423 -0.3777248791895688 1.308244651365089
Ni 0.8948651113704537 3.9492739430665553 3.4173939225024856 -0.20100730248743448 -0.9928230010901158 -0.41970148073167074
