# total energy = -381168.31342695205 ev
CRYSTAL
PRIMVEC
9.29317888160013 0.00000000000000 0.00000000000000
0.00000000000000 9.29317888160013 0.00000000000000
0.00000000000000 0.00000000000000 13.60150666213445
PRIMCOORD
 96 1
Ni 7.596318764121303 0.5983060082806217 12.329317112022629 1.6703817034187298 0.8927330403450496 -0.8539224952357551
Ni 1.7107255414364748 8.06451840940884 2.405562586725001 0.2310431867278924 1.105797016886702 0.37820130460535506
Ni 4.841774077405031 5.984872252688337 8.205298917666553 0.27887933237456486 -0.11856719361364741 -0.5810757422085153
Ni 2.2074180731782627 8.003369292360906 5.058278195152361 0.38038057164486105 -0.4641283435864781 0.5908307647127502
Ni 6.331628636337211 3.810770225804428 2.951350053186019 1.350857600939609 -2.2306898740625907 1.3997322151531248
Ni 0.7413429003710459 0.29386518535607453 4.769136732622346 -0.8633468738734486 0.9622351010009298 -0.7508479979410683
Ni 9.02851844126543 7.0176789809921765 2.0353297745827397 -0.2935055669281719 -0.9073135092623859 1.1068061748775069
Ni 4.4052827584651455 4.958384886024709 11.414262394705261 -0.7011395749723474 0.05226204262850999 -0.172386039206316
Ni 8.023777113187238 4.288290929511278 0.9726073741377136 -0.018950058739941558 0.345014019220109 0.11129405699100188
Ni 0.9381928740994291 6.881729067117672 7.75427306695418 0.7311538619462504 -0.9515089728326775 1.5625493797240833
Ni 2.436662209855839 3.6874125693159345 12.30427664152329 1.2104640554794897 3.737376381180783 -0.09040461513650237
Ni 8.413858296787094 5.638877909707842 9.922707184037552 -0.006827821555110822 3.041798873677245 -1.3364640512220984
Ni 5.395926334178335 7.378040578525271 1.5517276146150738 -1.1903330890575694 2.0786978251315946 -0.9386557710190931
Ni 6.242339773632566 6.781121112533943 10.45920518888746 -0.2279555489415042 -0.3255623382534006 -0.5692949475235034
Ni 5.6080338489962775 -0.03942445277392906 10.606019758193687 -0.12769203873305104 0.5473071303985027 0.16025403182947237
Ni 0.7880894487866266 2.644420516956694 1.5876085782810427 1.7033918397961632 0.45864340921250685 0.8053736397927742
Ni 1.4987016652284764 5.821479581573324 5.730832056116034 0.9595565257275024 -0.23988135384481268 -0.5982831072257374
Ni 3.1046373215840224 3.2703068215252884 2.3453762430093104 -0.774691123107253 -0.4544257715867334 -0.7699849758808351
Ni 3.4884363162591976 7.64080521143262 10.86167325062002 1.2309189808997316 0.5507223267276387 0.1981163540928846
Ni 5.9652822316036795 0.7009965642519566 0.380582625463885 -0.4502554422591278 0.7839725484091788 -0.6739249622307684
Ni 2.0923778117897545 1.7920036839442615 12.982366449147365 1.190918015026762 -3.3062849134446157 0.9207958600195368
Ni 2.5753721978584942 1.1353662504529292 3.170511090775904 -1.6003839340733534 0.28371506320031137 -0.5079270859389833
Ni 3.005023737140738 0.8923942299298802 10.558291850088095 0.5859212432262748 -0.3001166444867863 0.5849511660035217
Ni 8.594303951151797 7.613650542737473 11.247017700943383 -1.044003123508357 -0.612016654761746 1.9710506208645602
P 8.756349111328825 1.8472330460439386 9.2966433797523 1.7390188449711534 -0.9763558566730282 0.30230850993178254
Ni 8.528582590093592 3.6480094908534353 8.18484277231003 0.20972771307956783 -0.2074736269380685 -0.7940774980536647
P 4.972194549844349 2.215921331855901 4.464626210856179 1.4023030612040945 0.540337898169521 -0.4197709005170254
Ni 1.2988983192511823 9.353491613613338 7.525591167599006 0.6299202745150442 -1.79355374279424 -0.5779341112557401
P 3.87079486820756 4.552068518916837 0.4366093423116948 -0.7956178459575911 -0.3600891683856766 -1.0982498006670636
P 3.8717520656324744 5.248768846571338 6.189433706253555 0.38281154968385683 -0.28071175759761335 0.7056068667150815
P 4.8895224305041625 1.819883220592256 9.691617422033879 -0.8454519958708988 0.7836519318449664 0.8122767946705108
Ni 0.1437208700561883 2.956745672845294 12.96997492442522 -1.4911079359536448 0.49176615990840467 -0.049008568688218825
Ni 6.808749733352106 6.053474499200169 2.5754316742033434 1.3930599453392718 -0.9830926611762294 0.706405451356977
Ni 6.625859972941261 2.4316067205436696 11.032794129293856 -1.743771014944158 -1.7049599556142314 -0.47789917211832533
Ni 7.9534091626876995 2.0355035570278455 1.7517512089318867 -1.8626081743897407 -0.8689490505515745 -0.10812517234471701
Ni 8.254378053981682 3.657758035501351 10.475499848740322 1.7651139993963085 -1.5303607108066806 0.8252390112581336
Ni 0.9216603088671683 9.362784792496 11.615999651208035 -0.5686794254266916 -0.1502336714789929 -0.8595400985328487
Ni 0.9923721069853652 2.777508131735337 4.0410486932916445 -0.6051389538053061 -0.17383357028611998 -0.739770399970668
Ni 3.1500252072469577 3.277155894361812 9.781006651070456 0.9401850631794259 0.7976698433906133 0.9250836887616134
Ni 6.626222406917686 7.005876643811193 6.133762918156951 0.9472800223529944 0.8034052032124938 0.43184428674179176
Ni 8.013684720920663 3.6494592267591317 5.133357787345411 0.28557757033034686 0.4490012581370525 -0.3629598050652523
Ni 2.9733990494030293 6.662372872771252 0.9937149713339102 0.7268881446913611 -0.17151674922748528 -0.43820365330091626
Ni 3.9888275331962864 0.5542145210718183 1.4563405679276253 -0.7547483614367387 -0.06920715512328081 -0.7470515070131134
Ni 5.668746186636727 4.185787166435484 9.568224451465632 0.5002932235428094 -0.7264898808116779 0.3156229676525016
Ni 1.2776076464309971 4.751193462835697 10.441129026642788 0.09973514850880888 0.3214526869604012 -0.6837751155519708
Ni 1.1755592491204545 7.252601249967061 9.978826832674189 0.7725349959961986 0.19071594786375543 0.5528555710205576
Ni 7.709175128472385 9.410272936586418 7.001021887162888 -0.008673102293965708 -1.278576691987011 -0.8074575189049965
Ni 3.0727710111953646 3.8186787210335753 4.679054232441122 1.1171494657850438 0.3581834667225315 -0.008070692823276424
Ni 6.3102822044437294 4.214772591370516 7.269230464259702 0.3882088094400282 2.620323331764287 0.02332093411412758
Ni 9.064064850491624 5.201615256920696 12.358178937678524 1.1003017981000858 1.0104373717377695 -0.2535313405280795
Ni 2.1924839347138203 6.210213254235194 12.022371777389203 -0.6895346437435673 -0.2757672691081444 1.5806103509908522
Ni 9.263561521565789 1.6984678384902399 6.521610021553416 -0.08843489300464125 1.8766301997004453 -0.1230645672633687
Ni 0.9779862660749999 2.4429815714960506 10.868215648553416 0.25879181759607045 -1.2270391862293513 -0.5060913182818252
Ni 6.0553703076922325 0.7613278815582166 2.975070892284021 -0.7895395009739951 0.3325806785527627 -0.2268828847026157
Ni 0.40299591429309606 7.323331634443023 13.501127492781817 -0.11444854345958354 -0.21333059993947778 -0.7525793788098781
Ni 2.40629210126729 2.5424464650772127 6.596037232588902 -1.07934833577687 0.28946482119989503 0.19707968529825412
P -0.12660933977953753 0.140842772556227 2.4290929156559087 1.3191422721141992 0.5521652298217523 1.792539185486797
Ni 5.433015411099051 6.066224740627185 13.14486325781809 -3.267592124860108 -0.636060325974511 0.5963334396985343
P 7.183264842323499 6.271864202942792 8.247763169253004 -0.9927607803936129 -0.1461872693237611 0.008662303660688308
Ni 6.322595666463259 8.031202363114486 12.50987707248759 -0.14564528077736208 0.2100377881208189 0.06500674388868803
P 0.7719379038885551 3.817535660031008 5.85724438050326 -0.07673663073110655 -0.226721419424087 1.5840080638184912
P 4.318503054058821 -0.5953721517073643 13.047666829202186 -0.04211338423028231 -0.0809360135244348 0.20301584827703098
P 9.058256613689958 4.960931217038559 2.8435175813389058 -0.26233993995864496 -0.8234531230023043 -0.11907807181179492
Ni 0.22015354909455356 0.7686936551406167 0.27934645198768726 0.8106426015011975 -0.6502659280509316 -0.22212480119234
Ni 6.7740861761197655 1.5556037995270333 8.639867477895615 -0.5959976536256703 -0.005525043583287258 0.2373051084772042
Ni 4.3643463054870075 7.444905000586045 6.363614828733454 -0.5869504558217375 0.7440762264348734 -0.5150516127989065
Ni 8.52435419370198 5.377813928536021 6.620261761982344 -0.0450711813070256 1.1308416185601557 1.160116199154557
Ni 6.398316487999213 2.24943253490679 6.419189897087566 0.47525402118599447 -1.3132058520251062 -2.1715966674448604
Ni 7.921282643290327 8.533684545300176 4.0940941583538955 -0.8844178356111349 -0.1815077990019261 0.05019230458367485
Ni 6.893875251917315 4.839404316789951 11.965354407672502 -0.8884871205845022 -0.45822226251468823 -0.14846346695244755
Ni 3.726713422810724 6.3359127918021185 4.318424062038319 0.35003692635599715 -0.6822054570720057 -0.214710768116456
Ni 6.1890433927404835 5.040964073576069 4.8997793120369595 -1.3559136753062777 0.5060051863259221 0.27127118101000375
Ni 1.328655078033475 4.887310653930088 0.6902183353838418 -0.017284498112060558 -0.11888369641280169 -0.057487809803823585
Ni 7.394117777992281 6.498673526753111 13.909852651856077 2.010869552633711 0.07317770973525461 -0.000923797365850022
Ni 5.25610116470976 2.886071047442628 1.228296180643801 -0.15934257575879654 -0.3847920704489954 -0.925541088014006
Ni 5.954167589660012 8.301949836682045 8.439489813463371 -0.08768284532996512 -0.12452161142486942 -0.750841827293481
Ni 3.383730069788213 1.0508912544095057 5.263796846142494 -0.08729743696608835 -1.365229553390565 0.30864216545929424
Ni 8.530552744016717 8.93422055514303 9.443076928724336 0.060997108508662704 1.0157438715523475 -0.8556433345816038
Ni 1.8572232133428033 5.441630187923281 3.040018131541301 -0.1320631712175532 0.1804150801583796 -0.09976214509200237
Ni 7.8125245708265005 8.820388407009268 1.010945454300259 -1.7679293573579165 -1.5141720168619601 -0.21822006682129516
Ni 2.182837615033614 8.688908512177326 -0.17766699387878646 1.563635156589094 0.10021800168249836 0.11722404932219165
Ni 4.5181484159951095 5.079986131704379 2.4240606592909453 0.15544684024881614 1.2651010260980793 -0.051546761729040255
Ni 5.707889056090512 9.470771531112566 5.479122588807504 0.11553149211111717 -0.7754061468964065 -0.5227592658558093
Ni 1.8088615104374155 1.7867716242333211 8.682562200318355 -1.2503326095396532 1.1420094622515171 0.6654740032499379
Ni 3.8443557742863788 8.479068533006753 3.3885299966811093 0.954915170300749 0.4001847508549818 0.0942242459929087
Ni 8.391926394624006 6.285720332656846 4.48778945922122 0.5818596715623914 -0.41372597987452614 -0.39367008966491557
Ni 7.932648201063826 1.6378205531019692 4.213678784216027 -0.033451594790226254 -0.8011508599606783 -0.17400891952171965
Ni 1.8064824566434534 4.531474834512852 7.987430561259248 0.23303013525093416 -0.05847922718281542 -0.23092105932773135
P 0.10926083344137881 8.000330422866275 6.352229755284302 -1.4477411389322357 0.9088589993726347 -3.0649110342146764
Ni 3.2531980792023028 7.85904622431312 8.462775731789666 -0.40762295230058193 0.5520461877453847 0.2291703951852118
P 3.2365632890023326 5.651897653322456 9.583635330006754 -0.9322745500830977 0.30318499899946494 0.7351434427216179
Ni 4.713639726970848 2.52991925994338 12.44316134128894 -0.5679237782075897 0.1321585591448369 0.02061587647813869
P 4.234251094308582 0.2819494713927217 7.208417760287319 -0.06457608410917266 -0.19802070905528477 0.2432037333498263
P 5.726624104717964 7.475293695532359 3.7625442033107266 0.4636030672106274 0.4373307637776597 1.3072984854017358
P 7.1228684727650595 2.8144671041516953 13.060139204580612 -0.3989349376082807 -0.5664662198254566 1.3774538633708986
Ni 4.455484510789301 2.8326259756884222 7.725873112288757 -0.04306186418648067 -0.9322748071934138 0.37936652855804986
