# total energy = -381168.7842936909 ev
CRYSTAL
PRIMVEC
9.24134694488917 0.00000000000000 0.00000000000000

0.00000000000000 9.24134694488917 0.00000000000000

0.00000000000000 0.00000000000000 13.52564538350834

PRIMCOORD
 96 1
Ni 5.756388860407708 8.428977181137604 4.606970447349299 0.7634397185631497 0.3978671584653986 0.638069643095056
Ni 7.93381656573773 4.0834370482872915 3.1346085415330776 -0.49604756089257795 1.1388007255062322 1.900399534205901
Ni 3.525869616370454 5.679565542518547 7.412365242162362 -0.3039984960396958 1.2067223290488702 -0.9714992999116753
Ni 4.450789834214401 0.6873427441730277 3.656915613843745 -2.648504422184194 -0.5326508139379085 -1.0628169137807502
Ni 3.1166535283817662 2.2523657884243566 12.37351770764668 0.5227294410591384 0.6480632639726581 0.006980802193207332
Ni 2.598703751197376 0.424687027057405 0.2133327997286345 0.30285024136786554 0.5969343065073267 1.1716720223129562
Ni 3.208133622665997 9.405196116364294 11.312700709271578 1.6076447294008247 -1.4514751520533713 0.16767834931800155
Ni 5.398868867724201 8.251460145971853 10.52466979263018 1.5911217920451373 -0.6840126854840736 1.3172432553192732
Ni 1.214590240607783 8.476366808725194 12.460825333745305 -0.6100009098832979 -0.3290533821257946 -0.48371655013105086
Ni 3.3639057682620157 8.303322585523636 6.664288365285427 0.2017125560845752 -0.4113821622326979 0.9113473130121272
Ni 0.44543292701282167 7.206716622492049 10.394133917513138 -0.5127756722805363 1.052235281610162 -0.761030852011341
Ni 8.347246707973676 8.863477594609844 3.030002037922519 1.2259053297352243 0.2894344821825919 -1.416596080787999
Ni 8.717224036458289 8.67434418622303 6.481745885602879 -0.6856718183540513 -0.47730910394281023 0.0005669282470635398
Ni 1.2471937129418338 1.0319257751443924 10.799551811871071 -0.287305351654731 0.027829363507442393 0.9909509808783835
Ni 3.430480432291069 1.5324648545177424 7.140769445926568 1.9933251159920444 -0.33646278721598827 -0.7004865147693807
Ni 3.836184808407042 7.0363246658890946 9.27701031579786 -0.46726226122976944 0.3260778444372384 0.7593166975337116
Ni 6.111459896127349 9.009379981574124 2.220221611037869 -0.1455195538327752 -1.2968266393361343 0.502404099238225
Ni 8.156606960020408 6.576290410563405 8.721646945148503 0.887071471183898 1.1622180759889083 -0.08076426383326091
Ni 0.5094033794478456 1.8764370324501953 13.289528342815668 -0.9659788843140783 -3.317823767322151 -2.547204500291426
Ni 1.9058245160166014 5.6308081955700064 9.255342129408504 -0.8241825449691611 -0.9327337491077033 -0.14707301436282413
Ni 2.5377016194294995 4.618492558830618 13.027982511478765 0.2623849342639675 -0.9944538518253196 -0.967377821544134
Ni 3.273359050028165 1.78294232451267 9.599434444852392 0.4466975497045404 1.8055471677106907 1.2920580143028975
Ni 8.651231577292343 2.4364719040249674 10.378633406133913 1.40528528376087 0.9286626643621233 -1.0589926549386535
Ni 1.1802956017666093 7.117805622683121 7.407414652556536 0.29839734780283445 0.2726806597630207 0.2978131931645904
P 0.4386497782902613 3.808007941302019 12.350388464291335 0.8981832648263435 -0.29999348864536074 0.9786384820596178
Ni 7.26145312097124 3.396897377171472 5.8814104237498865 1.685298215519246 -0.13119696656251598 -0.8389298784816649
P 7.163282291434783 1.7139649102549168 2.3604682936176737 -0.19853672945975484 -0.07960726741068225 0.016117731497469017
Ni 0.30854547407968014 2.3042467106702067 5.82591521067925 -1.0101247255933572 0.554016166987562 0.10236487282217209
P 1.9032646628883327 6.150957413348361 2.4515907477717094 4.019711790424748 0.6683209857804296 2.719932239107877
P 7.696156844078212 8.21204580087414 10.223899987944453 -0.546796252200355 -1.2322361570492586 0.3223353466756707
P 2.2945987443672733 6.54533189800131 11.164784632788706 1.5684737156283182 0.3823628921822125 0.1369752638071899
Ni 3.178117727501315 7.806581699781038 4.327233024377027 0.0374620015012 -0.510111752295128 -0.6257244912661417
Ni 5.802697250392382 1.30675419457249 11.236199914393886 -0.5773926369299733 -0.10220160777143043 0.9327419766378194
Ni 3.7966780498389956 8.313099930685038 1.860871831641737 -0.12376956375019328 -0.42674578917296185 -0.37697694527995074
Ni 4.8232808090921155 2.9089542538047293 3.39288108775073 -1.7976507956817491 -2.178568727887319 -1.656395673552283
Ni 7.07022192680783 0.5002211770353987 0.2664502142075618 0.5219061738268947 1.048391996604672 -1.076356600138398
Ni 0.957967274835604 4.388142742674568 3.6662345881922866 0.6716734471924303 0.2973020578561267 -0.16870936168567718
Ni 5.928388811394486 4.22324014620949 2.0119401315977243 -0.312066874870127 1.2308405622533123 -2.211562152094204
Ni 9.205130194436897 9.294484778903431 8.948012816598428 -0.13591159842936593 -0.16342985845429273 -0.6294965567140642
Ni 8.519496175330355 7.6653092276805195 13.995661517911833 -0.8835554876108397 0.29835466749035716 -0.26446572805239615
Ni 6.571161462959834 2.869068600008312 9.783843676635701 -0.8461587921299364 2.15076970339718 0.4629420365878608
Ni 1.2388302938765516 0.11326841818502181 4.175218410484813 -0.41783177451278364 -0.481301512931655 0.06368031176778065
Ni 5.129890220968285 4.006530558274829 6.267446440974544 -2.3346614292502506 1.5863143433541647 -0.5764919794925749
Ni 7.500434355256542 5.187445330292681 0.28982342912459147 -0.20282815774625712 0.34762188915660136 -0.265681088516736
Ni 0.2824876478494301 5.7048313853080295 1.548578067205285 -3.057776480052424 -1.3478476104686916 -1.7565648242747167
Ni 3.714929093981 5.020980946178947 4.11711159274252 -0.24510763524075854 -0.1645799128983359 -0.4546132050071912
Ni 5.193895790522036 3.582657693891072 13.02979566376673 0.5958901815135286 0.19314461190990606 -1.1947687562314198
Ni 4.879976473142398 6.589745811844124 5.732899204518058 -0.3630168835554329 -0.9525052753076756 -1.316638788966055
Ni 1.8690439548234266 5.816050996855733 5.389198722188388 0.2892084822147148 0.9590980980338449 0.012457509037062416
Ni 8.530530343688309 5.600247060930351 6.27656210568835 1.3089622462574038 0.6575231238339773 -0.4587264558446164
Ni 7.406024753962703 6.534482556584027 4.3392569410022634 -1.431790272029934 -0.8419429542763757 0.7259378649629498
Ni 7.694502642959224 0.7834592222639458 4.775174977109433 -0.4253008291963191 1.3672334711944711 1.1783880008805512
Ni 9.288662730272351 2.1597305257609434 3.5015325289578345 0.21161104614520976 -0.3210701068100019 -0.9720870540943453
Ni 1.5309585149512883 3.2343236001588256 1.029061881698723 0.59806842011177 1.774014644320048 0.6077285689093533
Ni 7.480787251463402 2.972303687719105 12.358842448557546 -0.008041125136921635 0.1586514632290429 0.22863869105145787
Ni 6.863308166728637 7.324220350022506 12.31700779467177 1.072323824829921 0.25814724203353606 -2.176254220821529
P 2.7252824815146917 1.4396355235666263 4.875183910570845 0.9091387353965826 -1.2786926487395849 0.02082516427546736
Ni 6.843328374442295 0.5856370993962723 9.096185802528831 2.0423462830857537 0.9814864930313743 0.7166772655966303
P 6.415620351039651 5.088073125641873 11.916215194504082 0.6446956330520058 -0.6375734201849277 0.4359958470163201
Ni 4.5618246188214355 6.17912503910635 11.50235810203519 -0.6086662502322743 0.19516395633278 0.8475757270821209
P 7.929907475942576 1.6307188561775001 7.093998064455518 -0.6373021688014121 -1.011651960871161 0.523394328336647
P 1.2330636933276717 4.619767864721236 7.000454377378715 -0.2703247579363344 0.7580262608570623 0.5663556623895214
P 0.8035526831188001 0.9394938221157153 1.8519992143549109 0.625376878118736 0.26948940651923264 -0.11865512534176338
Ni 4.674532087241527 0.35570591626083853 9.007349657630874 -1.4426236152000123 -0.9777128849215548 -1.6618996340896475
Ni 3.869361244257167 5.752895631229061 1.4444576584486861 -0.7957898527590811 -2.161365219524839 1.676269015437442
Ni 7.04893910458977 4.874145183164284 7.8034997105453785 -1.7562529494612529 -1.3737280777798795 0.2870693243845249
Ni 1.474567815353109 0.6179624071846157 6.828219696177289 -0.6587392556292655 -1.574387767119908 0.11442694619302873
Ni 5.5830119487129455 1.8065816902242633 5.160439341856796 0.38829134185150543 -0.22231789103975258 2.5740565874872634
Ni 8.65074178589957 4.8385659970854595 10.915168456337296 -1.4682341166792647 0.7843541001183136 -1.7120436019338905
Ni 2.6213080860412212 2.6945180372402997 2.8520580525238195 -0.20415767519095807 -1.1257804019871642 1.8484642787891907
Ni 5.714867488186369 2.4176103147296732 7.723616582653439 0.35672025191344375 -0.8060220720100505 0.2718630489577318
Ni 2.282215339342436 8.864364763925055 9.189770151532581 0.05400062258617151 -0.3437156121236597 -1.2147608830826304
Ni 0.2954042785980986 6.884627954334832 3.882522770702222 1.9545053149113694 0.47325216026461714 0.0865621014619606
Ni 1.2770155398188126 8.098201646768935 1.4911486402005447 0.8840396263361098 -0.4238180740032056 0.7739249343651897
Ni 4.069075994997293 3.979933961512528 10.62439409260296 0.8829556492433116 -0.21834116578019175 -0.5806844203073677
Ni 5.602538914994649 6.976708736176238 0.5353142682602636 0.21613824459160194 0.22046335432951708 1.4515795388417194
Ni 8.4261585702924 3.0898443806376954 1.2039312709393892 -0.8027452010309917 -0.10377615134740192 -0.37791951169887816
Ni 2.376597216595173 3.2939395298716825 5.714233531779873 1.167066662330461 1.6811140022345692 -0.9927466393262256
Ni 3.1950663579606826 6.7246602371856214 -0.3512543593948203 -1.3228377186879154 3.910968781990374 -0.13195904153952112
Ni 6.146918944694739 5.851685631016759 9.931448319723547 0.8986532624842265 -0.2915633556001366 -0.6887517428309557
Ni 8.328329670596181 0.6048332254541776 11.505576863206944 -1.174804911514983 -1.7194622629954643 1.2912604581022664
Ni 5.745807518054396 7.03016992876481 7.836502409071275 -2.500322233917591 -1.0924010551957704 4.165582299839039
Ni 5.256395020509333 6.679627153091566 3.08845910271738 0.5153550029719381 -0.045609056088366615 -0.033019392348814104
Ni 1.821062881025697 3.371400500706153 10.543755022523683 -1.1332844236736934 1.4933625363157763 1.2462057318554733
Ni 0.6128103562134612 6.157712838029821 12.467318304171014 -0.4455032722861231 -0.7261525520769172 2.0217535465360665
Ni 1.2509641825314857 2.1463490552564917 8.753919577258754 -0.83500920327102 -1.7233068335525352 -2.0455095113050836
Ni 5.9367060237246 9.339490138956387 7.115909298271855 -0.1460725981227678 0.34683076071387364 -2.3882735581487515
Ni 4.865439834258765 9.002402764563863 12.87373611227797 0.2374190083472492 -0.5546147198035093 0.792702472083009
P 7.416522924192715 7.118129069829292 2.264017278764144 -0.7320632611343973 -1.2045435762299965 -1.0960759329441963
Ni 2.9405873847002666 3.5889233271797587 7.986230713707411 0.5364231364961471 0.023067680452740918 1.5652451813886914
P 6.805059956376732 7.517151952040072 6.368157716810499 3.646275254197888 0.16896261534706386 -4.037494568329466
Ni 4.829666579892237 1.404952748150047 1.1888974475853549 -0.35375217042405527 0.45161349894891895 -0.34565782345169505
P 5.030527257664512 4.511348381324671 8.559813400033237 -0.4041717605271878 -0.5249950971648636 0.3394450097727638
P 3.8839348485289347 3.348611338921638 1.0750560658842585 -1.5510490923939675 0.4537536852203734 0.9568694658136424
P 5.887163162278216 4.308066470629629 4.244510030541704 2.303586819332633 3.096923582565531 1.498891693664122
Ni 9.127003846616018 3.869148693275397 8.43808175623497 -1.1410545545374156 1.0450408207442519 0.12507774103865557
