# total energy = -340887.6630577947 ev
CRYSTAL
PRIMVEC
9.11981708247730 0.00000000000000 0.00000000000000
0.00000000000000 9.11981708247730 0.00000000000000
0.00000000000000 0.00000000000000 13.34777414544742
PRIMCOORD
 96 1
Ni 6.718961523270528 2.3038026356558317 11.38690624148079 -0.35982794430449 -0.8455499549013438 -1.4350195776005092
Ni 5.062948626993868 0.2969813769908785 5.790171062674917 -0.10461124565418757 2.132095266916128 0.34147309594638614
Ni 2.9661567231898727 1.5367165667751899 4.929119868697918 0.62692468222183 1.3175785271715048 -0.6530990266243526
Ni 3.8654436629866 4.123653048903207 4.375814172016865 0.2185442829299333 0.5398236775372638 0.2512482009208576
Ni 4.117889324398587 2.9316473347001883 2.267213016850477 -0.4921351132120492 -2.0671175764931626 -0.011629870929444487
Ni 5.225673526259577 4.859704379667994 2.319336420384817 -0.12862714895281074 1.7497652848543799 1.2933885601888628
Ni 5.484019709434996 2.8859935295259382 0.018437534542704886 0.5320571462179675 0.20731421854206875 1.230137879759333
Ni 5.807335470728943 8.177320620198104 12.36069296842663 0.6967969817329355 0.0961641433280989 -0.4622313836740814
Ni 1.9178337298259085 6.819708144477068 0.5804563046283683 0.0005481591939861528 -0.07192635382665677 -0.5935782455509003
Ni 0.6396001434849493 0.3436037067575184 -0.1141463686980547 1.1338084144979634 -0.9807449868796593 0.959206084366619
Ni 8.079173146908996 8.787035122541221 7.408294766187507 0.3107905792608648 1.497900533395446 -0.1837919670504125
Ni 8.792306376914116 2.277592280867419 1.1868548414178774 0.9556008835138639 0.6226908466461405 0.33958179246094417
Ni 7.226607030905254 0.6642801929381165 4.948554199266501 1.2948970264135893 0.028595809359821717 -0.28832813649229055
Ni 1.2688766538382066 7.840726404982123 2.79216793763357 -0.3003549857498376 0.2115547389859776 -0.19096251665692274
Ni 7.798164217857028 3.9971794232227245 3.5838373859044848 -0.06330287382370389 0.2759469892191183 -0.48504195381069365
Ni 7.852892241199151 3.8881246484976586 12.641970932087595 0.17893206785494992 1.635208497951706 0.7141218461646281
Ni 8.581893953226484 7.363066856479025 9.556966574405156 0.16267832500024887 0.5337859559836162 -1.8369809607399394
Ni 7.096439879236843 0.978592870638772 0.18157920945692804 -0.09057636482767627 -0.41223705403382555 -1.2732282831909039
Ni 1.9497166109463993 6.7426274490450355 9.477387049045486 1.5000258072685648 -0.27854123230885575 -1.2115632020809393
Ni 0.07554947811506237 4.6274499936566835 1.3299721335871744 0.7419311550674125 0.9169739151702853 -0.34972068066715895
Ni 6.764560609541253 2.4901387417925216 6.9026282588969305 -0.25129679477060596 -1.0244642821444807 0.13704854024728655
Ni 3.7458737389675054 4.370517382155657 0.11520061957263386 -0.7071251031318209 1.2715694074312425 0.7503651447673786
Ni 6.741998181654498 6.049357181019443 4.579928449908784 -1.5885290916172965 -0.16018204094095637 -0.18437046526170184
Ni 5.604191541392864 3.409005929233899 8.941340606517903 0.23912827772887207 0.24786385782965703 0.7618047540628881
P 0.3749649343310722 5.711878343529807 12.585856696522843 -1.3226793387331803 0.22631132846986185 0.8947505849957106
P 4.264608944383271 6.4004427858522615 12.563646293582098 -1.350981528111983 -0.16166736723723127 -0.10291380334710662
P 2.6097542648978873 8.827609189504912 1.4378486279230045 0.33197749775112506 0.2901320224702487 -0.43581432713313334
P 6.721916344060872 7.77722511744151 5.853626751129258 -0.7487594908431556 2.409766695025521 -0.8515295695235463
P 4.877597461120625 1.2276368402149629 12.133620462579124 -0.08947747533654268 -0.6278574784487445 1.0301595327570452
P 4.171258494969844 6.516902852187692 8.371096673250726 -0.465125931613057 0.763512480782614 -1.4008928111201295
P 5.053737611567182 1.2134099252984967 3.5074078454243973 -1.8843075137400451 -0.4950114063185797 0.5206645881103097
P 0.5500499219213235 5.741855182844182 3.223781528820489 -1.6141347080005426 0.45652764842108473 -0.25304257381711903
Ni 0.5616330018158131 0.2348161426779993 4.953959514953032 -0.025268801869117775 1.6803236451227903 -1.3916561230132096
Ni 1.958644912038207 6.379777279954369 4.6177957551114455 2.126091226813893 0.598072533876828 0.1563115022419566
Ni 6.152073682752877 6.107477776380108 9.280294118457533 0.8710699535493193 -1.2548158421219873 -0.34268845641072593
Ni 9.169976249042769 2.740359167794497 9.599078242557896 -0.31216406256962365 -0.874510603799752 2.3860629236506776
Ni 2.726186971781556 5.678326535851808 6.838291596095839 -0.5374153252060874 -0.612402577346255 0.5721285603175567
Ni 0.7842021419032211 0.43652917268690317 8.934586469859484 0.20764769062208754 -0.5796876036117371 0.705759847353178
Ni 1.7661620490722234 1.4555410733960457 11.367258507188462 -0.20545608228740744 -1.2906323375999642 -1.8968544971671206
Ni 4.356974453533252 7.248740827381065 1.7906168390392132 -0.8205045818969416 -0.64364405185904 -0.656716825882598
Ni 5.711404113032592 8.387523288088893 7.919181456874355 0.5499759354799173 -1.0972925789601167 0.6651009361812352
Ni 5.964032170789662 2.745849297781493 4.680076811103452 -0.9285739613030589 0.5568317820594861 -0.14235992515787096
Ni 0.6299477289031622 7.480657780153971 6.187894500963707 -0.2630163972003793 -0.6495293069952234 0.9426852038934604
Ni 5.43943292287948 5.356214590435408 6.999385872036507 0.3439344130026851 -0.11729604021070768 -0.8455571539901955
Ni 0.9109721616444633 7.58903768840223 11.394368075958132 -0.20729082150330105 0.16038335831848508 1.6557554688651226
Ni 4.491482638214636 0.3885981491442934 10.142827282738331 0.977071394682814 0.666222194269872 0.3029119478437364
Ni 8.323666327675369 7.627377400138655 3.9417582937692854 0.25850668225548384 0.2503514001382011 0.9961695489648457
Ni 7.610852291274144 6.455125210108115 7.131929648081348 0.8409479373529583 -1.5059956516987547 0.7988006145609468
Ni 2.717906177714793 5.358932295977143 2.510556188661102 -0.5039128225732676 -0.3757487292998045 -0.9039741604765077
Ni 2.288016231988907 5.413988632740416 11.78083948371876 0.9446274152214957 0.12795274859360542 -1.1774603468599592
Ni 1.0593762118759882 3.577622230445785 3.4784697532952698 1.1063857995106365 -0.07497156841088379 0.16737084537991176
Ni 2.0103542758692092 1.3961254639852911 2.6569009841566404 -0.4235661058933995 0.054674765835060674 -0.5615937222245039
Ni 1.5132330373457668 3.8470945906712606 8.031449143218056 0.03469163784491444 0.7055389895916236 -1.0034876798928136
Ni 4.1066901888104965 3.4273914808182546 7.034076744889549 -0.6144442903666322 -1.0163830477982432 -0.306906156604794
Ni 4.177423491433646 7.3375313681674195 5.8135433303338395 0.03856089099233359 -1.5617595368329362 0.8177306186962303
Ni 8.131730653744635 7.717754789127231 -0.07399819720013229 0.4483461410515569 -0.8953895041312903 0.7632713113060855
P 0.6451905914617402 6.122862908087851 7.857020782470103 -0.9608212513725388 -0.9959947139498783 0.20618190470983846
P 8.804754927466025 1.969397176580844 7.654574519153966 -0.45108925101433284 -1.293104967510173 0.008262497119108352
P 1.979219219763558 3.810633561289189 10.124980712353695 0.06573230920080293 -1.1810439504461594 1.3745222915464004
P 4.252123914562347 6.298309952423091 3.863874142437162 0.16803084756141384 0.19587383791561103 -0.12237525450582795
P 7.277240256300267 4.130191957874429 10.283793210017373 0.527981176376381 0.5684449408183823 -0.9656713803759884
P 6.64279280956391 7.94180133960981 10.235473682259737 -1.3659800584033444 1.1320914318068567 -0.5290307006868179
P 2.3683162229116532 8.753802508467118 5.884206410364131 1.3911599001030817 -0.1988465473906898 0.5874901303752914
P 6.874728001971325 4.0439823253709966 1.4450168042847624 1.910436863837245 -0.8431264330615157 -0.8637829329696026
Ni 2.9605297959440655 1.8048118345952897 0.09180372840712493 0.3522843276292772 -0.30008939079327673 1.0858987353008782
Ni 1.7766042398282194 1.6043582513491832 7.01157268383322 0.3380792397734887 -0.2933579856067141 -0.05057668450628709
Ni 6.757447152083021 1.1195487661188366 9.244227977162566 0.7662381072438933 -0.2678094477136484 -0.6050877888523966
Ni 3.031828527236971 1.9858402070900674 9.152795425317684 -0.20659713787038614 0.5977568024086221 -0.48442231794882384
Ni 6.8852613908998626 1.7891075092836521 2.5449935305944784 -0.983309662283042 0.9423175361413965 -0.4956384983796173
Ni 4.327581282523142 7.2040993219220235 10.455938880506615 -0.4118693862817616 -0.3832841184449012 0.7881559903629071
Ni 7.530917093041564 6.244138237933471 11.522319112033786 0.2200244670198856 -0.4779698774552607 -0.47800073069319615
Ni 8.081106548166876 4.145732126475492 8.04451692936152 -0.4421094161132257 1.1497243143972715 -0.4663284365615904
Ni 3.56284812649407 8.579978791603114 12.852318605072723 -1.7046658214125803 -0.7385640383673925 -1.4679867765551493
Ni 0.18807160736015383 5.1738091255352545 10.135285193869153 0.039773423243196014 -0.759663282239853 0.272673203563853
Ni 9.136962510582764 2.6307936833032 5.613793796979754 -0.44629954293517327 0.2100377881208189 -0.5494308616097248
Ni 3.775549624312493 2.980192121944002 11.389509037325125 -0.28651216632947435 0.2356608880055619 -0.2954904585686846
Ni 1.1485953840732883 3.250950376402312 12.585709867465049 0.749160068715684 2.4219025590571066 0.8477225370726303
Ni 3.3880759486356355 8.821197957975249 7.938095045877727 -0.9987195690802089 -0.1248036614416625 -0.04935155384993436
Ni 5.766861721755048 8.261761008154233 3.5923799187264422 1.3371528497590068 -0.7865919883098969 -0.4285568742397716
Ni 3.4333376016679575 8.526226588707184 3.8720154032999368 -0.9965115056852968 0.29448464301198957 -1.1233838767305298
Ni 3.7663750881548235 4.851797498108649 9.720730220856113 0.39688422572683907 0.07451056961406523 -0.3552580655456204
Ni 5.602659412094167 4.714188575560856 11.495557008301498 -1.004732350933192 -0.5533721056456599 -0.7312970723923342
Ni 8.272814226666256 9.118887032785048 1.9848944820408125 0.8199700495497103 -1.2626759615963543 0.5559102986864813
Ni 5.019127905087702 0.4107766327246486 1.1351545974041295 -0.6321525062796726 1.2021493649662072 1.3069598711153942
Ni 6.08970325255178 5.8181059749060875 0.10999776382914415 0.6532067558468105 0.42915028484939644 1.8312486862418524
Ni 8.106140446529503 9.110852473784147 11.244298747096002 0.5266801981767704 0.9570918662370935 0.05255489127858045
Ni 0.2516522373108763 5.079108943168213 5.662019390619672 -0.33478719928577827 -0.43771977168596227 0.18323686587789087
Ni 7.533023770827271 6.22308057989365 2.1934127196847593 0.049715107836940185 -0.25900701893067 -0.08992818972071609
P 8.898898800980563 1.6847767998962337 3.414681191511153 0.3174883029960145 -0.12462059889657892 0.9405653293369801
P 2.091219695461713 3.46722684258436 1.3977788868534677 0.13781807142345942 -0.8270652658335949 -0.03563857513921604
P 4.949799054321692 1.4989787629775382 7.881647025001471 -0.18919308346132577 -0.7830855178185352 0.4126114066541088
P 8.70949843624648 1.8976150949734691 12.256139735498211 -0.4036477697029177 -0.7205452331924688 -0.701980582816404
P 6.434851856352151 7.888477768124826 1.3448547633642134 0.6082479317479331 0.23838651446684106 -0.25664417512544835
P 2.3267845751362772 3.5799386640283375 5.7117524900517 -1.6887931160463818 -0.17439818454033834 0.7716397378754387
P 7.144546915252458 4.32238298668828 5.712273231616912 0.8264489724058347 -0.32260094163223146 1.543540442721748
P 2.4533858782583176 8.702950407458005 10.30337436964375 0.03624458415433113 0.9036836258192823 -0.3443293344482586
