# total energy = -381161.9763894003 ev
CRYSTAL
PRIMVEC
9.25367123938189 0.00000000000000 0.00000000000000
0.00000000000000 9.25367123938189 0.00000000000000
0.00000000000000 0.00000000000000 13.54368323426837
PRIMCOORD
 96 1
Ni 1.4953007035905514 7.390194528149 4.815375366734648 -0.8524772781487964 0.020082372572171867 -0.3335042188082966
Ni 8.744728387856766 8.53057993261515 8.123582196768064 0.12220247637338953 0.06063561140418589 0.9804349118384084
Ni 5.282069459837338 0.05380361953639794 11.145489698449552 1.8597943590900292 2.0303731698842773 -2.5038636714119455
Ni 7.00682419057209 5.625954383080312 4.186338570348888 0.17651883042776695 -1.227822344252279 -2.854689669328142
Ni 5.830793645254212 2.283630193284113 0.3148691123253514 0.12450309948210818 0.533015653476495 0.6291263178588391
Ni 3.9020417364103337 8.834229894169829 12.500358541049017 -3.2191003479073075 -0.9012259083074091 3.3286313994606154
Ni 8.312776277312155 3.7178936826851525 10.778062510709983 0.5208458508831805 1.7480750416361508 -0.9854681033869415
Ni 7.6833693340847375 8.321502489104258 3.7100613755156555 -1.4122367753780387 -0.4682225682605098 1.0728763548992812
Ni 6.102666500452493 7.0152172702066995 5.591306787966853 1.2040753783443263 1.9318724080032021 1.5750660241338552
Ni 2.18699410659808 1.3669522862454127 11.952178471489383 -0.5672018124399005 0.511215783992584 0.7992477294006944
Ni 8.562791961510495 2.2079721788490843 5.401057788924033 -0.40551978991465 -0.15018353496734782 1.5489981234022097
Ni 9.329643680716813 3.53367159959164 3.637007344111695 0.1430556656733149 0.5487631461187388 -0.6216184395175682
Ni 4.557682837040309 0.25445189409561747 6.870697137349494 0.12357853078530975 0.07422877670758829 -0.3835448283054556
Ni 1.8225382726299266 1.7106798970806814 5.181420056020621 -2.2761503203882345 3.025502193399751 -0.980506388506292
Ni 8.35351093723669 9.200184822846698 1.5659608102960847 0.7256375601137116 -3.2103915072794 -0.1663262061654813
Ni 3.0355279800874224 9.31548556402337 5.2020474141391535 1.3845660489356477 -3.247229759153672 -0.5998278260050379
Ni 6.589307806852169 6.711437757257441 1.8016351551143586 0.6128309231329252 1.1983641868921622 1.6005723959350757
Ni 7.002530487208849 8.15566745037014 10.67021467619011 1.616086175299959 0.05604053583433575 0.34492171661661886
Ni 8.481433685713922 4.64313123543721 5.721488357545305 1.1625021828882303 -2.380173040528804 -0.861608036805471
Ni 5.932398953289512 0.3791737977596054 1.5696854128902749 0.2116634966497 -1.0926252553914344 -0.9727511700409055
Ni 0.09268847061974379 1.5765016669794187 7.737330266028841 -2.7670245646099896 1.032518777017841 0.5069531520614882
Ni 3.87444728936468 3.231465210719431 6.473189966522535 0.2594453920196693 -5.168597410970808 -0.3423562698822878
Ni 5.3733846856745275 6.577259527156179 9.634353187605738 0.4459352176172191 -0.6493043354686108 0.6856563917350837
Ni 0.721166345274599 6.588030800248446 7.444393279438868 0.6565921273792756 -0.21308711647010398 -0.20193418517707803
P 6.289387074727202 3.231298644640684 2.5775388153334395 -1.5399182725881286 0.3391079381483192 -0.30528944693697746
Ni 0.8638514751642814 5.205606376021701 9.924282731107233 1.9832790446099522 0.433514218245047 0.4939803939509041
P 6.400717991027083 2.36571025542192 5.6370837732418835 -0.12661294673625936 -2.0648236382526632 -0.34612036491041037
Ni 4.046944971248656 6.748767066238718 5.047351019237647 -2.9183406705198833 0.6915280200245123 -1.2969832195186568
P 3.8977943014023 1.6541769817014875 13.337385474598296 -0.8144578614822297 -0.13415527785989154 -0.04779835043020155
P 5.213999455656311 8.455828777942184 4.173621250236601 0.24001685098141246 0.53630075198567 -0.05899910424202743
P 2.560370479450207 4.6163696187852885 11.888252261200725 -0.46803384928847136 0.19249463703073297 0.45254500962425287
Ni 7.389037819268817 0.8164671272293487 13.031894032506367 0.6164690341061447 0.6447036034718058 -0.7893638946280792
Ni 7.677854146144024 3.0941499861351116 8.511703369057663 -2.687024689746579 -0.9428844643884602 0.48099735142767486
Ni 1.6301451980067996 6.443146072752207 0.33827072102211575 0.04284897684472621 0.6661399189687108 0.49667979515993815
Ni 3.051564592002283 6.409823603331887 8.760880670659645 -1.6391615690621837 0.9924525051245745 -1.011470440987974
Ni 3.873299834155539 5.283448256822517 6.7204702655610165 -0.044868321267600146 2.7660444600849075 1.706047532251455
Ni 1.2290078120302734 7.781615559531986 9.823788788964015 -0.35786285015831915 -0.5798536968759561 -0.7920391274673972
Ni 6.489321891249124 8.160479359311703 7.7814684261624265 -0.8213725863241919 0.04000250853486659 1.699884597973853
Ni 5.191179902868055 3.838478270026501 8.335852156788262 0.4253157415946546 0.27609354209931164 0.12997646389185358
Ni 2.401327635260524 8.158221463577584 7.468149303736521 -0.12172065164096457 1.1521910307702092 -1.0055769583216745
Ni 4.195438630451066 8.545607894386492 9.157764144058408 -0.08402262286955851 1.5761769978098468 0.7296587654579627
Ni 4.542108908677521 7.597337954412224 1.2321892241343295 -1.365525744474745 0.19892856558153485 -0.26469789866786025
Ni 3.428318554784545 5.149408831786876 1.2199216324346578 -1.148309950548248 2.0013153332863727 -0.4309179182727805
Ni 1.0503471852326822 2.0215939904029097 1.9905830880087478 1.05582634139553 0.2897653831594494 -0.43985507286141023
Ni 0.3517699763374069 5.185933071387544 12.22863189385319 0.7788655661999166 -0.1797766752434323 0.07464195298560694
Ni 5.638909522538364 1.2704642582960428 8.646314670963665 -0.7447413708226981 0.4373683018838145 0.49526594553154707
Ni 3.9989276722144864 0.25625173311318267 2.7663784802766433 -0.4503066072120374 -0.5452692740328674 -0.30731007691143203
Ni 4.186610628277507 2.0420446034045505 10.975272121110192 0.6045236888188105 0.7691627370898559 0.6552039887824974
Ni 6.353626059097062 1.307469688790867 3.576046935391827 1.0250317246121767 -0.32459148969969903 1.7874864535542376
Ni 4.2057472199912596 4.13128292912058 4.424260631863135 -0.9695923126969495 2.218765354710863 -1.0444224704339626
Ni 1.8451634983263119 5.208715609491634 5.504761829551539 -0.3107944359156067 -1.4625103268216102 0.7124562855367472
Ni 9.271993310128478 2.609997917245591 12.596708689299868 0.03766768975410287 2.0932317570817114 0.006393819341485762
Ni 7.222203384062219 9.379243357499073 6.003468072255078 -0.43479025674399313 1.2864247272765201 -0.7138251408598159
Ni 3.337105119328811 4.694618661111928 9.866302004462717 0.08245707815465154 -3.6847734102730865 1.2117143829468229
Ni 4.388951399270211 3.887291384770236 13.088682886320742 -0.9439165051974001 -0.3195451855250432 -1.3626358245214596
Ni 2.048975603014609 1.1704320743377916 7.37005206239304 3.2141849128835616 -0.37781615335179447 0.19119854392712876
P 2.154680287321279 3.8481113415806676 7.455648519526605 -0.8908247675787433 0.10887413469559959 0.95969613662916
Ni 1.6159130519450242 5.465245878103165 3.1925572254584815 0.9937239156378306 -1.2779619412211476 -0.7202999499508821
P 2.298112188464008 3.2350463814124786 3.6818099178260586 -0.3638933726231152 0.24471142824360437 -0.9849497689896264
Ni 2.412885470391316 0.4523000077976893 9.960850462961796 -0.5654385498918907 0.6301632437637857 -0.7958762418253003
P 6.749155720422459 5.047655465014912 9.033243970423124 1.6433537527666602 0.009275768874971122 0.9211889816928974
P 8.342739664144425 6.401754402183728 0.4505159000208946 0.5063944513445408 -0.6388707988401127 -0.4613371539945861
P 8.599538289216158 8.348402910821802 12.315257359206566 -0.49267735886876446 0.32192936948650364 -0.4125612701424637
Ni 5.424464949823423 4.101338049630394 10.915449913928425 0.8121366695482206 1.3903839411690053 -0.3642276160340824
Ni 3.531811611712305 2.3378474519160646 8.851961778619486 -1.578366549261998 0.10855531790360014 -0.8167260886911161
Ni 0.3188916831270769 8.988386800049616 5.999039265294632 0.42009357396376684 0.6418216539383206 -0.3395331986111959
Ni 6.420021148819583 8.01057914211099 13.482153605839413 0.8100155094401599 -5.296472512248943e-05 -2.0092464152079916
Ni 7.698452817882328 6.14757456601673 7.108266633997061 -2.1841693619035483 -0.3092705430719125 5.143505500999187
Ni -0.3090578069113106 0.9152926324837929 10.962636233303071 0.13585451993918538 -0.7531298519967093 -0.987478191838435
Ni 2.2879424039894367 8.912895351693333 0.9875304901018961 1.2253615414166121 0.3524452786871737 -1.0705078546671047
Ni 0.6045136427587696 0.7654109226251622 -0.08305447369847314 -0.8564203219569443 -1.454450175521295 0.6208252541923115
Ni 0.45431545735052065 4.472465780419445 0.9394354602309787 0.09827424769256624 -0.6012542740389194 0.9178594030990322
Ni 6.745741115808157 2.23003293061194 10.940072081835561 -0.6927528935705489 -2.3583042654801707 0.034983972274352654
Ni 8.81544494195565 6.529362525845549 2.811899138863825 1.1503979434255285 0.20578955436742621 -0.7308445582359477
Ni 2.9649132163699923 6.741613978523664 11.12808539395476 0.5068323102129079 -0.4675070302507238 0.439078856817018
Ni 4.700837128051794 5.827360533297828 2.961651297327875 0.7621048018018101 0.527219358509692 -0.2292722108703987
Ni 1.4749056126151594 8.139852926560273 12.177653420085752 -0.24741108656295452 0.7567836466992127 0.1913615518675543
Ni 4.079739981419612 3.1911839806759277 1.9534869715377177 0.501356374700001 -1.70496535493087 1.2171707780757037
Ni 9.086503474102283 0.9731715687468526 3.5733245053714273 0.27480824762898476 -0.8137130128964051 1.2913535320367049
Ni 5.5166777817516355 5.826962625443044 13.361466302749504 0.5994020513215289 -1.529047905532528 1.2863640492419137
Ni 2.805361420273029 7.406851136023639 2.7868698094308666 0.13632528892801685 -0.4137007830635456 0.2528566830585581
Ni 0.0482393871391642 4.325915392135742 8.014135327892225 2.2326305427287294 0.3954253817931255 -1.1972616978566026
Ni 7.2949557457902285 3.818527355261099 12.97838282897488 -0.02065624279777088 0.1366901284666033 -0.13726091336840876
Ni 7.393516596052886 5.872277852533104 11.726324122380312 -0.9709431702978891 0.7851886802044671 0.40733884540125975
Ni 7.570992752957171 4.704908743310039 1.7016279560679188 -0.45891337504444185 -1.5418717967700735 0.8212391460701212
Ni 2.2121085698046197 3.095769378567368 0.27722980536418695 0.24436895730252106 -0.13083161280329725 -1.0699566101493252
Ni 7.820989929813425 1.9928798491612398 1.7582271096259439 0.540231968719276 2.8421316301574726 -0.8917904739261223
Ni 1.2058643807555662 2.818020442257755 10.064093670771436 0.43054999341040046 -0.24336622706961958 -0.05422096612709372
P 1.092192285682193 8.670430663064831 2.63913587662096 -1.4454289458592915 -0.09944872761664163 1.237245951559024
Ni 4.208032876738502 1.9597239458196658 4.219317728573571 -0.6057706738520342 -0.509785993524593 1.2191492419583132
P 7.5956630399537195 0.986135961875947 9.049753444928205 1.9502442256421701 -1.0310162243303858 0.8539137534850068
Ni 8.435211598861796 6.654703500102211 9.75350993350539 -0.7860685117062591 -0.7776854298488864 -1.6694573918322473
P 4.52215799391212 7.300285860310113 7.5206990508468 0.4749164353409176 -0.5515430228567211 -2.0220831619613433
P 5.010178097296973 7.055424470881871 11.85638354350102 0.38864461142586615 0.6961788885329623 -1.3623889986179762
P 8.461834410448096 6.727927799053335 5.425152497581804 2.417018234381611 2.7406064796277767 -3.4487093732918344
Ni 5.956532527365656 4.323787047796205 5.8308130779633975 0.9394610405292078 1.2660657040041938 1.5895472484691657
