# total energy = -340867.0590737227 ev
CRYSTAL
PRIMVEC
9.24925857940488 0.00000000000000 0.00000000000000

0.00000000000000 9.24925857940488 0.00000000000000

0.00000000000000 0.00000000000000 13.53722486034733

PRIMCOORD
 96 1
Ni 1.837503991933484 6.220034024792231 3.26345944047846 2.3208394357654933 -2.2424210464565895 -2.469036793540748
Ni 2.4626613916505162 6.760135240934802 6.676735599604598 -0.12450284237179204 -0.04708178397915117 -1.6636433562536315
Ni 1.748905342253214 2.0185489829389756 7.43050209255414 0.9028981538035095 1.158212811484257 -0.3002806808684764
Ni 6.7364571385043295 8.429432213024317 5.243901477318395 1.268524964177964 -0.17417218457246134 0.17913569922532374
Ni 9.37467871071453 1.6461368281497082 3.7797687883077873 -1.8893841569320042 -1.2450495067638427 0.8850446705618563
Ni 4.426177284956168 1.2781458190486308 7.499812338012338 0.5787447800824935 0.5520582719302428 -0.5581260753908774
Ni 0.24167480711564288 9.113350153655718 12.864831008966101 1.0231319364863025 -0.2856724440369983 1.2378532461257197
Ni 8.544899959407914 9.337774168254537 10.717204920301262 0.20288292224359253 -1.004306319139367 -0.4574553024416767
Ni 0.9130424285330192 7.28894311212909 8.495447872511523 -0.7730152780667268 1.2597343624695272 -0.9113434563573852
Ni 7.523680050247429 1.7450576506082622 12.47018086133559 -0.0030976650887172457 -0.4652282615188762 -0.4317033902885533
Ni 7.069069732841128 1.1012629944859953 7.156588994023885 -1.1842524300811281 -0.21353320286858707 -0.2771556648152388
Ni 4.549303417594623 2.761218215225987 9.331222918273479 0.37962286754323005 0.6014432501212739 0.1282790215847726
Ni 2.3323578342128246 2.357756298773011 3.6409318647363644 1.303128413184446 -1.8159470228877759 -0.9431333471744725
Ni 8.339288937130808 5.189537109093557 5.2238259611756845 -0.14049638958657093 -0.680592346948615 -1.4278675399367602
Ni 8.648676642716467 7.670179059777213 6.781500103748922 -1.7957738903740104 -1.1993674313456957 -0.6846202371610854
Ni 0.45776708942173794 6.833010150719836 12.251459939689363 0.23973274408209036 -0.059830341894071146 0.7924037098956676
Ni 4.054449575315282 0.28951567313571064 3.4748706729251557 -0.496083556336836 -0.4569997029614968 0.12999060495924064
Ni 1.929441624026801 5.754361593906695 0.7398417338834975 1.3139756403115952 -0.9435989739569814 -0.39870122433091976
Ni 4.3678329606860835 8.508883345789064 6.209227190854823 0.20028070873405507 -0.32417985608357713 -1.339232872216487
Ni 4.589371206551187 5.745408311425173 4.235459419137478 -0.9680267679820427 0.3827606418412634 1.161522335473464
Ni 2.735301792175134 5.799414733335924 8.932497547232474 0.7366408532027506 -0.6619667614276278 -0.11486737616455701
Ni 0.9603320387308775 1.8265621188181524 12.03310436376423 -1.2167087508376206 0.13767846052180158 -0.6119163817384558
Ni 7.788495577859477 5.435252917362275 7.429757527223807 -0.8816554423746493 -1.463965571210898 1.6831552010343143
Ni 0.8722291493202454 7.875558850585271 1.4309121263154798 0.18920233943270642 -0.9198507224974481 -1.8039065467834738
P 0.526021994455202 5.770150078613264 6.6746101199411125 0.9290527007116902 -0.29570540279296814 1.1770397143827729
P 2.4585084744664214 6.1350518352878645 11.820501826789 -2.569587495972317 1.2125512770258213 -1.7134014015133654
P 9.027045320148401 6.3927176858769625 2.8046693830376555 -1.336133664465873 0.3867844182886758 0.5900013268329194
P 8.742371633974546 0.24639747863947062 5.606387327604387 -0.5587801640351086 0.5089437001289557 -2.479714070748936
P 7.44106567098611 8.808355845981964 12.946609255235343 -1.5425947909790272 0.17562460074827174 -0.5056629724951549
P 2.3802597453407213 0.4907000001693702 0.7118386780559596 1.2551040627863677 -0.06206745875470601 -0.3665989444797364
P 4.230943931009917 7.067488109592842 7.7823207727100305 -0.2315232116881045 0.1528094026259691 1.819284057680809
P 5.739442539523745 5.7640548170891694 0.7273848321829663 0.8312253107485555 -0.6613931483123449 1.3128145301239584
Ni 0.5430535795393704 4.118472944465175 8.559506388844712 1.7749037317932204 1.286718861478171 -0.10364708196870538
Ni 8.690409298250175 2.896581117206439 7.109263311716855 -1.1143539053177776 -0.4911041008443735 -1.0622271027155512
Ni 7.957868004307447 4.996227600969782 10.15975486949899 -0.8854089958798105 -0.09511127658355233 0.11509106213958888
Ni 1.999597251735836 8.174004683055598 10.414945618443403 -2.0290853043107893 0.03221412283869936 0.2821271498879012
Ni 8.899720024032042 2.431445143329093 10.009248156147674 -0.9240339073408601 0.7777270817200993 0.017209164789434878
Ni 4.572759537814809 3.982129621055961 13.507172606536873 0.2476697395409799 -0.5745114587274364 0.2718008282612287
Ni 2.863468770838826 3.9166078719866397 5.214511957602447 0.30764663431524436 0.15603845108622805 0.760770913481735
Ni 3.284837252254847 0.9660665791632573 10.765424081004692 -0.10840670814087781 -1.0478888317160082 -0.06463521948188222
Ni 6.067800474830068 3.982148119573485 11.368507199760566 1.449714974829155 -0.5803506911170327 0.357086634113927
Ni 3.015471089331942 8.612854263531617 12.485762162645893 -1.366124040180376 -0.7997778908725517 1.8521808084088296
Ni 7.275864660239758 6.526720946819416 12.397160738187994 -0.06572459589131907 -1.2909064171969575 -2.8842974648922457
Ni 5.222381226957075 8.872508704754523 12.05617109019054 1.3763439181361714 0.7348871037364376 0.3370993923587227
Ni 0.6130871170327484 1.0813215925953321 1.5941976155722413 0.34837136572811617 -0.11516202458684037 -0.3879301018573448
Ni 4.419601061976455 5.182785150197367 6.711702422353972 -0.8634594881919129 0.4580795662892369 -0.9334641995158246
Ni 3.9798913004355803 2.2284239135053197 1.817738325959297 -1.160077118386505 -0.16861294531712895 -0.04895740373530923
Ni 6.360428523539158 8.19500050044512 10.111156489186323 0.24371332599639314 -1.1641533453384079 0.6697317500850272
Ni 2.8849640482014887 2.460811539898135 13.011506679338236 1.466286763144907 -1.398874752248836 0.3939518825713925
Ni 5.468282020401031 1.3474505149515708 13.822860907191142 -0.007200117292865019 2.8290102622841666 -2.476505591113967
Ni 6.597893992992259 1.314578649311767 10.188644004315918 -0.8977880862704539 1.5111394006832233 -0.6364020255846459
Ni 6.969529210045527 3.5338827936778503 0.44653848928478757 -0.32555745315739415 0.8110269814238097 0.74830029181855
Ni 0.7610382601881509 7.004084440779997 4.881171446601088 -1.490096721080311 1.8038574387130935 1.2889924880036963
Ni 2.2263335810251292 2.835970724539688 10.098133532849562 -0.9202870387039184 0.31935543811174033 -2.2847676297436004
Ni 5.655311281825474 1.1467508490770348 5.092108192073298 -1.2129528833396144 1.8605050120038087 0.3916083220398804
Ni 8.99093621394193 5.3165109333769625 0.9315057988735302 -1.9610605995313841 0.2920585500690002 -0.5696165925289803
P 0.7214116608745293 2.975625282585663 5.288750208128987 0.037550961670580495 1.049693746135231 0.7749214939505041
P 8.416446253722604 3.7632551617142855 12.398352042716526 1.2586727539742322 0.5190123972188674 -0.9658930094684914
P 6.3000031160476455 6.361251707568968 5.559237381213834 0.6833711952453329 -0.6328289635214069 -0.03308958346511721
P 8.300627035506054 2.8906153453050116 2.1326413645446793 1.0298540857014844 0.13462347574556172 -0.06577138996885447
P 2.961011453741856 3.885345377371407 7.958900221585275 0.2852101596885991 -0.9856305971067348 0.31342981665592473
P 2.815622355263501 4.289380747867621 2.3703954108711516 -0.6076889739206696 -0.2220625804958369 -0.6643823128476558
P 3.399435568314826 1.4800293900446901 5.37315524388661 0.09034547976379279 -0.2669391292935532 0.5416615020769511
P 7.2094919793643415 3.384451769120543 8.732579443723319 -0.24163510331112578 -0.15598445791984103 0.40782786922253633
Ni 3.8112680639473244 4.539175479250338 11.162945198554898 0.9594490536153607 0.4620817454700945 -1.0277452668885978
Ni 7.592920001339036 0.8277614879706439 1.5668124102299987 -1.5253876830721214 1.2595338164229468 -2.3626262898942922
Ni 5.3947319147263775 8.740466286669594 1.2887454695897715 -0.43587474805742343 -1.3742003894306076 0.011332651403999838
Ni 7.30857928848061 7.23796119783348 0.8313400261856241 0.7674827782842718 0.7745975349521821 4.274892750741109
Ni 7.343032777368698 2.757287280252178 4.90796192460494 1.3726541279894102 0.9611246415455705 1.2266496641004165
Ni 7.0149060735314235 5.532814098782829 3.2455501007377867 0.44983249578909623 -1.263493058181011 -0.5695664560173351
Ni 6.3429381752204 7.2562007361119525 7.713118743579347 -0.1041816143159367 0.8090775710069227 -0.25870671408143187
Ni 5.833627741496204 7.434988907979539 3.14798706946548 -0.45622940045437554 0.6450576443771149 0.14724887781905607
Ni 8.5501720369022 8.693147078843698 2.928007323701757 -0.6642409021737851 -2.1149074422829317 2.4990438814257994
Ni 0.8281471820610151 3.225290524345714 0.7788958040797572 0.5091365328660522 0.5851599395802181 -0.9792334353311395
Ni 5.113156730237761 5.30463488512668 9.003527229894509 1.3562468902759803 -0.3090082905494614 0.926117015122134
Ni 4.019681611629288 6.231068390495182 13.074021494384064 1.6045547776215914 1.5218650146308434 0.611235039400715
Ni 0.8155173192216365 5.805630235223924 10.091703448158286 0.00395358533110932 0.06012113366161259 2.398729977595385
Ni 1.6453968874487561 8.916701663118896 3.316606606250231 0.8381557193198017 0.43817665671772277 0.6981018165872881
Ni 5.767023829151739 3.475390481267575 7.0642110972135015 1.4386669445451095 -1.4332275186970929 -0.0033833146499361085
Ni 0.8035145561263148 3.9786241519851995 3.181748713798179 -1.8059006943953673 1.14308315493167 0.30675266174606525
Ni 4.1035353915647015 7.36695136052698 10.212212040567124 -0.08090567450713164 0.23212896359290347 -0.27395978358576045
Ni 2.6435676437745794 9.047005220556589 7.881900142392432 0.07232564614760446 -1.006583802319634 3.1632788700623133
Ni 1.7397023297851204 4.106596896214891 11.823493961998476 -3.4344654617783106 0.9111249125886761 1.8830289041379378
Ni 3.4305038284960587 7.385412881015738 1.9862903431550862 0.8568630659213179 0.600237916959263 -0.5127319635267944
Ni 1.8503327138362435 -0.1653147766291231 5.866600424056513 -0.5846038099664318 0.6459732142128488 -2.0287297207435837
Ni 4.917229681884367 4.3593606396601805 2.4084080145308207 0.0505291190978033 1.1567521677783303 -1.0027196913785377
Ni 9.24409767551398 0.37260638922326733 7.581184541821933 1.6360903863360272 1.3937824253275932 3.0340138304151876
Ni 6.299253926087931 2.647581822077245 2.8700403691891583 -0.20357274922176552 -1.493732775171002 -0.5292268758580241
P 4.833033679374763 2.153930383436952 11.558353785403884 0.7522302230005755 0.6774010937048269 1.5049594971247564
P 1.0658013363928587 0.8322816007275858 9.595645352388148 1.4557874062754796 0.1566503736386141 -0.11260711937547059
P 5.509857438535786 6.219127597433564 11.241379837781713 0.7540899019171335 -1.4354175843698764 -0.19547505981529562
P 6.239475966709751 0.3589258105885364 3.148393111925128 0.1398908947920881 -0.6881202798945439 0.5495046522704536
P 8.090502374953138 7.548412568176758 9.250974499403455 1.9479410314302905 -1.1714943590845115 -1.410262168150171
P 4.745776172214969 0.09030143821833639 9.415789816059435 -0.3657520230984088 1.6277589836521966 -1.1204520477957154
P 5.341539427586672 3.66908845825935 4.671980961183125 -0.15224401704080232 -0.11066979314344165 0.5300192898523323
P 3.106446798514021 7.582412843385514 4.35553422131038 0.46539255501088245 0.4474477976070036 0.6421551260183392
