# total energy = -340859.77944825584 ev
CRYSTAL
PRIMVEC
9.31777707885935 0.00000000000000 0.00000000000000
0.00000000000000 9.31777707885935 0.00000000000000
0.00000000000000 0.00000000000000 13.63750861025015
PRIMCOORD
 96 1
Ni 1.2206008541068831 4.9139906809864335 10.073891477785914 -1.1991375747230768 2.069911594298532 0.12462882642669502
Ni 7.543877376609563 5.6173244540541365 0.18458330190528435 2.171339300018415 -0.7555682862348729 -2.2529641120797583
Ni 3.7745197125769985 4.860842080088507 11.754605099634679 -1.1962965057298558 -0.5983543267833049 -0.32149793837603985
Ni 2.6810506099868245 3.3965813533517544 9.603587857168495 1.3350823403832233 -2.010631468480976 -0.3592764426763942
Ni 6.4154013852442295 2.269540299668448 3.589719306463979 -1.1251306842183073 0.07434679034269132 -1.045257564740748
Ni 5.085707996194689 7.572566812472942 7.363517823089102 -0.768716907801689 1.8013315869674462 -0.16654346438260995
Ni 3.799873384218523 7.112147489862627 12.360205639890626 0.3123270705100492 -2.562904427525186 1.6296744555073548
Ni 1.4259180737397388 7.198774864082126 2.1909616213563172 0.6398089943836659 0.9607533742490809 -1.1553586298649134
Ni 7.578353152086829 5.356324198136917 5.678399687978687 2.5420154998913187 0.41588416386810956 -0.5756635700540086
Ni 7.389854520220587 7.548769209616473 7.811592022745409 0.23430514530861582 0.3893886886807423 -0.881079001045889
Ni 2.9429360547338645 3.552160278525786 4.574047421670284 1.1294740487886676 0.6684204874727714 -0.7892564225159375
Ni 7.820717853692012 0.8532689206183344 11.991039036080059 -0.9542819075921244 0.9414839844965077 0.5014846727477492
Ni 4.286065678442384 2.64554056124524 12.104420543847631 -1.5607830318522797 -0.4885954754899069 -2.5860813798622817
Ni 3.360707911301086 3.5138269433059284 0.27702590084785406 -0.6460608888306486 0.3523622320550641 1.038667056007424
Ni 2.20754912824946 7.810132858842776 9.038749796636981 -0.5885327127071929 0.3652987376110741 0.1309596537407293
Ni 6.073858263590392 6.975660690081277 4.956484403706453 -0.006052633951983124 0.8171631762285346 1.7544549770205653
Ni 7.282168969628487 0.46219994982482987 6.002863324105545 -0.753924837094179 -0.2193528948741577 0.5761749624727883
Ni 0.4118504091845713 0.35802906477598045 5.589591953904681 -0.37581146421693984 1.172634900446858 0.6944539354220556
Ni 0.8193736426578879 7.565988461800794 6.381426906177957 0.670999046833225 -2.617319511940957 -1.551701895486618
Ni 9.174851772221789 7.140818290171695 9.333634149182059 0.1587244825588234 -2.1967425705828685 0.6485656575303734
Ni 6.550080536257313 6.703302063810872 1.69095572249866 -1.0998078891828027 1.317982447478143 2.822401498718397
Ni 5.4242228402728205 0.8305242265804946 10.889551054469415 1.7118885644132646 0.6295765180223802 -0.9399480074679554
Ni 4.9359247284117 8.387397106989557 0.639782805752798 0.21899731130695185 0.7858216858027757 0.09343645998429069
Ni 1.6233338183442911 7.173272108006105 11.537523254564636 -0.7475942668904608 -0.43066595016297443 1.05862961517228
P 6.0623414910255535 0.1571890370665916 8.294032979886255 -0.12125579618940407 -0.45496081815459716 -0.43620642036522933
P 3.307400908191507 4.464314755437007 2.4934548707269992 0.7006850039334319 -0.33475608893752673 -0.894885053691046
P 8.36368336412749 8.095098437605273 5.074694383596276 0.2263452670315908 -1.4884527577189848 1.5016921392273943
P 4.492137638024877 1.8162024876967064 4.39770103477092 -1.4136195146581783 -0.10006039305871153 -0.14113762271499564
P 0.25722469261360026 6.900177377340375 0.3561860084545201 -0.3465075730465 0.3031405189147747 -0.692461330472059
P 0.489789887983799 8.62023904034129 10.632387859185043 -1.0408617496658978 2.973768512470885 0.2709505644457914
P 5.0395756814952435 1.1118903480276219 13.184907187526326 0.916281517088951 -1.5825304508317002 1.4065880617326936
P 5.718673916180143 4.579016592227588 5.634050795826904 -2.226721376333146 -0.8165296564095937 -0.1721952633517486
Ni 2.149564601007561 2.301770490851114 2.53858179727131 2.7169937253048433 2.68083630154768 1.1807793839308633
Ni 9.12409784005296 3.1541607450836353 9.075475815297427 0.4442112929475769 0.8950503756243167 -0.4238939215464635
Ni 5.968791008379133 7.8741925767904 12.271889884450458 0.7824347716084138 0.618075202251 -1.815729764670647
Ni 1.1444000725249683 5.079297365511348 5.845227033735464 -1.2941208103691972 1.5686110125371309 -4.343463043611339
Ni 7.111942498765195 8.987741489151793 3.7586878774112087 -2.681128893087434 0.919792615566003 -0.8621878205683409
Ni 2.2913532159906858 8.657109484547652 13.574503017751463 1.1525988077315892 -0.7569445977571093 2.0630500912920082
Ni 6.866176808498066 0.7428495342086593 1.5871873654229507 -0.45294353061425213 1.4502279099098312 -0.857277527750917
Ni 0.10679849820684652 4.25380753392825 1.1905445003347161 -0.6895963502194381 -0.8385719809216138 -2.0340120521884453
Ni 0.027368175062655917 1.876674861439263 2.593867896248827 -2.4132158299163855 -0.26014936006522943 -0.6499131726972033
Ni 6.4277381221987975 3.1567417693558526 12.547122113195776 1.5489824396729257 -0.4030548733139252 0.46727717362810495
Ni 4.659382420198243 9.175578558839959 5.3012132733699335 1.2181004889788247 0.8388735713224327 0.6746351009239155
Ni 0.9358495842189747 1.1371415241204303 9.287880136235149 1.3834882424904367 0.1365543742196874 0.34545547763290185
Ni 3.696166524472044 6.946989889772209 2.123660248736115 0.6108966822246898 -1.5229582476950223 -0.558689146983199
Ni 3.4337779197585783 3.3951743690011957 6.970321603770879 -0.5947619814463563 -0.2823271817138493 0.29237479575783837
Ni 0.1319509058618014 8.817011858322076 7.948090003859346 0.1313597173926254 0.8371745863534549 0.051729052943175424
Ni 9.153243846996984 5.516869498535107 12.13217354310683 1.6382516556534046 -2.604913682077436 0.38520833205080757
Ni 6.088617622605525 5.475041996881742 11.715656791122525 -0.06508439120415889 -1.4253465732871193 0.72558253850606
Ni 6.966706306234343 6.5346968861727275 10.023186929836012 -2.6144666158731944 1.253981262035834 -2.135511234576213
Ni 1.3470337723368908 1.9733467994329492 0.4858680355788311 -0.8328304504521464 -0.12153116133797778 -1.5659136682106258
Ni 0.9317963511561068 2.6266906980586158 5.154010098081447 0.20223577557789688 0.15251166887989218 -0.005799380290596464
Ni 8.444608258727508 5.193477406781192 7.835580640033577 0.5888602712499407 0.0906756094097019 0.46203238028939775
Ni 4.624915962498133 7.835029959403656 9.960632032899085 1.5225478996304813 0.8881721604472447 -0.6228160593700951
Ni 3.501080224156496 5.5511402829149405 6.1513756470844525 0.9057685333727691 0.8651142501865164 -2.0734617735436354
Ni 9.248070865113778 6.679150385422473 3.7283035378831495 -0.9513968727348453 -0.6038742281602696 1.6494349259637335
P 8.229330335314868 2.4652229377219803 0.13681385375952712 0.024090722400616577 -0.407493368701253 0.2226919865497197
P 8.17543631224446 5.0313480842664795 10.211984662348963 2.58777367996304 -2.6259339930828456 -0.11027667147008104
P 4.950861125192796 4.109288810238412 9.962200214794443 -0.8795818476750722 0.05787810326370677 0.12782136522206372
P 1.610438014760362 0.25923360536843776 2.1556947665985047 -0.4427084831498053 -1.3221617756668134 -0.9044022491528618
P 1.9881154762252375 1.7551430939933208 6.8791956067404545 -1.2796670968377122 0.4838561610327087 -0.38891843391254305
P 7.990217537937134 5.1736398592160295 2.700553649352085 -2.115021599263293 0.36372265137320586 -0.8518591849488233
P 8.286187411520888 2.441835317060376 4.304379769442537 1.0635069978692395 0.054985355096944015 1.7756892038089933
P 2.975054432590659 7.440273012411799 6.9838230628699485 -0.4481826188904991 -0.9634489188033729 -0.8050350255064328
Ni 7.382651878478985 8.68551938709635 10.216921220686222 -0.4341932465899425 2.708296968861794 -2.2944563177862745
Ni 5.873880130267935 5.505334090415956 7.589259610247948 1.1282998259749084 -1.0383158433155923 -0.3114996895127474
Ni 3.0466149611488764 0.10757466904394282 7.505007337425519 1.2036676013829464 1.1846527508433404 0.8105027334892235
Ni 3.6608335134964234 9.133005635014113 11.796526710837322 -0.9500863814535381 2.6186847677195995 -0.26603050143635476
Ni 3.8108590434854688 0.44885037049340304 2.2567898534081525 -0.17576524009119407 -2.022773503160149 0.9075186832946563
Ni 8.917578627166977 3.069191935197908 11.514884783186375 -0.05778554354990048 0.2066490741542441 0.5589292880184632
Ni 3.7542815005941277 5.389691158132618 8.414943251595892 -0.8170441341521671 0.23021683417185515 1.9376941568913015
Ni 6.333470170711363 4.050297963063662 1.3505978220990678 0.1211408678780946 -0.5178926817921273 0.28500987075233497
Ni 7.580235343072346 8.264169504101218 0.28529822340696676 0.12531428252949386 -0.14291194100659904 0.6648679942348227
Ni 2.1947278668827797 0.5327858388925283 4.233928056365885 0.6579023615502669 1.524367469337723 0.05823342972059649
Ni 8.123116993513419 1.2518992675739475 8.058308126282451 -1.8586977835917406 -0.23715547027321737 1.7443813948346472
Ni 5.599769761892198 5.160576335643292 3.433079086471877 0.021589810355633787 -0.9521928862735793 0.10913895832121204
Ni 5.644588270012645 2.3513690186525973 6.3857773763321015 0.036921041396065446 0.4994820404954237 -0.644484031261832
Ni 8.782750391719398 8.75609223127603 2.3121439721589088 1.5500772153990015 -0.2109569575009786 -0.660002181502089
Ni 4.551417336291463 2.4640861689089464 1.8261035577026912 1.4117768050224848 0.6793641309684687 0.9654237831415566
Ni 8.253724275909324 7.4678163616849895 11.875706385776015 0.7792664011827612 0.9539132113987958 0.3157759482905981
Ni 8.240278723473189 2.770091288489732 6.477980508401762 -0.19506111220632857 1.5722049005359762 -0.8907327220855692
Ni 2.0795415056800857 5.415529354186256 0.26447392324098223 -0.7771475550675454 1.3353533346564228 -0.25273095611397123
Ni 3.13049359110735 7.852677829337154 4.429871592179787 0.19639371497482305 -1.246271552096402 0.14520407947488542
Ni 1.5997412065852537 1.388153122926398 11.694736517851833 0.28363433056104703 0.3109101355578645 -0.4199269664789155
Ni 0.45875516761025004 4.364847484296516 3.3779970468140768 1.4916789779657664 -1.123979858443316 2.002855938300615
Ni 4.589545680413888 2.1713681995526426 8.686452096589669 0.6995686309408017 -1.2387477329155312 0.6821802602610252
Ni 6.726372880049173 3.5371586573045977 8.837869702485822 -0.3695616266524861 1.4297197626541505 -1.624636378862815
Ni 0.2670325848480248 0.01944620092460946 13.178415492181728 -1.0371225943384397 -0.6769143838763955 -0.07900100128525105
P 5.3373438860701095 6.005260788167788 0.010174080876655998 -0.799976637146919 0.35414323521488683 -0.13039889614125286
P 3.094089035758788 1.0126839746474987 9.942262035235997 0.42395459958106985 0.2529680118254417 -0.15459786198495953
P 1.6613317135865322 3.5425256969464636 12.501163109151435 0.11783648609520996 0.7030892424995504 -0.404176131402562
P 1.2417242549195757 4.3632261910713686 7.564957915647338 0.4131955612923529 -2.26973516089051 5.970234980759918
P 7.220187115986656 2.0241380027104032 10.061863159255212 1.2194158653561387 -2.2819026494909798 2.1463016403234976
P 2.2361453863412795 6.028629773275081 4.12234581136714 -1.1327761165787071 -1.3769000477499578 -0.6572238474260035
P 5.348869976412103 7.725173366734205 3.162333367427179 -0.6688238935587771 1.3653804771461326 0.1623736492756365
P 3.1737373948884295 6.43105525086634 10.293577641571066 -0.1721628674519164 -1.9919734870601569 0.6174205993861367
