# total energy = -340890.9571407122 ev
CRYSTAL
PRIMVEC
9.08045417576000 0.00000000000000 0.00000000000000
0.00000000000000 9.08045417576000 0.00000000000000
0.00000000000000 0.00000000000000 13.29016255259812
PRIMCOORD
 96 1
Ni 6.563569994145946 1.9988893926894253 11.297049876882802 0.5875510655202139 -0.012377547728746425 0.8880662309969997
Ni 4.443774358066631 0.46696869701054633 5.831377584166525 0.7399863726362158 -0.6758237219153781 1.30118491630483
Ni 2.752748673667916 1.8440858149717514 4.782624207171736 -0.2742891419007212 -0.7211023912475193 0.05605364846045831
Ni 3.6898151920954794 4.552857850506943 4.861780339719865 -0.6759401928885842 -1.2761719392002604 0.19013796387309834
Ni 3.5378174746262077 2.9315064887166096 2.7815110113275083 0.9676215621238238 -1.53169897000213 0.2312573596212275
Ni 5.014980309282627 4.633310671868896 2.524347109221035 1.9073386845278957 -0.4734861306522943 -1.0082956428044183
Ni 5.2410472890373905 4.44703424100895 11.588582388873347 0.8362939835207146 0.34079303916022596 -0.6318717418144602
Ni 6.012695179163519 8.02759341204043 12.334838605819515 -0.6660036505011627 0.31522084711807646 -0.3801031496137583
Ni 1.9013743984900997 6.469868790575517 0.13588172792602177 1.57733502267369 -0.18203770336346714 -0.47191621506201303
Ni 2.757089130621755 1.5551548530173476 0.23213635512703595 0.5633225319901524 0.4424128062862574 0.6538240777158353
Ni 8.09635968926098 9.050116081916904 6.755376421417792 -0.7602906314112067 0.5008668366580923 0.5373384492215649
Ni 8.926512943725152 2.4402811752608953 1.1945972708707213 -0.21659435829241408 0.008491582410778924 0.3507918022441507
Ni 6.881549328057109 0.8762410981236074 4.627355710215491 0.21174268662706758 -0.0028341270146854418 -0.5176602540663472
Ni 0.9024799776504137 7.5127316771394375 2.037368724044213 -0.5760075836569887 0.069221553300984 1.6117155570360886
Ni 7.821140212662846 3.9863101721305267 3.878215541117566 -0.13707425127889944 0.10619684497375259 -0.9480940336138576
Ni 7.8147203317708716 4.017038428054777 12.495742432452648 -0.06494298053028814 -1.1248769163362884 -0.1316970461273861
Ni 8.657014153070364 7.32250524884242 9.101288979748203 -0.6665348404142842 -0.05694659258837289 -0.20595359074911626
Ni 6.764484116657751 0.94895283255429 0.5363642496848648 2.0152352858015745 -0.3706543454960326 -0.5739059639329536
Ni 2.009232029656837 6.3008361416305085 9.036074068039463 1.3048297121462689 1.1052511716855609 -0.7054178906327271
Ni 0.09194050356342223 4.939231163029645 1.1157871036153562 0.1743948421062287 -0.6004883424071722 1.2698706795725807
Ni 6.538580585072798 1.9031269260886163 6.669096672802117 -0.05591866554449079 0.7488934453178586 1.6314657430798223
Ni 3.776724216164922 4.551668311048882 0.2720113522429218 -0.25912297568324405 -0.4429961895935532 0.5243464078372712
Ni 5.955860618339087 5.569523627631898 4.671066291049581 0.8879865267989997 0.437509198337053 0.6501635981451125
Ni 5.244552344234424 2.898871337477912 9.303751319646262 0.5140974764157532 1.5604644721705965 0.4830166958505487
P 0.32552065085711174 5.541310657431943 12.330134022665156 -0.4135354611302749 1.0204613316326747 -1.1890611643236813
P 4.249597932332543 6.3027248760372 12.434275932104882 0.14415686915729367 0.4091255049880374 -0.6745389416656835
P 2.4797811496316067 8.426679359992788 0.963454317397974 1.2890441671772381 1.112431491484084 1.6770755704991374
P 6.259783409646603 8.175940787050616 5.802764165950538 0.5879583282609616 -0.9818976124268637 -0.15624259667723414
P 4.951916557097664 1.0750167737470673 12.653523490997024 -0.9150646139627143 0.49041555941778125 -0.9641541724005136
P 3.9487624953436558 6.229136877807258 7.870208261285148 0.6696546169901886 0.0465757908770101 1.1481716251981708
P 4.780441266059386 1.1281465093891434 3.8338130296979473 0.047887567709898174 0.7554672418806343 -2.168484347068124
P 0.35378083941723293 5.679887464069052 3.2042179439535503 -0.20663467597654092 0.14707224303187574 1.4433597220350887
Ni 0.35536901080055183 0.14856167372171394 4.679851630176859 1.1050596245000452 -0.08086453685655105 0.21561656776017707
Ni 1.6741178792772755 6.959214450078418 4.5770654325011675 0.28726524244541496 -0.8459037386963367 -1.3321481974555638
Ni 6.721197593019779 5.8017743964778 9.000908194304877 -1.0438987367200085 0.025984854099535895 1.1828416657765306
Ni 8.88821158926638 2.4000093623105268 10.099579550404979 -1.5671673381120688 0.2860982187205073 0.5474166593931733
Ni 2.3294542356759464 5.500312408171308 6.604877886883831 -0.5930167166204755 0.29536833116852357 0.8375494531943705
Ni 0.4746671058085898 0.3440102710441559 9.037854745045003 1.2646022320847898 -0.29138672081295625 -0.08207706910741348
Ni 1.675289257827579 1.264798259804047 11.384791578572885 -0.5579916066955423 0.8100764445850823 -0.9373190544855406
Ni 4.344515916722668 6.790690306550595 1.4945319268348785 -0.10486629908778713 0.919264768086991 -0.4780279843867058
Ni 5.510064815636629 7.925320260008863 7.974496366032316 0.3966767377017233 0.3757351024530497 0.47385662661783556
Ni 5.504789071933322 2.9894125430986844 4.792405672089466 -0.644478117724561 0.47134774415305275 -0.3339940139605216
Ni 0.7051953125537745 7.553729926400072 6.662039344047884 0.5459213057945694 -0.04117775978989037 0.6199729334943451
Ni 5.251408086912559 4.568131173930284 7.3462034173740705 0.9567195704993394 0.30364754045818027 -0.8146136703338034
Ni 1.1664115420324024 7.168428107435012 11.039460101489436 -0.8954064734121547 0.32797557568058355 1.0874894768267658
Ni 4.605615287540007 0.7403130598828062 10.333274111417534 0.2841817184240848 -1.5129893094077684 0.674156361515284
Ni 8.096759229231628 7.242751622429097 4.546179176679435 -0.1971748161152217 0.24829606027106912 0.34676596891420924
Ni 7.276421945409924 6.572614126208757 6.8850480269364285 0.7505464075402494 -0.9330350823982061 -0.7863986413521682
Ni 2.4196867058648555 5.181851810204593 2.3772646414360996 -0.45420337116328224 0.8730849270968188 0.20059592598162873
Ni 2.7188876611556445 5.112903923906477 11.04776599265194 0.47197715020693554 0.9612452262838349 0.5558187674139395
Ni 1.1154157130517326 3.2996280889438805 3.649837585850768 0.12093286563234658 0.6703909809355809 -0.652279873157167
Ni 1.553148072710238 0.9983777430140096 2.453563155148721 -0.18320729819153608 0.21101326466021078 -0.39473684036653306
Ni 1.1791786601853265 3.7203164366727712 8.035870245750523 -0.7757676440008834 -0.7309959962121475 -0.4423768108419994
Ni 3.836155786798555 2.6687817166550505 6.914831915657332 0.4487400340558659 0.26590631715366464 -0.0033069528860459173
Ni 4.001919472347367 6.955373418087887 5.678925844003338 0.8546989683904636 1.0436022885255123 0.14366038913684934
Ni 0.8050884776238332 9.015946333972769 12.972234709490781 -0.2999029858140835 -1.2224009161263916 1.4147505429388278
P 0.34926512970354223 5.779472801752635 7.802335500726225 -1.2714161696828297 -0.8566278099820602 -0.5516841764202757
P 8.808957387816365 1.8634635035480955 7.701383554733954 -0.989773672740831 -0.7197569329632185 1.507335710666417
P 1.6577730622962916 3.269190407543737 10.430849944657846 2.170179218272043 0.5096888058250965 -0.6514735752057876
P 4.095084929138975 6.168061745021649 3.6009030199004783 -0.6041421371096756 2.0838462021017534 -0.04419932022503356
P 7.041891982640561 3.9907141922615144 10.361249173725877 -0.0014578154924491024 0.4526319129111044 -0.5008218423527697
P 6.623183173857145 7.9309955436828155 10.067696260747407 -0.3523426916710383 0.0036715353143162576 -0.6334629975609799
P 2.352364220810959 8.706811362139094 5.660293660690404 -0.1418045668750332 0.8040245819640476 0.3513394472175046
P 7.063258290616258 4.173703498817507 1.4695461499432811 -0.001754006576629237 0.5512182925274507 0.04205707707105015
Ni 5.601069124405196 2.8674892888744226 0.4181231195082638 -1.6481555450306775 1.717315648966107 -0.9650895397305896
Ni 1.7859890710582318 1.3770689915556498 7.098342440265941 -0.7730772416529138 -0.7157804648139736 -1.5205527235773233
Ni 6.99253063535799 1.1145076676639 9.057458536922917 0.09403398435897353 -1.2441190245297735 -0.3312069381336876
Ni 2.7726348676614463 1.7758371236222652 9.13605622155753 0.046199638484513986 -0.4314475655240053 0.41358148387686194
Ni 6.400185387513255 2.4199046367579355 2.5639515088113463 0.36554376374234465 -1.1918073596102507 0.7032779614715888
Ni 4.411003000019758 7.193435677415917 10.313604032226309 -0.11038928578854537 -0.3158427969727915 -0.3487585738642058
Ni 8.325577586511523 7.1295092821125134 0.3685865194658408 0.7360132469210808 0.7110118397807368 -1.1448456461487317
Ni 7.710740054410179 3.7059148368217483 8.21462261252689 -0.3277495757127065 0.14013772069557154 -0.7561493555493235
Ni 3.380553093907507 8.656024383597625 12.23800646175184 0.09569388855989971 -1.300079341945477 -0.1489604611935241
Ni 0.22155581026801235 4.949691845897475 9.938928160389663 -0.8077575666439184 -0.27219189305206026 0.9299993808956757
Ni 9.00163553866053 2.5708308606695653 5.722384896264997 -0.5722548014827757 0.21366612890202558 -0.6277422930271189
Ni 3.6658427938567026 2.7461017814289823 11.406986023942286 0.0962747007640342 -0.09294563639080122 0.2404673082552697
Ni 1.597188274020111 3.839125095216767 12.655968857226457 -0.7179347921528151 -1.349638126710211 0.3719969755668561
Ni 3.1232765941729426 8.335765855763002 7.779170354837231 -0.6331434094380322 0.5374567199669841 0.7199847327033084
Ni 5.729385018159798 8.014808132979748 3.5802767689158648 -0.3856644457516197 -0.4949111332952896 -0.26623824657178663
Ni 3.184542416489997 8.672178511047166 3.5881713155176795 0.4943251788848326 -0.6408356358759673 -0.5114088738399967
Ni 3.3036598104658563 4.184300388493512 8.84489510013061 0.7049664049176053 0.8612187717868522 0.3997319795882793
Ni 7.626391718334424 6.286389139510094 11.28558035558909 -0.2942918102748932 -0.17615630488202566 -0.008629650650539977
Ni 8.069236373526426 9.08016330380028 2.514976988863992 -0.027444983584830156 -1.488920955604655 -0.5998874755983797
Ni 4.6681251320383925 0.2425543598616375 1.5151717985003097 -0.6281927503009762 0.14157805268652393 0.2719136996900091
Ni 6.286007760447204 5.8154313991108 0.10675072383896932 -0.6566126962045659 -0.2900420338596037 0.7764888384376241
Ni 8.292570136663814 8.918140765249337 11.09406904306829 -0.3104943881766846 0.15651539072264656 0.20016372354021658
Ni 0.12900873238551805 5.250400156532065 5.509516356222378 -0.6690298389219962 -0.7821182688092594 0.3425881833874358
Ni 7.3098743374976705 6.25525226316132 2.5306725533926757 -0.11551555127151718 -0.6684443987321713 -0.639327426761557
P 8.64938657181257 1.711502107894337 3.4512162779432396 0.008048581336089366 2.246710674970879 0.4587948471887066
P 1.9943491657502632 3.242330424971654 1.45236229902394 -0.8488047143932156 -0.5100991538896376 -0.5428285258018587
P 4.891240964282701 1.1504027018449163 8.21184490168551 -0.3088023451862424 -0.8997027867946634 -1.6635052880138708
P 8.51060091473626 1.5404445177344621 12.513790742581206 -0.27970877025439567 0.6911197288425001 -0.8391178261227548
P 6.634797074367523 8.04503696394069 1.2454959389948927 -1.7981562745632582 -1.5001227378577455 1.0753276446532514
P 1.9264364511942753 3.5260038041305073 5.905376926957154 0.2831190814875253 -0.512879287737936 -0.5904651538432153
P 7.077868740906482 4.020025897380745 5.95819247889504 -0.18819703809664365 0.722595430853278 0.4641293720277426
P 2.380259375125171 8.688931948452673 10.174443352404824 1.0609474646721793 0.31629993911486814 -1.3464779838146745
