# total energy = -340864.5654418253 ev
CRYSTAL
PRIMVEC
9.29507434146629 0.00000000000000 0.00000000000000
0.00000000000000 9.29507434146629 0.00000000000000
0.00000000000000 0.00000000000000 13.60428085925111
PRIMCOORD
 96 1
Ni 2.981720439936461 3.162518932001876 8.924666610274912 0.25163386639505053 -0.5476292896246118 -0.05057976983008063
Ni 6.387324157527496 1.8184046990514202 1.642363426061584 1.3244577707898415 1.2097567449998197 0.23777099237002924
Ni 9.149058071747431 9.146771483446155 12.14669074954142 0.6523891450415217 0.28071715691425203 0.0644074197417923
Ni 8.752195575360357 5.607262924114625 10.58187241113111 -1.4416820772223493 0.728849639293106 1.470247547564868
Ni 7.775738715046548 3.9094246350462654 2.077373837274921 0.5950941679747944 0.15940093980055772 0.5653056238584522
Ni 3.3199960824091694 4.284062608553876 12.92327748414528 -1.5888497081815087 2.411116524185196 -2.2259796130711145
Ni 6.6892002886677195 9.221977930379541 3.3853711291545134 -1.0741025139968985 -0.6625277761374203 -1.4756934011707876
Ni 5.38762031615073 1.2141133224560396 4.64760319274079 -2.4061650937171914 -0.7415891983469616 0.5520397599874814
Ni 7.1265242438980785 7.991839899665789 10.438088764323156 0.5708733477542168 -0.6996755888323112 0.3705378745228264
Ni 1.2511170136242271 6.485405782548023 12.36143485329893 -0.3383630895624947 -1.219498654877932 0.5446072149688362
Ni 5.11085018095255 7.5526569295563455 12.176715698853522 1.3615644458341518 1.0720201775465732 0.2249854105695867
Ni 2.535436032988913 2.237389472499605 13.186343891162284 -0.2970758007779335 -1.8535645761302335 -0.4033320382347118
Ni 7.317407891682529 6.552878727584415 12.76295139343579 0.058493625360518615 0.6659031203675564 -1.6532175329346175
Ni 4.5644671178406675 6.589157402949759 5.475178987448194 1.6970705255638259 -3.343524257412048 3.489701242323164
Ni 4.200072316316815 1.4833079720219478 1.3560518969965003 -0.9255583144051867 -2.3061075288719572 0.8077493391138024
Ni 0.8024149578264286 3.875860121404385 9.275562175254288 -1.2446491860016304 -4.033575435780718 -0.8289475704579724
Ni 9.0219293392412 0.6416910379328135 9.99464307309597 0.5807980630670965 -0.13318494352682222 -0.9797468846324483
Ni 9.208862580407596 5.742069388071477 8.281007805092585 1.500459552371874 0.4647562069784641 -1.1446350727998222
Ni 5.946477369101272 3.2506083520473203 3.649348453462269 0.4820311920088278 -0.8957317179620574 1.8441093442546048
Ni 3.7820449355313586 4.741147891948909 7.038582615535521 -0.18842226673357226 -2.6685407720097785 -1.6796482163223203
Ni 8.46191040199123 0.21457586291095035 4.855925329598498 -1.3966510051246397 -1.190276524788021 2.081296696207022
Ni 0.6074126625773645 3.7955042032559345 12.01251170310626 0.19728871598526668 0.6062810378295495 -0.4960768714686167
Ni 8.4971201438011 7.382882395723904 6.747410692069069 0.7657213155084748 1.3539339258720875 -1.1839410694882966
Ni 8.435958554279201 2.6537065595963027 8.04110937100618 -1.3478933761049625 -1.5401373305774702 -0.6808512570369565
P 8.947066810060447 5.782521551840368 0.36646388508427435 -0.41216532025562563 -1.2137967193971484 -0.6981694366004298
P 8.341780860504755 3.4526367940318865 4.506595055147311 -0.36744483741979944 0.38550889401036187 -4.443419564102335
P 6.898358052713577 6.15477998630275 5.9862240367235495 -0.7842959931868685 0.09849690522633359 -0.32097163355892466
P 1.5865855436295169 4.217203138427584 7.277378653798631 0.07023919593222097 -0.5063934229032763 -0.6385442687386292
P 3.2785679358287596 6.665414193289827 12.971110866491578 -0.8910841918877169 0.7143756140466471 1.1985318228182777
P 1.8019524173715178 9.21606626306405 13.249195325209271 -0.5212335732399023 1.0191277004229158 1.0753479563682256
P 8.569807625573326 8.06500143023218 8.917184075386594 0.6134760129160919 -2.0115023011217033 -0.1182774302873705
P 1.518183091153583 5.28499339975084 10.335525983936595 2.944432739621245 3.430580010680976 3.1124805564635234
Ni 3.8567215632242045 4.589145540360521 3.365685091092442 -0.37244537595818433 0.705553901989959 0.964898506765706
Ni 7.317314940938575 4.2725553064523405 13.35735002235212 0.676111428359126 -0.7999432128058223 -0.3807382120945959
Ni 7.020746297278139 6.611502761796361 1.448978473757324 0.7313024717089727 -0.5484643839313973 0.3874868436723391
Ni 8.461101730518829 0.9427157402584155 0.573306246098231 -0.06307378853203331 -0.006484836393395283 -0.49483734263456075
Ni 0.6044075650253236 1.9248425959534337 5.002947380325816 1.3539580942418037 1.8681337321936602 -0.0724850545436042
Ni 3.586048996829424 0.9794870545667175 8.036592894357442 0.9229306469743523 0.39698475586044535 0.661311644342132
Ni 1.5062203304066706 7.854207733092728 8.177614974562514 -0.4962193105837518 0.9138176289294907 -0.6735891761579045
Ni 6.714761743255139 1.023573592424219 10.932100589768895 -1.7307722886916448 -0.6322743765695175 0.6173156983771563
Ni 0.6926048079337548 3.90045488825468 3.192911036752598 0.16147402027950256 -0.05514502060325987 -0.9573476910016416
Ni 3.037054017812427 8.820198339637287 11.541735704634206 -0.33414648037798583 0.10761917924257597 -0.19037116292982698
Ni 9.002995272697719 5.894973361876221 5.035053496795054 0.05053734662791942 0.24446974454644346 -2.2941773530932745
Ni 4.034982499979669 7.800519383384752 4.008691382052208 -2.091399846079295 3.1970695933595135 -2.3916041651838813
Ni 2.34681108828255 7.147698423370857 1.7803785496997357 1.0184885241770203 0.17721482805352706 0.25126671286361885
Ni 3.2758444790309 0.6248186188902377 3.777051621566136 -0.2488431910237908 0.5287496791112895 -1.10555739007207
Ni 5.064765202100031 3.2131120219361753 0.054030408445727394 1.4855998616512223 -1.1134524765494307 0.6788344837172438
Ni 1.0717499630157077 8.77990419213312 3.6802304086336295 2.2741348326201027 -1.2712526475217718 -0.2816792637172052
Ni 8.063226071022655 2.65387387093542 10.317214687377607 0.685898846763193 1.7253308059610994 0.6199022281574099
Ni 6.973155516373562 6.442973767932907 8.194919614564476 -1.706237022554442 -0.2043584783478545 1.568891519892027
Ni 1.8247718250122864 2.0077546595606264 10.895886050416879 -0.03395116013446411 -0.14697248422921785 -0.03130395231960416
Ni 2.9698320397847127 2.1321320500458105 5.684861923197393 1.4680772793864265 -0.2668406560424759 -0.005142720543204046
Ni 4.306054754573452 2.86910131856149 11.204812495486033 0.216446262750324 -0.6198032406857003 -0.6081404596357913
Ni 6.608481862617847 8.924702861065052 1.043180622353929 -0.876388280438439 -1.2748071976422497 -0.977191465200446
Ni 1.6387959765086197 1.3185341882142458 1.6368402928558223 0.8762859505326198 -1.0467914848867714 0.195315908529612
Ni 6.278850639332885 8.455533980955968 5.501407828377205 0.032492316200750486 -0.6721437019606296 1.7870401100454387
P 4.497858614723051 0.5904305616569228 10.135529445214871 1.2620542688519554 1.1296679099670286 0.24179168349364807
P 5.638791816463908 4.419082859221822 2.0516348467665493 -0.2749080064316427 0.7492865669912192 -2.076311584287605
P 5.5636783202744775 4.57535164995771 11.971046376228268 -0.5686866245155432 0.17689806814405662 -0.09317703567531695
P 7.115788432971362 8.745679728209165 12.514020006051908 -1.396363298680892 0.12949695315227375 1.0889187530741244
P 3.3551500537726673 6.651146254092849 7.397313928230241 1.2423696459388345 3.3759283847743666 1.520108179840737
P 1.1891932280019046 9.247883302719591 5.787968465436086 1.080193971606617 -0.23884494216049834 1.1645441530189233
P 4.641495399355556 8.632186869841023 1.9861845099186026 -0.5358852617148061 0.5174057148533799 0.82262857021848
P 7.078394348678566 0.870338713970998 7.127160026986725 -1.0651270499711656 -0.8727082604836905 0.1722896228377678
Ni 5.097930027542908 6.497396428518122 2.640999263390317 -0.5513838715710375 0.19807650199388468 -0.840453771325359
Ni 9.19877742468856 6.355451347425584 2.412283733309046 1.0257732307638914 -0.5593977430144494 2.1036074438890804
Ni 8.744527138984132 4.106247835369393 6.3269294116432215 1.0016120601366556 0.49694256190302155 2.6177658554497563
Ni 1.5832114316239774 4.961338909302135 0.7974764848001392 -0.7131170590491976 0.8521173237062164 -0.19332098958677027
Ni 3.840074084981998 6.123223208730281 10.91762629992034 -2.18904391638703 -1.835092742578291 -0.12241587793577627
Ni 4.6602900397831055 4.681213252247208 9.090244418017818 1.45855082795323 1.318484841035858 1.6232713801944882
Ni 4.837881731182098 5.681168060632651 0.35588423140740144 1.650561840479325 0.09374782057712241 0.2730406142056008
Ni 1.6542443901538164 6.455763790301012 6.280878824565967 -0.705759847353178 -0.47286238102536626 -1.4584785799543978
Ni 4.825277610301902 0.8361179680768007 12.672904430722669 0.6172892160145949 0.12483451467959791 -0.028099329339377414
Ni 6.214482249144566 4.053572648770519 7.300628423383907 0.9526916802868689 1.8694079709203935 0.12311110423058796
Ni 3.5779901673285903 7.898554533033301 9.275344670513435 0.20698691710963707 0.302533224348079 -0.38300386820032106
Ni 6.999349036019871 2.3958333106440226 5.642171505514084 1.2098184514756904 -0.42760762295262483 1.2131344032228009
Ni 3.76676383322528 8.866524990424088 6.247303156834811 -0.5017782927287682 -0.6766770710546087 -0.6870756406801134
Ni 3.0358456581410223 3.4256624881363624 1.5857285377702584 0.0462780571309332 -0.1005519879831494 -0.26411657224309354
Ni 2.136974783805827 4.3586648756515585 5.030441280880045 -0.6378045623591273 0.3667285280790652 0.9361977963969038
Ni 8.966112417496673 1.3939823070819117 2.9058475361689244 -1.2055198241003366 0.9316209756594989 -1.088941378781944
Ni 1.4053037076955397 1.823554170266486 7.328693971013454 -0.014354468949459149 1.0457136784415602 1.4747058404465379
Ni 0.32934400548614395 2.9024613405666706 0.5312729901746789 -0.5180850003085916 0.9387835548462091 0.7355028829435656
Ni 6.836880430662235 5.586005088972289 3.8607993123614777 0.5786239382339131 -0.00907393727681018 0.39068169646055295
Ni 9.047555859349387 0.24645703857981915 7.519099851973981 0.37354837921437606 0.8004396928262667 -0.7554667276600021
Ni 5.736213491202359 2.5391168824495014 9.02668562880934 0.07375543661559555 -1.3095176045402415 0.6632474279122642
Ni 0.2596876474742673 7.869832753151437 0.6482905407535654 -0.1754659636832204 1.4986847198596382 -0.1297111260456089
Ni 0.9577365804814226 7.789662736490895 10.55358935876071 0.07436633072671708 0.021856690863775258 -1.770097568653829
Ni 5.714379361447505 8.794385918041193 8.312895487313531 -0.11579657284704573 0.5283724982775287 0.17987617693577407
P 1.8917893114033022 0.5617617636991129 9.34943291999705 -0.37844273119219984 -0.7149057755185042 -0.4589339438697322
P 7.596111402354958 4.39771348318674 9.205023714682286 -0.8276818163716713 0.1302888529259498 -1.3051392729668878
P 2.5289201858377197 2.6453038123428385 3.4912392379960875 -0.347187372722344 -0.06180289223940969 0.6713739136741406
P 8.141341876241807 2.3675483992587436 12.409199452094699 0.41612584756527043 0.04756103760841487 1.3894884259379296
P 8.550724837839518 8.445244333600233 2.785177021352636 -1.3358747543775316 -0.07478439210074218 -1.6550178193681495
P 2.0354168009614115 6.421055982508495 3.951377023822577 -0.020925951519389765 -0.342494595232365 -0.4557200649181249
P 5.472428574934588 6.843888916756384 9.808428341180342 -0.5689450203832523 0.11715900041221113 -0.893443693258829
P 4.948567477082822 2.8918928409790725 6.11241675523816 -1.063110533761769 -0.30549462096924807 -0.6315462401542413
