# total energy = -381178.6400396441 ev
CRYSTAL
PRIMVEC
9.08749356623267 0.00000000000000 0.00000000000000

0.00000000000000 9.08749356623267 0.00000000000000

0.00000000000000 0.00000000000000 13.30046541211736

PRIMCOORD
 96 1
Ni 5.884279280875124 4.187898690000608 10.00419806682962 0.5652721995173555 2.1502891642163355 0.45724395776181903
Ni 1.480479919761565 3.189846538880058 0.8069421623375995 -0.6612406818948806 2.2189119075910555 0.38616118288238005
Ni 4.136681576506518 6.02665304189569 3.3238525358648965 1.1292562763509066 -2.34941236230718 -0.06331572933951031
Ni 3.431773791442099 3.6682758103710724 2.2531258815443924 -2.4858700630480026 0.15211906142716383 0.4945300958067871
Ni 3.2439080378467615 1.6550870203072439 7.567499363630026 -0.5818571004592302 0.013788054923027869 0.0867186816444829
Ni 0.9279603135797564 1.445647557088952 6.174913681220278 -0.5654244088245036 -0.4507604069200043 1.1569444862947946
Ni 4.772179086044348 2.8534002661881317 6.343603914733309 -0.6196237776850426 1.3359493163692089 0.43239810236273274
Ni 5.6257400901535375 0.636514400063023 7.772313292645251 0.7026318432471577 1.033744421894826 -0.716564651278166
Ni 2.0968936929016677 2.0620340677484865 12.186697766214081 0.24936023986952538 -1.0178161807003439 -0.04461995270221993
Ni 2.789324349359383 6.97788642638715 5.08555221268207 0.6323203993161046 -0.646225439432971 -0.7531995288923803
Ni 4.770943186925257 3.5591350131631194 4.013149824555975 0.5983365861714922 0.9751106714120172 0.49861840694354775
Ni 5.2799155241461575 4.661139002690145 1.4571586851341904 0.18019242262461224 0.6420520247815718 0.11272898966531553
Ni 7.022187957310445 8.527404034440872 5.689460685985548 -0.603454881234664 0.7043084596186321 0.8842067480415933
Ni 2.0076272440279195 1.029449441241573 1.5632969744822338 0.06897447028718443 -0.9388450042117638 0.9871514046266353
Ni 7.593518675084299 4.706149358108212 11.483155831426128 1.3366260307212594 -0.7318179778928106 0.8732103969310898
Ni 6.810476620711472 6.785195213731244 10.695529136571086 0.31209104323984316 0.1893856590881061 1.4372068150598152
Ni 8.59480597389894 4.19186992467004 6.911414137516458 -0.2620553188386906 -0.4921852497236943 1.1311159552674648
Ni 1.057784246045436 5.775156658654217 6.019431210793178 -1.196978876508861 0.36301636933480064 0.08817855401946104
Ni 7.035782847620445 2.0842893393856454 10.986437070471274 -0.1530775686856912 -0.2023807857961934 -0.7806833361349458
Ni 5.6980038386462635 3.4187786757045995 12.632170333695575 0.713751864419719 0.9924622753165876 0.5439718953776825
Ni 5.7327544138771716 9.236801041305519 10.162234122936605 1.5394683295349034 1.0574335379816497 -0.6204215909959896
Ni 4.2313005590651525 0.8923391564693707 2.9984966402681064 -0.6398457611588723 1.5939461488678097 0.28463834634552915
Ni 0.21962199971050753 8.87488252426939 3.0415104733592306 -0.5469556605963548 2.100431103043628 -2.460244134949783
Ni 6.5634149343090895 5.99776389998694 13.21961226873587 -1.430344797832659 0.3801921097831388 -0.7050893036487147
P 8.786297637409847 0.3631044349408459 12.825293202293809 0.11437218169569334 0.31679127692898995 -0.6945536942247136
Ni 7.369584659697257 2.7437687443299517 3.0805739730160253 -1.0946926794434244 0.9757310786048357 0.09302071260311078
P 3.9733338804354985 5.191203412377295 5.600107905923333 0.5601413060486935 -0.5686907382806012 0.16614417206166224
Ni 6.8237716237352215 1.433788378041793 13.292112292060187 1.0776876602449956 1.382022713688504 0.17601566553910333
P 5.569879267469335 2.517317493237115 1.5847907141621882 0.9326329618637808 -0.42382193065794754 0.8255938234943909
P 8.326379590224628 5.584437432092743 4.646464518149646 1.6330690830112002 0.3190229944729861 0.6096905777317305
P 0.7452689787962596 4.988761319171503 -0.29389862801851757 0.11282617736481214 0.03114197282044314 0.48157019321200933
Ni 3.081941640791196 6.30166785837398 7.761739085182205 1.3016813963252745 1.1046443913394977 -2.059950112210446
Ni 2.9752272043538115 1.588475692785654 9.969483841572801 1.494579439442013 0.19753477055780172 -0.2974851204012102
Ni 2.264085398732801 6.865292381640561 12.491025201799282 -1.6376662154635795 -0.35309036847034025 -1.146292148787271
Ni 7.62238055451248 3.9284961873943627 0.9668902270817672 0.08384907340617173 -0.32642880001875396 -0.812065449990653
Ni 1.295485814119409 5.142530797069569 8.436924405181841 -1.2314463141581116 -1.0776269822103892 0.060562077853773114
Ni 5.0034103587301395 8.010998127518382 4.300652674633198 0.004469862845895528 1.0282923976413194 0.1423648102538774
Ni 5.362838902541043 9.059567655131772 0.7730367240043047 -2.354286145459713 0.06999519824221494 0.0344790076134761
Ni 2.6938329674225665 2.3093865539435963 4.92529517315813 2.252037486500431 -0.2912774489286015 0.2248224026291612
Ni 0.6486752838951364 1.7199535490724698 10.401149780145214 -0.851532911957656 -0.7835267191210119 -0.39243493170623384
Ni 3.8931458375909545 8.618915094214735 8.815614800263516 -1.4620197603384368 -0.7723966706461214 0.23148335958910457
Ni 6.934920757011697 5.267801895280362 3.0528289465417875 -0.9538047108453895 -0.4392184677186759 -0.72429081627783
Ni 7.625333989907366 7.521654776306573 3.560787119485551 -0.9082149380307326 -0.43457659807129023 0.310871054789813
Ni 2.052501287043146 0.19426698403274661 4.212496717467926 0.568522331023537 -0.6105953489341871 0.5252254680081149
Ni 3.712077529150617 2.301653096955755 0.4940552166033436 0.9719078482040037 -0.004151303164212206 0.21488611735205573
Ni -0.2381713914890981 2.7403972842330204 12.250393825813582 0.19830764416808427 0.29653201245932154 1.7126277565721342
Ni 4.040590419997202 7.158600322580102 0.4674742980493668 0.940117186055968 0.23101850413754407 0.12100588496212707
Ni 7.808465159377363 6.53792451497784 6.948788272127378 0.2035768629868236 -0.9924903003410457 -0.2519159164118436
Ni 2.882989145098131 6.125524971422961 10.196748423335922 -1.0537758866244045 -0.13459185117667785 0.5278382230406135
Ni 6.146089969264892 1.8613276858055356 4.848684876513484 -0.14437592714663522 -1.8870537090266146 0.34707295863166676
Ni 1.9807100882136015 8.780090879333823 11.00565621052249 -0.013115197225719346 -0.5210445971575478 0.025261602780266172
Ni 2.0944128071699635 5.9382499049066 1.7359366326802423 -0.11408293259004869 -1.5403453328232184 -0.9769922047054463
Ni 8.451659775928942 3.4896338627013024 9.380219864081198 0.15928421171703536 1.278062985575386 0.13415373519799478
Ni 8.317037646883263 1.0890997487247536 4.55914642788717 0.1768564162728438 -0.3063950212963304 0.4951142504450312
Ni 3.1660282183569897 7.874085950104975 2.5980862269177614 -1.0660117665689641 1.3836813323378494 -0.4390981400907277
Ni 1.5237909138908823 4.149703954724586 10.992448447436557 -0.449636063507574 0.20215658560052926 0.5380221055521509
P 5.091949808122069 2.3474722392973453 9.853915460196225 -0.6743489371420645 -2.7911975623117673 -0.6991909358864088
Ni 5.49279005991604 5.111242556870819 7.347562936643632 0.2975190589629392 -0.330999707218888 -0.51093579085832
P 4.7874279001754845 5.754818848150354 11.562107975151582 0.35543932831849107 -0.34179114140743716 0.38788562177265457
Ni 0.30583050701385833 6.147471268280347 10.447009816207657 0.13041329431895604 0.451577503504661 -1.7375787700905172
P 4.580351185273102 0.5150109766667523 5.804948188669773 -0.3498682619886168 0.21665529343733655 -0.03295742876262711
P 1.5447103239802003 2.264821485708142 3.22226344577433 -1.3783092693926586 1.2008540431935513 -0.6808615414496015
P 1.4944928347736102 7.335015834336803 8.791833738463891 -0.07930799100270858 0.33202094939455074 0.9617275652368921
Ni 8.828245507510754 6.828169970600221 12.445644076645486 -0.7203732263909787 0.7316295160310884 0.840703682552636
Ni 8.346462950909855 6.158957860093074 1.3584167067642945 1.8811813094062375 -0.6348956162424485 0.9567064578732168
Ni 8.72423005664962 1.7989329552784912 1.5121561959337348 0.504323684858441 -1.1098771004933465 -0.2940717238442871
Ni 2.201917855543825 4.582995645888214 4.3432003193066056 0.7392482089186106 0.2960229340333869 -1.1847347690341854
Ni 6.198688381774438 6.16377423166012 5.214686404389375 -1.5929459897380696 2.399755590646422 -0.2162475164759566
Ni 6.683560686173065 8.300271221333832 12.34275183998376 -0.5794060678155764 0.8239670865242456 -1.113560719992521
Ni 3.4890340881288027 4.977810889476617 13.170493457496178 -0.45062850932783033 -1.6317691332528543 0.18644688817475633
Ni 1.080693817216231 8.009789490879859 0.906719206219734 -0.12831373147744998 0.2084038520618217 -0.025103479935847085
Ni 4.660730065481623 1.301883409559409 11.99672734911888 -0.0680648139887215 -1.0156559398242315 -0.9223670611613987
Ni 2.738743360411884 8.591180063983373 6.538508840811351 0.11725593100139162 1.0938254463471226 0.6937962472333986
Ni 1.335652535489863 0.3328421727608124 8.363531989993593 -0.46532467788742443 -0.3763593663006099 0.5615474423676007
Ni 4.383834137844128 7.877675510046453 11.192381483680725 -1.2677425774859843 -0.5011344884971821 1.6295297023993742
Ni 4.980800674845594 6.433500126908183 9.339626939264528 0.28189420794148873 0.005133721682139545 -0.720845538041707
Ni 6.4567368478457965 0.42366076552824256 2.728643520110725 1.6600934341188442 0.3511401867225049 0.9486866728925339
Ni 8.541289724543601 8.595024073743485 10.73960711515372 0.31636730201769386 0.181401612441365 0.559368689548727
Ni 2.134915765800758 3.6858146728699355 6.6132044025707595 -0.1836112184981741 0.5072519142488296 1.6110177596381157
Ni 0.944090614582597 6.924006677290902 3.464837727875189 0.0010680362531981606 -2.0435480167033386 1.2638280729229265
Ni 0.17270872314878108 4.417748663670945 2.841684669538632 0.5020099491236 0.014753761270406849 -0.8127244237308905
Ni 3.735768624764366 4.204174390899813 8.63988902926519 -0.4981386390936518 -1.6859247933596513 0.6176059759240654
Ni 7.096741754170899 7.905228790407361 8.647856034836565 -0.00391347612179326 0.21573920938097038 -0.055958774753806846
Ni 0.10969604306219126 3.268389745396988 4.852807872324744 0.6425629029797191 0.10346864740931212 -0.2852754657088958
Ni 5.346808563966952 7.463903754969642 7.1308980073254205 -0.9370470317710765 0.1704613113797774 -0.7244831347942943
Ni 0.3169063441193581 8.08427058779213 5.932300322897271 0.6500841510574288 0.5583914132371223 -0.49738710563960786
Ni 6.490760423594886 2.952135883312562 8.048736670619563 0.20956084848440037 -0.3565487593325859 -0.681332053328117
Ni 6.809267984072949 4.1541659140442455 5.330028507177236 0.3234663749563203 -3.256448963759095 0.48333911218697406
P 5.50768446179979 7.287797217992713 2.053485462591657 1.0606610437800121 -0.2329910544828826 0.9822462540155342
Ni 7.747806140113159 8.30303381936474 0.9882912743277895 0.04313411218531281 0.62113815744704 2.000246782812542
P 1.6519972725095164 3.0698552744059686 9.087170916707057 0.2796167247612217 0.19962944830330134 -1.6927700984162588
Ni 8.021230645224973 0.9124661371235067 9.001195957987239 -0.506822797131211 1.0671199120314783 -1.0248460909639316
P 2.931752635341085 0.08578866510260078 13.190643156884121 1.0051763804491463 -1.074987230594697 -1.3185408910847745
P 7.198239969326238 5.6513668218876285 9.013592207901592 1.359499335775007 -0.9998662810901424 -1.9299476801766633
P 7.693126691586911 1.4121601434577025 6.913356134882265 0.5991058602373489 -0.03787852021332831 -1.0054095795058748
Ni 3.880759583919477 3.6118697380755047 11.23874678438303 -0.8083247520012982 0.2485295164381139 -0.4311865985531348
