# total energy = -381165.5010527411 ev
CRYSTAL
PRIMVEC
9.27380596844235 0.00000000000000 0.00000000000000
0.00000000000000 9.27380596844235 0.00000000000000
0.00000000000000 0.00000000000000 13.57315244549349
PRIMCOORD
 96 1
Ni 8.154244058934212 5.486810050180082 4.139078470621518 -1.5354962322610328 0.8959368919943279 1.2649079362506666
Ni 2.3084542637166927 6.215425143010082 13.02570649702427 -0.7351311014264437 -0.3672157521281289 0.04021076789093075
Ni 0.850510922397972 8.526244227181568 13.162686171571535 1.2317767009143368 0.05446856336152556 -0.1953896991903409
Ni 0.9479127763377203 6.032026361386677 10.229080028373422 0.24001505120919958 1.7358880126516556 1.1051038474744193
Ni 0.9601634736741138 0.2690284666011417 7.502342814277098 0.25495881700322537 -1.0349687812202304 0.3281038737283317
Ni 1.8101263141549162 1.1669878885085185 9.705550511808127 1.712255203724064 -0.5289093446176052 -0.6409626483721348
Ni 8.18558952221734 1.1971926736899217 6.379489894499564 1.2523504113006303 -2.382425584008407 0.3848779452945823
Ni 3.467225560370522 7.292763151767718 7.339872229988318 0.8763157753292907 -1.4949031413300191 -1.6888471092127688
Ni 5.028906619686693 3.6369269309675434 9.223974764871983 0.00423974911296044 0.26483905223141485 -0.7957353453720618
Ni 2.23758384051857 2.9686286704432985 3.507723342503979 -0.6876263709772609 0.7309923966677218 2.534870147095789
Ni 3.3044795440523003 7.667675295006463 3.4154526852608442 0.6727900772953768 0.7345317772795478 -1.3082181690025276
Ni 1.2191437717938154 5.164498932900478 3.6592406348745046 0.9931647007002509 -0.41658556081050835 -0.8722418623702334
Ni 5.715325896558638 8.111111588599947 8.395496550068108 -1.506962129377082 1.1825580730978407 1.7436157203132168
Ni 2.5748165111776276 3.4479731397268023 9.476978095214768 -0.2947047294425957 -0.32024632535712594 1.2259942899046046
Ni 6.157361845490658 4.790393610758073 11.130568133351577 -1.0711969103143295 0.43036667375500076 -0.16889859487834782
Ni 5.739465612808928 4.282662022211359 4.623653366322681 -0.4496684594074062 1.0394358158526484 -0.9218677529274768
Ni 1.3922393552788914 6.945551866170009 1.5155234735609113 -0.013355338260983451 0.11337922165480473 1.6272769018094555
Ni 6.944745045073668 7.186049469519512 6.893450698338371 -0.40890464722648284 -0.7233580200509154 -1.2314262595534535
Ni 0.6020128068667076 7.481188336083269 4.038772988115514 0.48076440948126226 0.5012489025878594 -0.3623363125486405
Ni 6.998829879945619 6.59499273671277 12.547293117833556 2.0468886510407973 0.011923233800147207 0.9141968666457804
Ni 6.762524036774806 9.313312117370604 10.385320469989539 -2.285170007388342 0.13396758732911765 1.1598138374227898
Ni 4.195330593886744 2.4423772919035653 5.255104014638982 -1.4822530566661762 0.9917873607367501 -1.1943128996409238
Ni 3.5698587681084986 3.5020579745987535 12.994922098986303 -1.0671340530988653 2.251680617381645 2.2060342802974398
Ni 0.933621841746212 0.9625746631574312 4.83976549757071 0.2756806229316091 -0.9743030879090576 0.581398929875889
P 9.268760754763463 6.499398347504939 12.356915797417088 0.4550880877610808 0.05250835431136118 -0.46498503515981854
Ni 8.112530480872822 2.934751458202689 0.8300603260571581 -0.1770723889383918 0.8040636627320991 1.00929503060321
P 3.8109962640516506 4.948669652726453 11.546530777543799 1.3402003783360787 0.15844988874119809 -0.3264323995631797
Ni 6.190061284406724 7.971169860510485 1.6650997583973668 -0.1255413109386354 -0.8120255978916532 -0.2788551640048488
P -0.41379257365723787 4.3178839362792045 2.5886168614473375 0.470108472429313 -2.3449890364285038 -0.7923353185515774
P 1.2017368384854046 1.2779582475753506 0.4188310322968008 -0.017162884932531732 -0.5828660013397188 0.19934765539682442
P 3.7114419598077566 6.439563753095848 1.6669591564412327 0.9041505381533719 -0.29712902261337215 -0.885441648889959
Ni 7.430534809322194 6.7889265616171315 10.288381378954472 0.16061244361015564 0.6291633417443616 -0.5163608185286332
Ni 5.176777451653987 8.429750278820345 12.827849852306667 1.6066545975734137 2.2589336993996323 0.5220460418388687
Ni 5.039543674830405 2.5719045361862367 11.524691892488939 1.520761754264336 1.0386570287050951 -1.026013628909472
Ni 1.542345174421106 3.393470983598124 5.618537968556565 0.43722174900362126 -0.18160678647363562 1.4683153635391615
Ni 1.79263591659516 9.493965852505312 2.352878575185675 -0.586889263566499 -1.5642123692488028 0.7750863016631425
Ni 7.103735170081337 2.7181802735722584 10.142863311494555 -0.2835708243129632 -0.2528340573507387 0.1281728350242115
Ni 7.56430018281208 3.933048820936038 7.957368582860205 -1.4066657090481645 -0.512373294635795 -0.8112581235980092
Ni 2.320927532390008 4.811472971125691 1.39445115793955 0.08871925701427948 -0.9370909976351346 0.5976215623823384
Ni 7.217394932802637 1.063130538417473 8.451132892634517 -1.003963848198284 1.7282178977009075 -1.0774968843904282
Ni 0.384818422492897 2.4105310431123654 7.940389171994797 -0.2585537334433354 0.19988013086152673 0.4129921870322951
Ni 5.721780465329364 5.7780539183477115 8.767454986189788 0.8379158353948537 0.646561482616151 0.7948370019275085
Ni 1.0874464569761586 3.427376017255849 13.669929030557592 0.13894010084304456 -2.7364947714522483 -0.46792509162474893
Ni 5.082731787998901 5.117694035507005 6.744892677368332 0.15277932071898206 -0.40104349931085126 -0.6416876994636174
Ni 8.121878477023529 8.346925920068392 8.668425579348801 2.090666567457696 -0.8618486920613674 -0.353347735896785
Ni 8.423091686324106 4.782028638012104 9.939374684572263 -1.495936724800856 -1.14052362173461 1.1060075902356115
Ni 2.867553462063773 0.09569732845115707 6.0169916675776225 0.6659064628016661 -1.0996394819257385 2.152964911276286
Ni 7.9836894982123265 3.724258359292159 12.160960282869022 0.6240170216567318 0.9162555489470221 0.32512885026040783
Ni 6.743178878074036 2.7163904290711804 5.754297210273042 -1.7786122909930593 -0.0047588548412240625 1.1401063316915334
Ni 4.162863000113304 0.6075075367469598 11.136323457172141 -0.7853516881448926 -1.6588389928864529 0.2853469423767796
Ni -0.24799825740376122 7.800568930760073 6.326120070047473 0.5903962482784928 0.33339571825489034 -0.4041491348193685
Ni 1.2904500638600758 6.79972127145783 8.054022968060124 -0.04058589184216236 1.9609618691699904 0.09881597912864917
Ni 4.132713857766131 4.353003838484293 2.726724230768337 1.4846881484702303 -0.4641854220766587 -0.0022078062845961974
Ni 8.75642008478133 2.739092705437185 4.796317717842471 1.3954564705959063 2.21333827015802 1.0042777798942768
Ni 5.711291791076934 0.42356994701209005 6.657888614385105 -0.18802451707452134 0.42986633707981453 0.09293946574321413
Ni 5.897389250160514 3.809892681172748 13.748245392356312 -0.3469503170108734 -1.9092891233860472 -2.3795606037557855
P 0.4943875095176933 3.085181860544581 10.223121608207917 0.25898182211968945 -0.09910214291050029 0.1084445033573487
Ni 9.262890435752155 5.177936677367119 0.6919269900801848 -1.6525716718205024 2.1560978004783125 -0.6521837138989348
P 4.999888881635537 2.5127098343707934 7.167221789177085 0.8339679064906991 0.38942442701468416 1.7720575205936773
Ni 0.863452518259393 5.569541670874984 5.9113658027386204 0.25451915836264555 1.2010229646712478 0.5246456842452448
P 7.979312261919534 5.4088080703947625 6.409364532197867 0.3885494806088986 -0.5738802529013407 0.2796203243056474
P 7.703574196890776 0.7856017015070669 4.161894814797695 1.2461741072865893 1.1642042531810015 0.15016245192142527
P 8.056804182391074 6.749067744696753 2.2725525796906667 -0.9116517316264235 -0.15957654614647354 0.008513951008282112
Ni 5.576673227462181 0.8657190363737114 4.320361897163598 0.30104841227243634 -0.7869606845032253 -0.7226684501830586
Ni 2.2574947013673494 1.9446521397126184 11.995286526089712 -0.7782410452420403 -1.0934572643744265 -0.0702188842172468
Ni 7.232520509907602 8.04369102112411 4.035854521460129 0.4005053674191941 -0.3524149396698705 0.2639260534988422
Ni 6.244646904786748 5.32122624931611 1.5327885176420346 0.8292059663256816 2.401086907863336 1.5002798322609001
Ni -0.02985701746746327 1.7946483324331595 2.8350923599543267 1.170033715378585 -0.6505459211851957 -2.184565568900702
Ni 2.818170446684291 2.3477381046833563 7.333791395587505 -0.335418405111874 -0.9459990987580418 0.5914761116062329
Ni 3.2821389461087938 8.150766381794813 9.28912603209179 0.675801867538507 2.851472962163057 0.9401765785389936
Ni 3.356088272800999 5.132188993824024 4.878883337415252 0.26646038988492177 0.15443922491990822 0.5211865220520507
Ni 8.713825495177957 1.5576191324173514 12.648780083186386 -0.10923126092470221 -0.9810979993437039 -0.2860879343078621
Ni 3.2431425931189874 7.833880440852674 11.761190630818415 -1.7222074298407695 0.29262316432321867 -1.1443872184550743
Ni 4.360376514019821 0.41159282694399596 2.214446622664999 0.4695173758125334 0.345045900899309 0.14423734468624191
Ni 2.7424312754910085 2.126576386228918 1.7325861698937097 1.77695392945403 0.7846690602555711 -3.888675517809813
Ni 2.8956994623786514 4.693491614945829 7.633744294692763 0.10292665886291305 1.287516674789118 -1.3060890384746668
Ni 7.167603869972133 0.9272590836519656 1.808893825376713 -0.48285060258632967 -1.2165190034243176 -0.004474490831585842
Ni 3.388694973660014 5.996980649627228 9.831088164876478 -0.9969128548887735 -1.723660360237212 -1.5044254789981575
Ni 1.7611420724207523 4.370123283815847 11.711987527269613 -1.4441081701653387 -0.45105634089386837 -1.367240927393639
Ni 8.338236364122743 8.535434568635289 11.807529055784926 -0.13736478593612472 -0.705789672149849 -0.4127073088020247
Ni 4.988454279201191 7.6851007759262835 5.488684286313076 -0.19845753948238723 -0.13468415378016804 -0.24530818128733878
Ni 7.251708013911386 2.9249026765439075 3.1606038675827497 -2.7373018407345766 1.1108554052462158 -0.30563603164311876
Ni 0.49346012894718666 4.717223283745096 8.148954280160043 0.6744438108487159 -0.6525552383057407 -0.9787618950113597
Ni 5.675281603524159 6.378588480585031 3.617638342481574 -0.9706626629429927 -0.20052367798279658 -0.40987061068417796
Ni 5.165277932579703 7.149965091521096 10.671402537901727 1.108850459001045 0.7353085075445723 0.13041175165705926
Ni 4.532099574260547 1.3408161026442946 9.077615563234614 0.25453175676813583 -0.43119328342135416 -1.2466862710363174
Ni 4.362982453422945 1.5452015065782667 -0.04895827507818981 1.2424820031469825 -2.1257215021793003 0.822372488343616
Ni 8.988719643887555 8.47959698448508 1.5785714416468093 -1.2475882140252965 1.3707671953793423 0.731464965428766
P 2.6176800411464476 7.184788231943623 5.263057230411648 -1.25800015338724 -0.8761411974246394 2.2121686753299517
Ni 3.0261633610375345 8.327515844727685 0.5424675551956133 1.5394454467167682 0.31357585531548576 0.3690139816791322
P 3.05807452646867 0.7479778717616099 4.1561673123942455 0.6898575743006249 1.4946447454623097 -2.897520905561055
Ni 8.858357757091428 1.0875113736160942 10.192188829278665 0.08299392449472803 -0.3735447796699502 0.029782116358439036
P 1.324401466546326 8.281109720979531 9.976714735863144 -1.2140155202761738 0.1242984396704698 -0.16923438095121177
P 5.581532701651636 2.354174125842673 1.7380558604985583 -1.176811657532367 0.49232974572135846 0.24526730074707437
P 6.41778885730035 1.0172622954002115 12.594174987814382 0.14627185861776745 -0.3072362862507031 -0.9336495760537534
Ni 4.901085755653754 6.260282541205492 12.904443141005386 -2.3131258691713192 -2.266315593686 1.9637713135943275
