# total energy = -340868.58091526415 ev
CRYSTAL
PRIMVEC
9.31650808666307 0.00000000000000 0.00000000000000

0.00000000000000 9.31650808666307 0.00000000000000

0.00000000000000 0.00000000000000 13.63565131189738

PRIMCOORD
 96 1
Ni 6.48230528335006 4.488013540397239 5.021246681551251 -0.1829926110775687 -0.8171009555320315 -0.08181558791591072
Ni 5.3373530094540165 4.5698870143628065 2.4263140657440245 0.6123961495883518 0.4285167650304556 0.4697423473391458
Ni 7.83334803489657 3.4661323396788424 3.000824928080539 -0.8478762890416752 1.3411216045987677 1.7464609030714955
Ni 7.164292315806532 2.2965844841636494 10.171936927881472 1.8506178347970836 1.0563894129878517 1.5577031073753755
Ni 1.1992302506055776 3.5868370197764636 11.712152309857915 1.012881205292572 1.583017417770448 0.33221583901417623
Ni 4.406782905496718 2.5242426782718206 4.316420229269268 1.7671318011572856 0.166983380133506 0.283694237264705
Ni 6.389382430672252 5.146942215085757 10.691810196292353 -1.1114727271152407 -1.2974632444788687 -0.31522444666250227
Ni 0.7442744112561525 4.262209331418694 2.4452135342563763 -0.2636530023431137 1.2244174323357881 -0.4104331680558674
Ni 1.8087255328428775 1.39935816301504 6.41189204610787 -1.0677223215021676 -1.6125439664746553 0.41232087199688344
Ni 2.1815256080286063 3.4505365049703354 0.5050879699148233 -0.12753391588863197 0.3258662426470646 0.0470640433673383
Ni 4.995875034799949 2.2741782819689305 6.714427016531615 1.0589664296864085 0.5132338428638774 -1.4189360417750854
Ni 7.674427038207375 6.414341356110777 9.225949866172895 -0.8335012512669259 -1.4442482952876288 -1.4054459777084505
Ni 4.132616702508698 5.209139223756004 9.737996336054136 -1.2046150528978803 -0.2102645594196443 0.24639935746898858
Ni 1.6377582910652115 0.20042604067151273 4.398002096528518 0.2866466350248096 -0.6151032641068698 -0.6947712095521583
Ni 9.267941231882682 6.766197920887471 10.917057278081192 1.1983757568563878 0.9694609293254078 -0.12955120342897689
Ni 4.746164665808244 4.581858727385765 6.870936900901479 -1.0351387311391915 0.3098629252402728 -0.5667536691588885
Ni 2.2959416450986034 4.633742361490708 6.257291114265946 0.6849642507640654 -0.054906936450524794 -0.7199340819710311
Ni -0.002612348896215877 6.865306935002822 7.672617772317057 1.3115423482797541 1.7544956004505137 0.8005229965686922
Ni 7.080220145908343 4.09292837762325 0.7153811244093825 -0.720665817930733 0.18934323588594487 -0.44467897661261485
Ni 3.672558211624118 1.7707793949887858 2.2034669164646905 -0.22078911310005203 1.2499508007202023 0.3734931004964084
Ni 5.518950387075415 1.461843983439148 11.707147481658746 -0.8444577502784296 2.6021626016948605 1.0294931028176397
Ni 6.870915472932644 1.5069731491070144 3.996472705040146 -0.8641128055051958 0.1707047948491512 -0.27047233925779224
Ni 5.908427011919583 9.364301876082257 5.799201201561718 -0.32467710743496986 -0.23767123356737135 0.0014313331298878575
Ni 1.9749040894113605 0.7331272092079274 0.8227669243999056 -1.358971488295995 0.026379004214161016 0.4969955266281441
P 5.808274548887055 8.552275022322714 1.7629945207459972 0.008769775772830057 0.173691645391617 1.0014868474127012
P 8.612273335060339 9.627306902259768 0.23813833417005856 0.7845297064642295 -1.0878851696032878 0.010270271577756505
P 3.737484957193763 -0.5208896994543089 4.5092421359568595 1.8723549693638593 -0.04695271460045462 -0.6351267584166481
P 3.8064830168420323 5.048606471150099 0.847116550202865 -0.06459511027256618 -0.33726111474756754 -0.5781950782266108
P 1.4144043237403918 7.3134309788972 6.001336821485926 0.27950925264907994 -0.2972449793659462 -0.7418491368765676
P 9.583332983607347 2.3124691306260177 10.34881828905756 -1.399508529178093 -0.8744069883423522 -0.1890843257976034
P 7.6330896913724615 8.334818404681577 7.138985884612554 1.5915485951699107 1.138108327424898 -1.6016345186510028
P 7.51530107833802 2.631345256413396 5.825818465457898 -2.4014064959862838 -1.7184207091048276 0.7711088050726334
Ni 5.123436664924728 8.588749151882931 11.651568920406014 -0.3244745045058606 -1.3703172523261176 0.765531825205488
Ni -0.1004356848814752 7.702469727856482 4.420991512135872 1.0824783967654197 -0.8519406889190361 0.0015220930714812497
Ni -0.1164628739191363 2.405624896008552 8.044475016874053 1.3019999560069577 1.5865249167030742 0.012598919710933139
Ni 0.15947719222808318 9.259509791971572 10.034094530970052 2.808778251508008 1.636243109863808 0.2086020841155569
Ni 1.840196697505564 4.35665077493132 8.60453224840604 -0.1932942501138929 -0.40257819078782275 0.6222144212303542
Ni 2.3335710216742664 8.637698085908319 10.589351897483029 0.4955145712072434 0.3450993798450638 0.21179282313871267
Ni 3.3272511521043415 8.366503849032611 6.521537099334243 -0.14461478263031868 -0.4108527720917892 -0.5667557260414176
Ni 7.3966180805174275 4.006853158464411 7.918372351931683 0.7896585430503625 0.6904134468040949 -1.0514395251817439
Ni 6.723295400676793 7.963732567002637 13.495968294755668 0.6510645126928272 0.1783898221982347 -0.15681389579967184
Ni 3.6622075710260584 4.108365831692542 11.956611894834259 -0.6875574654125384 1.0066018000417631 0.039074597403958515
Ni 4.760791583665087 2.893157769542706 0.060784626028783414 0.8209306136907668 1.3745937682142844 0.5879177048310132
Ni 7.638977724547955 6.281217770597123 6.110407977807852 -0.1987017942827094 0.3085604043787654 -0.3117071775378632
Ni 4.54093130691117 0.5032805673261432 7.912632451236395 0.07358985757200874 -0.4866239535858329 2.2453323065661137
Ni 2.130461826644301 2.602911273420347 4.4883796791690695 -0.6083363776966814 0.4631392402003314 -0.7618528336920041
Ni 5.338443040912138 3.187298566088097 8.935565485729338 -1.0038165239871422 -0.6249025095854787 0.7327386899348671
Ni 4.260858437731279 7.605727106821155 0.44707314177065105 0.3944463057093078 -1.3984559195438626 -0.6531000550656172
Ni 9.392437730813256 3.2277881106778055 5.478191595399042 1.065917407082945 -0.036753148359633475 0.7224468210905558
Ni 1.2981436180489583 5.892765961653752 12.854506209620025 -0.29059739214244146 -0.5223944263172229 0.06027180030686394
Ni 3.165898546777798 4.195205004522886 2.931010742314907 -1.6342651602018308 0.36372573669699937 -0.39737530643064467
Ni 7.5518497399637505 8.662424098642116 9.450187970124858 -1.2858601130223015 0.21430864758203091 -2.1699473047668953
Ni 5.8823873715311255 7.735925308763441 7.908145620892537 -2.2120709734098227 -1.292005306688091 -0.10085563526649727
Ni 9.040637065085695 4.52396594549887 10.047580176573733 -0.28244493823863615 -0.43819568288111627 -0.5708877459319202
Ni 7.178276394598329 1.555512156772081 8.056665667839452 -1.9561965865708635 -1.821768257555243 -1.9532868691232361
Ni 4.606295928365702 0.6838838735237668 0.3936914131489045 -0.6590169347706843 -2.0816090852411184 -0.3615397847892741
P 6.856251289043045 7.32498344905165 11.043336956679152 0.250932983673284 -0.34901954083507636 1.5485494659005652
P 7.799230981908188 5.862021484629814 3.821773270081938 -0.18605685182518925 -0.19975440391693985 1.1697382956253533
P 1.0745567380194119 8.322138637036248 2.4575672241150865 0.7160823123251087 -1.5547828484047868 -0.09290552718148515
P 4.2904383512315825 4.777878059683846 4.664988066655219 -0.3171363189732344 1.0203443464388362 0.2639466223241325
P 2.5549405727548136 8.870089066176538 8.453981202673907 -0.7003373907860261 0.10617370504530102 0.610927021241993
P 5.839298521156667 0.5136237547176513 9.862176073706282 -0.8911060462645878 0.23956793636945192 -1.3155977492960504
P 5.81646375958525 5.343259675645889 8.468366822968653 0.9063087221469552 1.8270770713626665 0.6729667120825571
P 6.686606991428226 3.5150533241796613 12.253528079169174 -1.2080528749348354 -0.1617352443606892 -0.49001960953094315
Ni 2.890334867561417 1.7646211830758092 12.474071255973351 0.8352866253021227 -0.22858829742949663 -0.9166209027062409
Ni 0.820141532392225 5.213629780703137 4.593591937799083 -1.541662766083061 1.0884091604275579 -0.48484963529422953
Ni 2.546630247450161 6.490410645474552 1.733923288592816 -1.4655779100033406 -0.3995147213711506 -0.3154350200114116
Ni 8.762967855018584 2.4803246586685335 1.2108339615550672 1.3685642741907527 -1.2584364695937102 -0.49274909264696426
Ni 4.1536067954586775 7.68411620672401 9.697689395024934 1.0778506681854212 -0.07609616893363025 -1.79535685744125
Ni 7.686221737574741 5.7908899446062465 12.446240982710954 1.5021202279037484 -0.24425917119753418 1.386915780114747
Ni 8.92900666396423 6.46562873369162 2.1637189659268325 2.4051407662177353 0.07971062575776595 -1.0967341353534854
Ni 8.645337622623357 0.5183910119579996 5.2778969174929955 -0.286311620282894 0.7324581825799709 1.2346625071025639
Ni 2.6502950340699685 6.540989968433026 4.086441292971199 0.233807636846907 0.5589717112206244 1.7399842942082164
Ni 5.419114685321316 5.32698373583958 13.068026602551278 -0.3052369964324872 0.7615445584229659 0.40549433599335327
Ni 5.11647723330749 6.800175226253018 5.691193990474983 -0.23826592972857677 -0.23728711075507516 -0.6816822375786841
Ni 3.635534408080744 6.646629854788917 11.78113453144226 -0.9070396867757088 -0.016433205855358797 0.2930954759739468
Ni 7.062630578447374 8.265168189460072 3.974342271487824 -1.2812658087834 -0.24254270272705972 -1.288096458551988
Ni 8.971937133699475 0.4962456719925747 2.718553362968026 -0.5908253653961115 0.8867400559864083 -0.16000283505061477
Ni 2.6057714414343924 6.503956848381463 7.820727892903653 0.0929248104551948 0.6057732449551955 0.35319809769279814
Ni 0.9123880065755057 8.75800215615381 12.273777509718123 -2.0190320338398453 -0.7650476864802179 1.7013935784192118
Ni 6.79805106238591 1.3101712301210506 0.2861714554404587 -0.51433478923754 0.9303786186119654 0.12745318324936758
Ni 0.2269752940579121 0.06150199715934199 7.653009317531516 0.1357889568085726 -0.6046638139411006 -0.17205462400882626
Ni 1.9406752383247086 1.8476592205650106 9.015361378368743 1.7185659764334402 -1.4301774190168597 0.5354119216228134
Ni 3.2257664284007768 8.747893744768666 2.3756443726561174 0.0012441568197462446 0.04810713991987199 0.5454083707138929
Ni 0.5498221156354729 1.7045203887481037 12.789245933057211 -0.8497308257519107 0.02750411895753973 -0.6104613944594841
Ni 7.745903289033937 0.12183290923931758 11.59045355833652 -0.001863021350667759 0.2873925120518986 1.888186279969161
Ni 6.643294544857229 6.52136940218684 2.0732733727764994 0.7499707375424374 -0.22355819120475692 -1.454006146005341
Ni 4.736503446816177 7.035407741518905 3.096533416706879 -0.7038559454622458 0.33042120900759864 0.8104610816180107
P 2.9133932253293713 8.872390243699238 12.886236373210366 1.4672779234135827 -0.8301212790510994 -0.6812276665397687
P 2.9546187740660157 2.816976682080662 7.229990468254231 1.481748606225932 1.4614453758922055 0.626594809686237
P 2.060243304423263 5.436592454684015 10.58819199221349 -0.949518938985842 0.29943684481094235 1.0624435896017317
P 9.52314834070594 4.890169932886735 7.172325009167149 -0.4416229633951105 -2.1809716809018567 -0.5447668804751522
P 5.975021412455073 2.5810733782251614 2.07038246028543 0.0292979776331689 -1.455597401751861 0.35204984302096787
P 1.4332609363150741 2.3021464395525255 2.4321499264736595 0.610601005361142 -1.157337350857839 0.30720183346834196
P 3.6579312937672745 2.554446797820793 10.547190039673383 0.24710281129391637 -0.3034482799631806 -0.9992055075776921
P -0.2073016237150481 4.470293541821624 0.3974338544884548 2.118541182380777 1.6264824309326182 -0.5752902458749899
