# total energy = -340890.87057204824 ev
CRYSTAL
PRIMVEC
9.11619217246817 0.00000000000000 0.00000000000000
0.00000000000000 9.11619217246817 0.00000000000000
0.00000000000000 0.00000000000000 13.34246872323027
PRIMCOORD
 96 1
Ni 6.537877928913104 2.149689327549038 11.6128048005631 0.5269517066706021 -0.6724990284175193 -0.4300365441090916
Ni 4.551003797454247 0.6344441442584011 6.2785924500913906 -0.15386406914272857 -0.9986938580485961 -0.801939931520877
Ni 2.820413182662988 1.6421544324132713 4.763314448508148 -0.5174221699136121 -0.549669459983092 0.5599728987916291
Ni 3.232383032971578 4.077299092278764 4.731759660168476 0.9370107792165023 0.5357075984863613 -0.0991327390381196
Ni 5.1967219368416915 4.499460845679673 2.8783976359805252 -0.614796017279096 0.09322202998063944 0.22451052781569722
Ni 7.500374637669962 6.041865900958634 2.633456485884899 -1.047918399402363 0.7836347054537858 -0.4111235092546726
Ni 5.455165991105783 4.190905081846281 11.898933819497195 -0.718502234620511 1.8511950474567926 -0.22749557858595015
Ni 5.660836407622614 7.960505332376337 12.616345342318663 -0.5234236389126857 0.02138077966862124 -0.1585149376511786
Ni 1.8129007158829864 6.28308946779751 0.2512623178990378 1.1824616567292925 1.3757844460882758 0.15803028470527622
Ni 2.6113515425769775 1.536424833070946 0.28664681866186204 0.8773727558388954 0.1422568239211034 0.6604469823489917
Ni 0.8178045031385296 0.05229139116981484 4.575479862402878 -0.5550458938036569 -0.4903808495251039 0.9904329035913845
Ni 8.586623658124706 2.4480076073281603 1.4132076418663702 0.24136359481729397 0.6866151561039271 0.5773859520617539
Ni 6.668376222979786 0.7986714385498357 4.919434712906918 0.5634508300379005 0.012340523843223908 -0.7029334336479766
Ni 0.6645768065851921 7.453189225857937 2.244203275393617 0.5659442858837156 -0.31764436895790454 0.767915237836
Ni 7.740139613726394 3.9785707286921643 3.93468082042922 -1.3889163554845434 -0.6350928198549192 -0.49010317038368495
Ni 7.8313835833605845 4.125387007137426 12.61107527149785 -0.5803422064766005 -1.309099028945584 0.0854164178932916
Ni 8.052761199365847 -0.1358859637693311 6.984461961727539 0.21088445239183035 -0.5796071280827889 -0.6574899566031968
Ni 6.944250437094069 0.6188363112670238 0.3627132395854952 -0.054509701012106115 0.7984925964022249 -0.27340339686165815
Ni 1.925996198676648 6.441738563965339 9.302289430103437 0.0863993506318512 0.49004094968718187 0.471712069471007
Ni 0.024242690423439028 5.0579187915074755 1.1218103753499395 -0.42334139147710315 -0.7935051704899625 0.8347718904492332
Ni 6.4533708254553215 1.9340366803648643 7.072548993936979 -0.12744212750577405 0.4860691095236274 0.9272932948184224
Ni 3.355132563506533 4.083160803985706 0.46738900708750564 -0.13384314593611144 0.3013906261032035 -0.03280933322053704
Ni 6.132517318087458 5.735315699451101 5.100839648519335 -0.37619635836018434 0.46127544751871524 -1.0272565001776373
Ni 5.35259059433049 3.011525039932561 9.293296306310438 0.9432834995990916 -1.007615586018258 -0.6615083337339703
P 9.23470289134123 5.687255133169609 12.29195019420718 -0.42050289358704357 -0.3480558913702264 0.5176782517884762
P 3.9096067332597886 5.88951609373248 12.71349204652555 0.653465665935152 0.7751896600102263 -0.3723996103219135
P 2.444789591414396 8.575456322446628 1.35954426374182 -0.4353376446070309 -0.2618835691475167 -0.2615189867192464
P 6.494949778947332 7.989376313676315 5.778903861745928 -1.091534593430417 -1.0870210218307794 0.7910387112273409
P 4.694073320827109 1.1992533413245032 12.577504893020688 0.10535892245348953 -0.3944766447266109 1.397687159698638
P 4.001206234397199 6.345663012364308 8.353266453699394 0.2961401763375416 -0.9402280006022193 -0.7765528589063401
P 4.635975826723932 1.1302893458921275 3.7018277414430885 1.0495963013254181 -0.7639205148543101 -0.2211218138491224
P 0.15082740309697992 5.703655163279702 3.830542908278235 0.40017292378043984 -0.22566958112080487 -1.4452978195980657
Ni 1.374803858183889 1.0458095910115164 2.6213684147754037 0.6288350118706654 1.0208989333907257 -1.0210215750115188
Ni 1.9256862481353791 6.019968806837211 4.950176336885379 -0.8409286540792485 0.3241302337925644 -1.227058469503061
Ni 6.119408233430252 5.84149199222055 9.011877623984395 -0.31467757302009675 -0.4251923286429129 0.6072948238060445
Ni 8.62074556624148 2.6439875113341365 9.986918213470263 -0.6918321815284924 -2.7180255090034673 1.0064562756028343
Ni 2.347629212918922 5.11357314605006 7.337491070136854 0.21624417404184693 -0.26565923413986503 -1.242128476462306
Ni 0.7413214722226612 8.715025227941627 8.734087186229678 0.7713849415521554 0.4387438420751025 0.8362024522481728
Ni 1.4740883095062953 1.0787008131556024 11.509533838308432 -0.7608627018645928 -0.6349249268184871 0.14497885083795678
Ni 4.153273439659255 6.861247505380681 1.584324954366369 -0.16210034100959178 0.11442154687639004 -0.3282008043175122
Ni 5.699963105361642 7.993168649710666 8.104469154222684 -0.0015267210571715641 0.391419603067842 -0.38092667395631813
Ni 5.274391896006774 2.82559117994066 5.094408174788001 -0.5471135263304577 0.31553400748312105 -0.6314202560993384
Ni 1.134017868579747 7.445631902366405 6.648765469909842 -1.1813668810032172 -0.27133108771366177 0.7129681921761591
Ni 4.910819911098114 4.628327341308498 6.8958817435097854 0.014952764655090376 0.15112301606248169 0.826121413863087
Ni 8.56428898676855 7.177260314589312 9.623936046209256 -1.8159922743034145 -0.7037795836983557 -0.11708083887610804
Ni 4.821918802908224 0.3679778406908748 10.636109622158399 -0.270036023051322 -0.7586327840928097 -0.9671335667438117
Ni 8.19824651372213 7.461165894199421 4.454663876273897 -0.0456620208134891 0.7937028883230653 0.6189504057671017
Ni 7.48601663465529 6.494822152253868 7.025103770641832 0.6017011317683509 -0.38064565238078957 0.36718669866240633
Ni 2.176035123556912 5.334622579129272 2.448622950314503 -0.5000235148211905 -0.5030515030142368 0.6138097421064267
Ni 2.0613625394797337 5.1168458591181665 11.490907634016635 1.4009372912048197 0.2447422814815398 -0.6767989413444537
Ni 0.9173624402326437 3.39043046044165 3.898656362960599 0.7272570979950056 -0.3676962913089732 -0.49270229856942893
Ni 3.4201036666719715 2.6188997498761193 2.6008341914163258 0.6880986826279892 0.44730587271250055 -0.43464190409158693
Ni 1.2468307494093105 3.3428530523568427 8.534123506149156 0.05495990117564728 -0.4374356647866402 -0.9567571086054941
Ni 3.5556614475152526 2.6558203290567035 7.485378501187972 -0.03411931028121221 0.08735322990468826 -0.7776738598846608
Ni 3.780931677671159 6.773385643123281 5.984097501400747 1.7107742483031634 0.8468815292285737 0.6107192761065611
Ni 0.6010998473525188 7.620006430407446 11.728390827117783 1.6980177199684432 0.2576314787393821 -0.5201192571298011
P 0.26736789499492386 5.7126346127841146 7.92629408557414 0.23331244237804333 0.2710786053832235 0.9355997578015887
P 8.885853557142855 1.4057168665792872 8.147391834473021 -0.669031638694209 1.4720691741546388 1.1086789664201875
P 1.7211462394749415 3.0596767681379555 10.722475517244558 0.232913921388044 0.7437291275080998 -1.4679114432325235
P 3.770001362995228 6.127357553194566 3.6990928837260086 1.5657398616369227 -0.4640535244844846 0.5868761509403764
P 6.943083564468115 4.142890096526741 10.113551241963473 0.14768030892951986 0.23107481129677623 1.9095310641935246
P 6.506390600397118 7.866699712680481 10.453063771915735 -0.17634759495722532 0.6726661501230028 -0.8662105685744889
P 2.6413802803105195 8.636598624808155 5.760557524560514 0.3153969676846246 0.2416019360803452 -0.653863415594203
P 6.958134398104446 4.097436761268865 1.7185098366356761 0.4384029137959159 -0.6785938284613474 -1.024452712180255
Ni 5.337949989351721 2.7708302122523216 0.5914166277955765 0.42320306612702596 -0.11971596250610995 0.5319062224624
Ni 1.6339133944924695 0.9312372850506313 7.001580347797985 -0.22396673949708526 2.116993892498315 -0.49713899418454377
Ni 6.918870957479563 0.8208310790120985 9.329173993081577 0.666555923460207 -0.38793704383588024 -0.08694056784730188
Ni 2.7712677894870543 1.500497918860901 9.463346112681537 -0.0293231744441495 -0.8185472010602547 -0.6138951027313815
Ni 6.485979445635309 1.853568050135971 2.681156050947736 -0.592135856677419 1.116760200766425 -0.11860704571264734
Ni 4.245985116268278 6.937303898492685 10.5236860027439 -0.18783914053659262 -0.06603364249130562 0.41483361111640815
Ni 8.226306153899372 7.417189382108769 0.3538586819168281 0.3853253172446461 -1.4923274101830428 -1.246179506603228
Ni 7.86257919372008 4.07682505027447 8.084722569886125 -0.37652571667514506 0.03070077151796648 -0.5179587591433725
Ni 3.16879759104946 8.474430678377681 12.51487573968031 -0.005785496333525521 -0.5696196778527738 0.06552944916137747
Ni -0.026263750276361388 4.818017072565189 10.16540049780236 0.3392457492777641 1.795454816471695 0.33926606099273826
Ni 8.582375512470842 2.493898519820768 6.2473439658160315 1.39127225731123 -1.0324259601937187 -1.2350376310537956
Ni 3.8691217228546093 2.721201660879704 11.161122081344788 -0.48294341941045216 -0.9058587790937302 1.9734255488546402
Ni 1.1007711149324406 3.308001848848849 12.783219067260992 -0.6524156274040829 0.10348458824891209 0.7832207578448188
Ni 3.232756796859579 8.573696897315306 8.142508290209554 0.27988463371062766 -1.00562375239921 0.04701287841442871
Ni 5.675066783943822 7.796249777888493 3.7079392368215243 -0.36690876241067133 0.3224448756703414 -0.8494289782407759
Ni 3.124903124690321 8.282471015215814 3.5322182471644403 -0.02781008023373275 0.2740996515977344 0.2543029285867814
Ni 3.4758036021765073 4.191287961926672 9.485080938578413 -1.3392578119171514 2.124297368138264 -0.8600813157482994
Ni 6.9961033394099115 6.112370532904966 11.549814646004068 0.9049681489586608 -0.23452754573206705 -0.7700114582433963
Ni 0.4703818530492305 0.11770007156998595 0.3450843467411954 0.9366307701692643 0.7467141782783526 -0.1444965118848995
Ni 4.618782687875888 0.24006854526302804 1.44851192013616 0.18610518856462144 0.31047099113791693 0.22760999267662738
Ni 6.134048838409022 5.7591089615897 0.4445110106648897 -0.447316671345778 -0.28856210687996753 0.5135498314423994
Ni 8.157797968086511 9.20607804723579 11.33247914970465 -0.7076807185249747 0.6482722946596706 0.1788294808388146
Ni -0.04408864125705192 4.781452024887825 5.7882297265611715 0.14519739460666609 0.8245921217027541 1.6238660763556936
Ni 8.225285140351664 9.2608663635013 2.4667021830628824 -0.6268318653977076 -0.9575058138460606 0.4538513871405022
P 8.424774778427892 1.7795719165041675 3.8669675665927894 0.29302014265132115 -0.3593237509745618 0.25082911110556805
P 1.5842027973883392 3.289578024028118 1.6756810531669593 0.07692920635788686 -0.2880602275428845 -0.5307813648293375
P 4.960667251088099 0.9834001379077433 8.36528797660444 -1.1503796885930833 0.5794528618931117 0.6128941722706929
P 8.52304733239498 1.8767596435768121 12.648807191801167 -0.17842427498059593 -0.6600222361067472 -1.0042587537308836
P 6.584744273991469 7.869963309556198 1.4545158444443904 -2.351387740865996 -0.24582805834655083 1.4645924061616196
P 1.703187340466114 3.226730993689612 6.040469300284446 0.6209252701052854 -0.40080798626127745 1.048508210467562
P 6.872998277371735 3.9253048165558297 6.081510398425431 -0.06655789042589182 0.4536611255065671 0.16800410808853644
P 2.3222770818815874 8.429077621236098 10.329245823632641 0.2523208651597461 0.4887068042567906 0.5098582415234252
