# total energy = -340894.33477917715 ev
CRYSTAL
PRIMVEC
9.03015145173524 0.00000000000000 0.00000000000000
0.00000000000000 9.03015145173524 0.00000000000000
0.00000000000000 0.00000000000000 13.21653943131827
PRIMCOORD
 96 1
Ni 6.265769178396424 1.8759868527686978 11.373333853526582 1.5183235771364882 0.258722912031348 0.5898534884011455
Ni 4.52633627436137 0.33622865541254365 5.7747158690212474 0.6243209260503957 -0.7977680595313744 0.832799597214211
Ni 2.7590363232563497 1.64114873672802 4.6662313790949765 -0.19038427555594953 -0.9115576292507204 1.0852042803370148
Ni 3.634879732965702 4.173537291219278 5.069044758511118 -0.886077482701745 0.7584263245089584 0.014681513271574714
Ni 5.2086454803106745 4.478241688264598 2.7638692602595403 0.13351713005526036 -0.13860560032176128 -0.7228180883870454
Ni 7.134785793684229 6.1510591657814615 2.6778164329577776 0.4483955062322536 -0.5151151190469903 -0.4663634035645839
Ni 5.3680186215089325 4.433434077259682 11.508328295121864 -0.3031212356410651 0.37741377570705326 0.41869540806465955
Ni 5.383965868795245 7.932816389199837 12.35258694444994 1.240125329989348 -0.035761988090957764 0.03392853442664479
Ni 1.9501605159678876 6.4675388801888145 0.3885899880227825 -1.0471272709596355 0.04099598279638746 -0.023709942022430135
Ni 2.711140400489305 1.7529510406078797 0.4212547545056689 0.046970712322583624 -0.2530037501593836 -0.06987461350395063
Ni 0.748894832968036 8.992947127685554 4.597862297184372 -0.48847411942069424 0.11176919685520752 0.30008270592505737
Ni 8.568060446306411 2.3798241474118433 1.2977122145069062 0.11311722624266972 0.3560797901159674 1.013136001615855
Ni 6.896127923621971 0.6096661534041515 4.645388886761151 -0.5497756465436532 0.0563593526263352 -0.663275195826406
Ni 0.821194739761841 7.295585698795987 2.5898600497511706 -0.46208920166926226 0.3799144306417199 -0.22021241466097558
Ni 7.72674833536425 3.8540144158065517 3.787093770172688 -0.7974680117924524 -1.1316851975073736 -0.45336056354701276
Ni 7.648782008597534 3.8337959069310967 12.489246545954392 -0.1041600170493819 -0.06580301453773828 0.03321428196843958
Ni 7.74210862281273 8.605400122143841 6.8131390266736895 1.0224927602404068 0.823792251509278 0.7432714711453908
Ni 6.93273615719995 0.6276289304720634 0.39489574271136224 0.20538769094331724 -0.08203284613303938 -0.7663797750280801
Ni 1.6677154420034055 6.497771826912809 9.266604961370133 1.8744630168457979 0.30830175140074 0.009171896307255172
Ni -0.004459088737248591 5.051647268917795 1.467511568455322 -0.22120074671617387 -1.3246734863450735 -0.07513611901320608
Ni 6.331635102352461 1.666695034900714 6.7041685782575815 0.10407208532126593 0.6273260314253066 1.6678437674882245
Ni 3.391183038449445 4.443556876924436 0.47847430854288175 0.16148893267783798 -0.9759010285237967 0.6838527628674416
Ni 5.903244722249033 5.5672418206202705 4.864677985190108 0.239074284562485 0.2538211038543564 0.503607632628023
Ni 5.357281771552294 2.8594967570390364 9.391950686246602 -1.027106090642702 0.47787166131449954 -0.9344797852645326
P 0.25836166031069147 5.446156521151322 12.435930726346326 0.05797477674257113 -0.38823297780974425 0.8089731842185744
P 4.306461119109717 6.019751734982895 12.612358211386562 -0.4832856332412193 0.21029052756157332 -1.5077571144745516
P 2.423159843746505 8.41257027018919 1.4182936315304542 -0.4744718916043313 0.610899253327851 -0.7272082470349411
P 6.0965531722253 7.7295386521317875 5.714381815782987 -0.20356837834639135 -0.8240527042595162 0.24049610461067614
P 4.4759209393673265 1.2084329141273409 12.207033546879638 -0.26249189215547697 -2.38401992507872 1.363328222602794
P 4.046988750182822 6.243699488493963 8.35680457051953 -0.8622685532076053 -0.6945318398478426 -1.0250540932096797
P 4.583993790739118 0.9281008955790516 3.695793521920712 0.6974312728828247 -0.30621452985440806 -1.073267933910745
P -0.08754009322931408 5.60111391833882 3.739646645927801 1.4950864609854186 0.6609303497433133 -0.5685799237343497
Ni 1.5678600283612527 1.203755295727392 2.570379304241113 -0.5756455723318795 0.08207166979077479 -0.2416957813457321
Ni 1.599853854598741 6.553009262728422 4.894692402251401 0.8430773249911352 0.11680804483069561 -0.10237644278639788
Ni 5.943961674691831 5.631852553538484 9.332542223521845 0.6418972443712623 0.20395944313722295 -0.074350132776801
Ni 8.54973826921472 2.321290706353023 10.10171787340966 0.5274780114877173 0.5370952228625072 0.4065978534701772
Ni 2.2908861867533554 5.231247949142859 7.120331230416279 -0.45101983122897804 -0.4947370696112705 0.13980810527029472
Ni 0.6754508059980275 0.3571731884566392 9.205689366384853 -0.00788917294008964 -0.6632163175640127 -0.02726500636354014
Ni 1.407114304157603 1.0306743847779312 11.507336784503496 -0.12148770969455207 1.2941241528033067 -0.6960354209765626
Ni 4.035114101155925 6.793789218358225 1.3733442471493236 1.255299209516309 0.5034351116059007 1.3673350297693418
Ni 5.623039125819662 7.766481001309762 7.95987252867846 -0.34755606891567237 1.0265057380545417 0.41759240480846793
Ni 5.490268810502193 2.8105804271693007 4.579913968358622 -0.16695201267493828 -0.1970182359326994 0.20395687203406163
Ni 0.9874380201081332 7.650642219775892 7.144187084256019 -0.5767125801438132 -1.001506902017359 -0.4439503259767064
Ni 5.169562985262453 4.584156333463442 7.144187084256019 -0.16781898866092387 -0.18762959562894782 0.13579667011805643
Ni 8.450343393291481 7.397373564827307 9.018477171585817 -1.0683360438267664 -0.25485288755298047 0.3612723900605004
Ni 4.632919150760206 0.16292018464903124 10.275938389459649 0.4928678776130157 -0.440426629094164 0.0787066099732838
Ni 7.938207389556535 7.358462642654759 4.6858575100417905 0.8210596830694634 -0.6162399488144742 -0.07071279313452983
Ni 7.154038076365101 6.128691480884408 7.126847387631343 0.8354164660117677 -0.45431804236427564 -0.6739565867996522
Ni 2.1828043052302113 5.279387685996388 2.6561413606693653 0.934684702186487 0.30276899450796885 0.15303000327720742
Ni 2.3187622639746723 5.143556149370845 11.531060798133506 0.07192069739970194 -0.032737599442337166 -0.3259680583322515
Ni 1.268790445759114 3.4686978576485985 3.9609178625783565 -0.9004815739422168 -0.22814323947227805 0.09982128046471196
Ni 3.66066984522488 2.7414907391808656 2.7523711685439904 0.5598471718470422 -0.31644880598790665 -0.5026576100099279
Ni 0.9276584181628402 3.3134244051638078 8.101672092332047 0.8386447431410783 -0.20745871453973305 0.4450384168345626
Ni 3.451359967054193 2.9675063973513702 7.454868538480733 -0.0638543754517997 -0.5495203359997374 -0.1218512636815579
Ni 3.8645526024334633 6.669814270456876 6.136769854283239 0.9848757212185811 0.7145126538451437 -0.6816418712590518
Ni 0.8614276760922123 7.214305306483361 11.460734882425086 -0.14484643902515054 1.267175649238921 -0.19437899853763943
P 0.1567941299723414 5.589049636133546 7.964563692305436 0.20777907399362924 0.13769260158918867 -0.6495771295140232
P 8.341295285573754 1.53396084018865 7.9537266076687985 0.03685599248608491 -0.35194905577704544 -0.5843909226246775
P 1.8284069852989473 3.0385556281830266 10.225041747398583 -0.6840677070917252 0.9415009537773722 0.7158959073459155
P 4.025840135718188 6.003687095729017 3.6669683757923788 -0.8673171713751064 0.6629522652693486 0.8058999446098895
P 7.0532164365283645 3.941363069827219 10.28426509202064 0.006004554322867078 0.4593923715633895 -0.18264036994447255
P 6.597843964187392 7.773840574661032 10.08022791922395 -1.2867173188162744 0.031734354988803413 0.7263669820805684
P 2.579489823939392 8.491873059355893 5.855812046246308 -1.6348431441924876 -0.5612059998677819 -0.6694628126943567
P 6.762734527861266 3.7925642358612768 1.4620004670856523 1.33087267317725 0.1493803223397621 0.09089646717125636
Ni 5.203913681002617 2.7063092695163853 0.3747837896218522 -0.1503030912643476 0.6781140606114515 0.07486666740190333
Ni 1.4307100896384264 0.9759787580433935 6.939555727500417 -0.0014835265240619613 0.7625323762575319 0.35534265483962674
Ni 6.6969769657214435 0.8243282022807257 9.262956780224227 0.6938736374385533 -0.6507860622204598 -1.3412234202839548
Ni 2.866070707222748 1.3682304724391092 9.349935198039494 -0.4518456695643831 1.3135262114790025 -0.3846666006147246
Ni 6.107253901576534 1.7442369445539208 2.4110540228450157 1.3358888954449186 0.5593751173066303 0.5064592431442052
Ni 4.026652849339801 6.84918919689816 10.46701007094621 -0.26155421083255603 -0.46602710327108776 0.4334322000542019
Ni 8.408353189508157 7.2030898585051055 0.4074711314831168 -0.7664589650054477 -0.10571090647626954 -0.05448964640744809
Ni 7.682699257072839 3.828982836260879 8.013663334247601 -0.9358481263669689 -0.0739896641135887 0.4876035438902828
Ni 2.9550538186379924 8.4800345309344 12.433339975923651 0.8641498293907182 -0.3413214008598702 0.38650365382346336
Ni 0.07042253832787942 4.960514981480952 10.159910877762538 -0.25740470744055666 -1.3951726208069004 -0.025021975965634324
Ni 8.561612918241618 2.1792735160518717 5.76103699575437 0.5221308882431912 0.5155210962361573 0.08550332118014307
Ni 3.5811864530311532 2.945815973805661 11.628571984484875 -1.396573872029801 0.6933067091914898 -1.0026335594226348
Ni 1.0102481824213976 3.2961587557802123 12.652457501476933 0.3322883441233245 0.22587964024908191 -0.12967075972597666
Ni 3.136027081868448 8.343065195238598 8.091588122318102 0.6967123924389291 -0.22446579062069083 0.07720251462393156
Ni 5.545515276469156 7.675746040532375 3.384795109383569 -0.7749487476440138 1.3260639389346969 0.6757010802945848
Ni 2.9930256050700104 8.261622260201651 3.4517771600466207 0.8688428639910133 -0.2528523121831839 1.1062726709715398
Ni 3.453400781259576 4.48445443239426 9.48490254918072 0.07082386479109737 -0.2032827287851725 -0.22865694588390295
Ni 7.401527434448884 6.231897080677875 11.448021332337659 -0.3127903832997129 0.03087252120914038 -0.4204982656013532
Ni 0.6153325733770625 0.11213371043445085 0.3923384038486875 0.0011004321530303628 0.3229174444313858 0.13147258882140583
Ni 4.577356629495949 0.32758228549371915 1.1071272581781773 -0.3367798042357748 -0.7478002122536799 0.7653215089668949
Ni 6.370744687854738 5.700662306835029 0.4018155476918272 -0.9362548748870843 0.01317176149526764 -0.23207239932335516
Ni 8.128454618224728 8.878336446735455 11.28028988304868 -0.3067274649350847 -0.3050238519804166 -0.050119542364210456
Ni 0.10068438153619753 4.861914758876623 5.745229715814002 -0.6264600838805856 -0.8941042096609634 1.4763351485198444
Ni 8.029267435782568 8.877171557211144 2.543549821561406 -0.20461224622987345 0.08715062697557893 -0.3669434723033487
P 8.602952951127651 1.7195575409109471 3.5602717194865168 -0.03526010875387476 -0.5681202104891119 -0.15731551802643876
P 1.8957177334711852 3.3078437716287334 1.752513078267344 -1.7091871063217017 0.10284592622364867 -1.2129328287349563
P 4.615319385776615 1.1501432871550048 8.032589628464693 0.6960703879795561 -0.43892201952417953 0.3937397665605864
P 8.415676642254022 1.6939480316787945 12.353538722402362 0.2739525844969088 -0.07761543379163408 0.35410878243252564
P 6.353433887714385 7.774987403882641 1.3054402180333082 0.20885610910789193 -0.15545738177177743 -0.2400356200344898
P 1.7521473571376183 2.943197229913798 6.0867446218275685 0.36715738808636766 1.7774925755663191 -0.6439227594417233
P 6.861416021827756 3.6911827266407626 6.001194773956071 -0.12230866293395064 1.3173098468911506 -0.9180044133173286
P 2.3915452838657694 8.420381351108025 10.339351724308687 -0.28725161559866014 -0.18308362812947826 -0.8514244114042497
