# total energy = -340864.16285402694 ev
CRYSTAL
PRIMVEC
9.36068715285823 0.00000000000000 0.00000000000000
0.00000000000000 9.36068715285823 0.00000000000000
0.00000000000000 0.00000000000000 13.70031184096748
PRIMCOORD
 96 1
Ni 7.4304104345528525 4.636376391541495 7.135629293520818 0.5445161979169267 -0.7811839299204482 2.368146705491889
Ni 3.599989200383154 5.130087110069494 7.095870711227892 1.7132682183696106 0.6370376022861158 0.1743436771533191
Ni 6.15344422481597 0.49468516605276475 4.741937795783045 1.6065000742734206 -3.369009546167346 -2.307374311399523
Ni 2.271323915917299 3.3136364219956906 1.561671507198709 -2.183486734014227 1.4271987960045098 0.4098065902154619
Ni 5.987647735299485 6.391430333074048 6.928343430670781 -0.6626583881780136 1.4140159787656488 -0.33517929251787437
Ni 8.379977253067484 3.7648777032531213 1.1068057679048746 -0.26677509291186313 1.1534873809841295 1.0175037916662477
Ni 8.922485233330432 5.1260245718778625 5.3773309378472085 0.5231169063055442 0.14521539232879507 -1.3666261766277754
Ni 4.494852163616939 1.2466937477282845 9.960345796634769 1.359153265289498 -0.7036435723411236 1.2229200218546552
Ni 8.653515250845865 0.6821563264971741 12.990553718886005 0.8234132709033044 -0.3377532238926377 0.5012316761966787
Ni 8.391378569927866 7.184233725101972 13.414249306280508 0.1743958705474932 -0.16072120127387804 -0.01392972270721472
Ni 0.8964627046553287 2.2894649274734724 12.66945875041044 -0.37254024966483584 1.1387228210804452 -0.4877534392045858
Ni 4.046681187720925 8.093240686509843 3.7814096127006747 0.7152641872991875 -1.8936444748702546 -0.6092822865497184
Ni 6.61545965689959 4.686933462447013 13.12863883037829 -0.17783266414318405 0.38593955378987727 -0.2875138681211113
Ni 3.6666653744361075 0.576426429888229 4.943428457263409 1.3050112320294556 1.279196842069513 -0.6191710064183401
Ni 5.733898230002915 7.216415767274378 13.419195493332253 0.3231845820498434 -0.4273628539316705 0.31112790799562545
Ni 0.8240044341946102 0.20775670541003557 4.5722191783810935 4.663479255235529 -0.6914745410787576 0.5203509135246329
Ni 8.831855061046184 0.4396068832888199 6.453408378282809 -0.8193175035673761 0.21076592453609508 0.47307578258775307
Ni 3.39013195679293 6.5953903438054535 1.9325934129877462 -0.4344390440521615 0.17360937009045585 -0.17370887178279762
Ni 9.325696829193268 4.738473405495667 8.750457334426462 0.8704690867405267 -0.7664299115397252 -0.012412000511107657
Ni 7.963660695296164 6.7991912228565425 2.0813927669089254 0.9868037914792296 -1.9059166073693885 -1.045131323575529
Ni 0.6342614349964942 5.402267808221639 2.51132163582833 -0.01508903312263853 -0.7634939688398529 0.17940926460168458
Ni 6.131905283850668 4.278882391365116 5.393456593475598 -0.7280811365581977 2.1350057556947037 -3.365438026766004
Ni 3.9908166072424716 3.994551521386389 10.256751952943455 0.0549295621583441 0.9031454939276252 -1.8707382596960427
Ni 1.5976727096987315 6.752593722584802 7.662748304228375 -0.07042148714635614 1.1174073474321207 -0.004097309997825201
P 0.33216959735694085 0.9252000139832196 10.096691692468056 -0.8842954511006577 2.2653447451322988 -0.7674742936438396
P 4.993655095915092 8.49279225372538 9.970593876847206 1.5578897694648846 0.2464590070623304 -0.2216162369870377
P 8.976898907311874 3.225383864229125 6.5844242988941755 0.7657151448608878 -0.9579138479177566 0.5914504005746202
P 1.0362467808521785 1.1821424496419208 0.8659272073398521 -0.23438459239629958 -0.0029099745579433756 1.1791858141914984
P 4.616887441046163 6.151384873658922 5.255357440952697 -0.6653079099857188 -0.5372412615220683 -1.1597631866905123
P 4.673257498626801 8.360965697613103 1.3185360849793042 0.3777621601854075 -1.193047916885571 0.04385839194584704
P 9.17109572142146 6.779384009000576 8.97471786722282 -0.25412912201307847 1.761458147811276 1.1872302817625295
P 7.105575871589832 6.891422072631041 11.68517407959411 0.11218751533954872 -0.08629496384350299 -0.23681865575908892
Ni 4.362997525443431 0.18090931880308964 12.994635914520497 -0.5378272159325254 -0.03144202055936521 0.8155814335637115
Ni 2.5821548910123964 9.093785806848478 1.9362375284670128 -0.4815851056103448 0.507204863060978 -1.0724431240166048
Ni 1.7224974718770463 4.5710200743664675 11.15850625400369 -0.6894531397733545 -1.4286823225285719 -0.6678378754964239
Ni 5.962561093931815 5.652947008156791 1.794357594433513 -0.04545093324394753 0.8698563928571922 -0.12404981399477347
Ni 7.021797722246307 2.2551299272732432 5.843484729687787 1.2366047184305993 0.1369176710963771 1.5735943246843351
Ni 3.851323648413732 2.1761818924617016 0.6322217412823095 1.470352191463532 -0.4126494589808957 -0.24476233608619785
Ni 7.799053013038521 1.9323172727189604 2.2989257739026905 -0.008293350357043781 -2.42291043149633 0.3305448790696565
Ni 3.390787204888354 9.004643983809553 8.591685104492928 -0.321894145373194 -0.37535277941296646 -1.2764604169749565
Ni 8.97527950844747 3.096056611566538 10.421826733486265 -0.008156310558547243 -0.5760772605526595 1.7760964665497412
Ni 3.287258005811327 2.0540436474746264 8.109762299201611 0.8783065805070744 -0.8590024808618238 -1.0819865447306658
Ni 7.2150210248998325 4.968867996533902 9.964086327190936 0.03148007288615224 -0.30605049347271807 -0.4913285581503538
Ni 7.294652389868031 9.063223163540478 0.705056311363543 -1.3846010159386413 -0.059428478469962166 0.930361906441417
Ni 4.406496638292523 4.73160266118079 3.3864157640231665 -0.6835367742889197 0.0038527980871869137 1.69809099640854
Ni 5.809757238078886 2.372578468034497 8.407607193114108 -0.2990858892294268 0.7865670486092324 0.30227380003910526
Ni 7.14107159698767 0.5355108666725249 9.84319492572258 0.17307920861859868 0.7838745893787339 0.6658627540479242
Ni 4.748283405552875 0.7234753353259179 2.568273928145188 0.8275694591635232 1.2019722159583943 0.09229154774657009
Ni 3.33730959961466 7.155908286005491 13.223458846198422 1.0946888227886826 0.5158879926572727 0.7934169816515303
Ni 8.082897127289218 2.261476473111781 8.401209163496645 0.15512416680207478 -0.010609142974413987 -0.891044339788717
Ni 2.9222380132246464 2.1851962341173237 3.5339270874024837 0.18681481303713635 0.769374853100662 -0.5949663841476786
Ni 6.450514989907158 9.282796800317135 12.09034673939968 0.6476277190971362 -1.386392046400793 -0.8208264840127347
Ni 1.3331396928888946 8.550060937265458 9.652006636439701 0.8703433597959398 -1.624564645084615 -1.6338897791402829
Ni 4.176888344968797 6.482799999637416 9.054412884863146 -0.4989624205465278 1.254143498645311 -0.8139582961379918
Ni 5.30612419124875 5.8081378392144805 10.938972868181464 0.01099660822081977 0.7356278385572042 2.01256776627174
Ni 6.016010617144277 3.3752484643397223 2.1005316277075594 -0.44549504475600693 -1.075980704856218 0.11156942213957557
P 2.4536232967513962 0.3328894341931997 6.522485568571138 -1.6476279546619816 1.3523570683032708 2.9052936075279385
P 6.043868021886884 1.5159632721993308 0.4945541164336799 -0.22159515394111515 0.5073089927390102 0.7111388522769043
P 6.926973962151344 8.670898046748762 6.592686041308767 0.5212682831325797 -1.0339369975216064 0.8289097752415014
P 2.8682455701616902 6.2507204849252345 10.743976651395462 0.3675070581163026 0.24896660397553255 1.3046559055725662
P 8.59590022188392 3.742262283273908 12.712437409058023 -0.43346433884371793 0.4549317646888746 -1.571138664054991
P 2.1819948791368224 3.7525028749366807 8.696108249185855 -0.3271962743123978 0.7426304951272823 1.165967001508379
P 5.463570947892113 4.814894054796286 8.357601466677455 0.39329830814779365 -0.8298741960372998 0.4354116923780759
P 6.668263292703705 2.7777558081836045 10.251751473906662 -0.03272037305115655 -0.013238353067144944 1.396751535258246
Ni 1.6061722135650913 7.495205110503231 3.404404196379977 0.3068765889184392 -0.5434587031866898 0.65232615301407
Ni 9.1417218853723 5.864358125801879 11.329719773131915 -2.814642680708585 -0.8719369295353048 -1.9022512427026594
Ni 1.2707226314561986 6.826206165762175 12.48835472931614 1.616194675853365 1.5356558977673487 -0.39777254186906336
Ni 3.358923426076582 7.853522851142429 6.164770656179731 0.04206633304243078 -1.7366657713579445 0.2581953216626521
Ni 3.22704070584184 8.40015889440655 11.214719052041426 0.06685870949576228 -0.31029795589516235 -1.0980482261792186
Ni 3.5265920530085633 4.831078682753264 12.681940290559563 0.7816138183690152 -0.2048989242323568 0.8789606691513057
Ni 9.177067839776898 8.62942084230841 11.280932808152752 -1.8727650603180843 -1.1490308878746727 0.9663069570774585
Ni 8.544622378073436 7.688156953231511 4.189733079776526 0.002907660565098218 -1.5770763696956644 1.794029653989394
Ni 5.403934010521431 0.7133115012971805 6.769296932605874 -2.2438618926681744 -0.5661162926852057 2.490315757524182
Ni 9.111795768785568 2.3448614735980517 4.529062666679039 0.21685172571885877 1.569500871341252 0.3707283932670776
Ni 2.3592862923844624 5.416374363647414 5.003230142726655 0.5051842330865235 1.5092696944643362 -1.4484037122168991
Ni 0.9658637747165393 1.7798316802266658 8.011654810079865 0.17741074611441704 -0.2553830490248376 0.1257634542517705
Ni 8.407010917347272 7.077437646234901 6.894394090778143 0.6240489033359317 0.00614647921737006 -0.10215121414946923
Ni 6.640153149410006 8.312028025571992 2.8792574824396477 -1.9372606688983085 1.3742638956786914 0.15789992977499903
Ni 4.750417642206543 3.043271697136578 6.63352671902785 -1.1398908732466175 0.2011577120223697 -2.1121064824990268
Ni 0.7567282400999896 4.885248978870693 13.524619295473764 0.8024209849223536 -0.13131060932224484 1.163975939220279
Ni 1.4981592453779466 4.626706801790449 6.915520225443328 -2.60666871709533 -2.0086445199579344 -0.3760145813666815
Ni 7.034444010487994 2.2152159575748307 12.398658753602225 0.19101419583046458 0.9735952632087553 -0.6466712687211378
Ni 4.656426983261476 2.6414829257095214 11.991526901991337 2.0940869059931546 0.44812554040031854 0.07313760052593857
Ni 2.4374386687944174 2.185701711219508 10.307621670797362 -2.5703066335265286 -0.427159993892245 0.3178824531106396
Ni 6.81381261607158 7.814217326104053 8.862840807410088 -0.06744055014116128 -0.8883691069493991 -0.517269960606464
Ni 2.087695317518199 2.383137323057904 5.818083569234313 -0.3696181909220344 0.4933772131492664 -0.09120397110934615
Ni 9.247535092096234 8.739755260890771 2.1574839200244176 0.7046601865310961 1.699308156645093 -1.0415608326154513
Ni 1.770948388190129 9.1283735455998 12.99149914828083 -0.32987742068898673 0.9541556664269051 0.41484003887431137
P 8.326911518025199 0.4199953077927729 4.011793906983124 -3.914134324202549 1.0370439185817042 -1.9246946593078398
P 1.086916180002626 7.2475681338682625 0.9290032611428035 0.42909140658700295 -0.536848911179656 0.7876445979441273
P 7.732011772189546 5.035441203029003 3.4721250231107783 -0.3528162888733472 0.25665060288335156 -1.439032041194012
P 4.056378859533204 4.654816945084148 1.2305521789318625 -0.015460814639760468 -0.9793553056209844 -1.1638823510652083
P 5.258057063105844 2.237943705798974 4.28574564713033 -1.5520443664277013 3.0419359134757413 -0.5488191961676548
P 0.9568775151221499 7.487697839467085 5.4901393860241505 0.3285661580767309 -1.1591890593545973 0.8230993392073116
P 2.8562638907025044 1.8084847433708595 12.342884971788422 0.6429920200973378 -1.6217336033937233 0.9714435069730754
P 1.3702641778382154 3.787876911402512 4.031673198129587 0.7475258755463706 -0.37396232682334307 -1.2979674378087969
