# total energy = -381170.5199016054 ev
CRYSTAL
PRIMVEC
9.22253463222477 0.00000000000000 0.00000000000000

0.00000000000000 9.22253463222477 0.00000000000000

0.00000000000000 0.00000000000000 13.49811166234656

PRIMCOORD
 96 1
Ni 4.150509554058176 1.871132414661366 11.446061174704237 -0.4924223054351649 0.12546777738822262 -0.7820678751872983
Ni 8.232458784534296 4.8622310083861855 0.6477770094051977 -0.19782453388407867 -0.8724336666660653 -1.3760338430949204
Ni 6.497976667763073 5.545666948532575 12.514842285718133 0.8021762159013991 -0.06196512884888683 0.862204018518257
Ni 8.29608505200707 1.6697952577983224 3.070064703303329 1.7955036674317595 0.5612399384295108 -1.6807504482475635
Ni 1.799916001061603 5.308454131360922 4.099835414435635 -0.11699290714799206 -0.12066315691072767 0.7399426638824741
Ni 2.3382261338516255 1.8234519098296158 2.341017795130653 -0.5429465394369616 1.4547353108618815 1.6025346618677692
Ni 3.194215699801118 4.038999885988409 2.827773036226291 1.791635956946237 -1.022575035541568 1.1310910155668004
Ni 1.5041308654786463 7.418404084246306 5.810978062429739 0.8431606287335608 0.5589375155485793 0.012672710371662045
Ni 5.5288819352262335 4.179145524561577 10.584571289009745 -0.41445514473106687 1.1285543651878758 0.6182564650238707
Ni 8.755773075766015 1.500063727639033 7.732434160391864 -0.5322124408489092 1.3835463494218816 -1.0273086935718112
Ni 0.4902634933273593 5.454778868239172 6.531655520286203 0.18409638566470876 -0.3774639122186983 0.016099476665023888
Ni 7.683579626882148 5.557776136703579 2.912109427809351 -0.8418622216371113 0.6916488618730926 -1.2969168850570953
Ni 3.3315300201956877 8.139836867701556 10.175713265711183 -0.27974296592644077 0.41273944759154074 -1.058835303425183
Ni 0.1386783332890796 3.5575097900007884 2.081813843767258 0.004356220086166691 -0.569294176192555 0.5362146200297669
Ni 6.024500954502489 1.3178264403130406 12.801703696644378 0.4264938210631558 0.01869886196108393 0.053494629484030456
Ni 2.8331350179495365 6.596722347692192 7.77577638486136 -1.4042398732154913 2.419816623062355 1.420230335106477
Ni 4.52576527187231 1.8654790008389555 1.247125566407687 0.6692524964557636 0.4021063933577268 0.27450048658057885
Ni 3.498946694124267 4.495893481707893 7.439484032001418 0.6241548327861767 -1.611014417204006 3.2693849550944725
Ni 4.43752405906183 6.353413435028512 13.428191406754875 0.1662264473628234 0.1059819007494691 -0.9933333650676311
Ni 7.629314232214833 7.899156377451231 3.7293127014724976 2.1585866283384374 -1.4769882087228112 -0.5691910749557875
Ni 8.589988790494152 6.879282368395317 12.281891201870032 0.5331586068122625 0.4990020155352115 -2.6056888696805642
Ni 8.607576164326675 8.931130352143365 5.744175553977457 -0.4608656136748063 -0.24304381073319437 1.712972798616379
Ni 3.5350344727329013 6.2351805391014254 1.9054743674354448 0.36550519719492536 -0.21828665839317243 0.16023629121765953
Ni 1.1815358212794622 4.923883653415246 12.718272035723599 0.17206156598736175 0.9523461240219923 1.3896779162409163
P 0.9761776392507238 2.0476240628171105 4.226960678401169 -0.24026624798805718 -0.05624802385945152 0.5452155379767964
Ni 1.8363542359920177 0.7257765973383749 6.008751631852358 -0.843596687829715 0.10919577970107645 -0.1769698019222565
P 2.6093594339577413 7.044587081858428 11.941914446364 0.49244441692235186 -1.052242994919646 -0.6698065691870206
Ni 4.065219552378481 8.687378757810064 12.517055694066222 0.14949345087885868 0.1278884710145733 -0.6597779813064251
P 9.165281287766826 6.505078019546525 4.578033065505474 -0.9754420866095072 0.23980036409523217 -0.25611761319801696
P 3.6583397627910252 3.368374046656585 9.642444170433935 0.6600991120912696 0.9271056042876485 -0.2598472554437783
P 1.9062610496524945 4.334536013132206 1.316455049390704 -0.4160767394948898 0.9317207344621566 -2.537951100013958
Ni 4.923357968932576 6.313046400280239 6.7959078871901974 1.1931903560007062 1.3202730432845327 -2.069122265628017
Ni 5.387177688274621 7.955386172027475 3.9036813221210336 -2.28176715235438 -1.6644419408955269 -0.6789915781203983
Ni 0.4118046231619537 7.556336314471383 7.857898445842852 -0.2037838367913071 0.18524181212306162 -0.437597130065169
Ni 2.1509902326728656 8.55388256681595 2.164732731754063 0.36363471964508987 1.7708483307769245 -1.2494908303646481
Ni 4.960045212302151 5.564185798378253 3.716421442351836 -0.5165860471655619 0.8185993944544288 1.5611620124582533
Ni 5.914420779324198 3.560663896896815 8.32617541624586 -1.089283335502395 -0.8357504523124188 0.6433388619137953
Ni 7.330707000988064 6.449106455944225 9.934529225061668 0.05854119076900241 0.25295901296437723 0.5056400896770195
Ni 5.075087111194075 5.998391958529824 8.968888331801327 -0.22047826672785253 -2.3813274658482215 0.37828692234062594
Ni 6.341212021509671 2.0708279603329096 10.316903817475344 0.8268014706492469 -0.3802095932846355 0.12639157475407264
Ni 0.9790089574293209 3.856504367688474 8.475342538344448 0.7353853835290948 0.27340133997912913 0.475802951710929
Ni 5.157103113025556 3.622113646160635 13.129140571605006 0.5389826696932073 -0.7435416940876421 0.49310081955942814
Ni 0.9203333466284389 0.2613850808397405 8.98090160561058 0.09044960944182487 -1.8663293319950696 0.409572619827785
Ni 8.42841920361844 4.665348335823671 11.454646432334387 0.8252030158138756 -0.2434562156802646 -1.3775317677966856
Ni 1.4144324921723408 7.700585981023298 0.0791902171737533 -0.45979449209781453 0.3115050888293861 -0.9108804006780378
Ni 7.437642291805112 6.82279434284513 7.449715512090459 -1.3276084006036815 0.29178472758232327 -0.33045206224553414
Ni 6.387048019384681 8.18339489948499 12.90289888181205 -0.24452708014694016 -1.5251436853821152 0.5118996974334862
Ni 6.780186232144417 0.5487970770925722 1.6616711269073576 0.1259488307896992 -1.8194457800696535 -0.8633728420153777
Ni 5.536656532048896 8.085405467408133 8.758978828856831 0.11925984880529782 -1.88448517696849 -1.0421894673383858
Ni 2.9477250126370595 7.378424395958948 3.806062635942483 1.2617105123592915 -0.14598363795338729 2.161377303709697
Ni 1.3001652862022473 6.486909626022627 2.135671602397133 -2.4319005508100826 -1.476066211129174 -0.11173551540379467
Ni 8.287876996049572 7.063428720421536 0.8666960065798945 -0.9239110086097508 1.945700829245862 3.0092373948014566
Ni 2.6694995832822754 2.6219297488679296 13.204555083038311 -1.2633267078064758 0.5841692935321745 1.1669116248098355
Ni 0.9370187565591163 8.805408757971911 4.083408235478902 -0.6241157520181251 0.9170127388280207 -1.6241401559526867
Ni 0.8180222347519396 6.809366332200057 10.058239384396796 -0.1382281623776845 0.03319988379073637 0.7096959491827907
Ni 3.147070101986823 3.5460277341950768 5.512048042485539 0.2209102120589486 -0.8565213663111828 -2.6319979398887376
P 3.011286722366348 5.755977631740163 5.769079164653893 0.6804182832645959 0.6325001194270784 -0.44594447358859973
Ni 0.5829370563548879 1.3008569763110254 0.9365714636221067 -0.08439311883509983 -1.0248643457963769 1.1447672275023124
P 6.777216575944064 1.1677112416386897 6.757060726174278 -0.6615152757125059 -0.3627939689113494 0.6738673695199556
Ni 2.9040747555057878 2.158137697130236 7.4744309830573075 0.42702989607228387 0.39155741419728696 -0.07211712968122418
P 2.9157135944028227 9.041625541386923 7.956907890266785 -1.3293726915929558 0.22825636801137464 1.8712429672466029
P 6.113867316556583 7.093208285238117 1.9903502773033515 -0.2387906918837952 -0.7007909333836769 -0.30365422532639963
P 4.597627262906932 2.3602495469151106 3.39777179853312 0.7107485588170211 2.5749315338930496 0.011334451176212738
Ni 4.829979804247573 0.8066785169679835 8.389427248806417 0.13977905180457217 2.696226667960821 -0.4716470205610264
Ni 7.984215815761333 2.027417489106015 5.241762293326045 0.4136701869359263 1.1216792353345972 1.0339004878567162
Ni 0.043660401919533395 2.547347110072115 12.763814756992486 -1.171871282807956 1.632338889713395 -1.3252414430334016
Ni 3.864389634928541 0.5459288687748403 3.6037663354619345 -1.3545792727655703 -3.3846606224410416 -0.48221502588485976
Ni 7.6183209707526585 9.022313553549846 8.99668044037202 0.7268305519805482 0.2492836209953191 -1.3293094424551881
Ni 6.999230655792172 2.6923438019415102 1.157702946891414 0.5160270893382983 1.5459043149682345 -0.44006153244526147
Ni 3.397683262199197 4.384642044612071 12.071280786281973 0.0916927378203066 1.42662698266144 -0.616853414028757
Ni 5.589492433824736 4.117741887971675 6.256240197280014 -1.2039529938338491 -0.2633763516429593 -2.2595322522155796
Ni 5.347373228148154 4.474524868614051 1.7923876459176655 0.4812058678940551 0.4606267581911228 -1.5673246896255395
Ni 6.214429835838091 8.4108410523207 5.965463820338086 0.16496532126221267 0.14745173785848154 1.387308130457159
Ni 4.746525086989834 1.5174389831715314 5.416157659325454 1.278607031004314 0.9359095757325235 2.0873187340313857
Ni 6.637421393692678 0.5694454102198073 3.9824426914273445 -1.9661261869797497 2.3067569895304985 1.4469081015079792
Ni 2.3657738452505495 1.7335137506189338 9.652310438145541 0.5292150487834821 -0.1870338710264779 1.726164871826621
Ni 5.156420645451561 6.640280379475627 11.157647611173896 -1.0870822140860181 1.3340685544067281 -0.32081736736924754
Ni 8.878995363011084 1.7737885600193695 10.394693131615453 0.542333074222679 -1.3010638173459335 0.7072639427025303
Ni 8.005049521837721 3.4577772988498126 9.236960672612732 -0.08273475729607041 1.5072714330873849 -0.6234560069469391
Ni 6.309255938484136 3.6216432968866665 3.6835938297892414 1.3332193190325554 -1.1267499649892851 1.0846103555067579
Ni 8.351457150848429 0.17778741429285502 13.020683562548648 0.4867846475334133 -0.10432765297549774 -0.7917419079419525
Ni 6.0396904692912505 9.067992768333532 10.70340918321864 -0.5568042712556605 -0.5546710269627415 1.6194072692533916
Ni 2.007838047760211 0.5222656890268124 12.064315005759841 -1.3536503331933978 0.10790739990695608 -1.0851986239100602
Ni 3.821532515788668 8.60059470549541 6.200506575075133 0.5315820063537618 -1.0951855599194429 -1.548700646766449
Ni 4.682317799825687 8.685617253666377 1.2388806203110556 -0.19344388831787976 -1.0075682777200905 0.8714700172012153
Ni 6.774412925369819 5.964204022086633 5.254355664573193 0.8547071959205795 0.1637641018652599 -0.38011703357082927
Ni 8.945950965540776 4.344634688720363 4.302388101383171 -0.5743952448645463 -2.025621771242221 1.4264423774544595
Ni 0.8713081962252249 3.075300336300038 6.303834010284797 0.23759307203126823 -0.5826222607600289 -1.450009109030806
P 2.672192563439117 0.6360763795251123 0.5745454719551956 1.3529610204358569 -0.9772066347090977 -0.9320359517097303
Ni 7.807050922566378 4.032101429970199 6.550971197137193 0.3579482107832739 -0.1809645249039464 1.0192274592255737
P 8.46733830040567 8.700705320572517 10.863982736337713 0.2850283826950962 -0.4444748310216087 1.024942250222164
Ni 1.3817478288988936 3.493533066206233 10.889494112056395 0.2267723272666804 -0.19404089847193035 -0.11407599061151322
P 7.1105466506314805 3.3191626010507407 12.277963324305652 -0.32868854258720814 -1.3619562819559319 0.3753635780462439
P 8.744106569264629 5.577309465375463 8.511585255537447 0.7579329298123075 -1.1665694109790683 0.9894993360335217
P 8.896342950939232 8.890855542742928 2.0772108766567112 0.29258639754801224 -0.2915237606114528 -0.09381569770058037
Ni 2.8881197703299804 5.432524891806094 10.13376179948707 0.053597473610481894 0.6246978497738402 -1.0662166834909186
