# total energy = -340890.4262234833 ev
CRYSTAL
PRIMVEC
9.09936898699226 0.00000000000000 0.00000000000000

0.00000000000000 9.09936898699226 0.00000000000000

0.00000000000000 0.00000000000000 13.31784629077587

PRIMCOORD
 96 1
Ni 6.722058599417985 1.6992616244009204 11.59980435645197 -0.8314790786305745 0.9284551763370076 -0.5223455753571584
Ni 4.67910471650815 0.3893747295744976 6.184860984127443 -0.489633429836118 0.2884353514941162 -0.7287388247468547
Ni 2.528550797674779 1.641043862892355 4.492588584892938 0.5193168158331637 -0.6742977721891549 1.5987142596804145
Ni 3.8113252132591073 4.617210810009047 5.395366080376156 0.31511826010194116 -0.3558378493084904 -0.5568806330195506
Ni 5.11775798769343 4.5816959736276885 2.8667861647212534 0.19297491910126122 -0.028527418015731516 -0.4018397699599015
Ni 7.478125152051108 6.055220457124499 2.694373144791276 -1.2181174582596892 0.12668468051445925 0.02826387994169971
Ni 4.79685054863082 4.53247748785091 11.41342107562107 0.8038410051983317 0.39186748923853804 0.5088501119738849
Ni 5.471550545557536 7.877259864588107 12.356883668831248 0.578087863224785 -1.1022005577846954 0.30487781332085556
Ni 1.881130708375866 6.589426199957395 0.32900769715809774 0.8694758695893218 0.2944527613327897 0.09242807332443437
Ni 2.924355141235202 1.7270237985745112 13.814868250311127 -0.6299768387845924 -0.332725174550427 -0.7350853357901728
Ni 0.36692294702585193 9.277534429337816 4.798899726481981 0.9420398569999777 0.15699001636621995 -0.5737033610038443
Ni 8.660033064615359 2.18488583727223 1.2590842089435732 -0.04612276249999153 0.5616901385930521 0.5768701887676
Ni 7.018297649695081 0.4682935550768092 4.812842689276538 -0.3864974831758763 1.2851360903720837 -0.013611934356479782
Ni 0.6405436963054739 7.351525634097267 2.319129734945256 1.330906611738979 0.5441181911475598 1.3579057660356422
Ni 7.2378108223478845 3.8059838837802813 3.7714144718160436 1.0120031735629926 -0.20757929927799737 -0.16756162123447915
Ni 7.56903694561661 3.63809143026441 12.905539209300219 0.8630959342049072 0.908803463544351 -1.9978518002178045
Ni 7.6127958101203115 8.768424745623491 7.3853052208506655 1.424747763360856 0.9993829136958208 -1.0090533469060492
Ni 7.265454704727226 0.02922171292725972 0.13949878314836142 -0.18477130024454633 1.9991692334776474 -1.1269661947651493
Ni 1.9500129301045064 6.584567137024358 9.197410847407912 -0.36174752992470605 -0.0673490188686195 -0.46060618936583253
Ni 0.20738826374218094 4.8353499779747935 1.6371229448814075 -0.44568042129393565 -0.45622631513058204 -0.6803501490308218
Ni 6.31758255740216 2.0713257147922524 7.09003525334954 1.1349515269634711 -0.2542859593059169 -0.4313933152473022
Ni 3.4052840798116666 4.493168214684763 0.8808780446200312 0.7551160291888028 0.15148965537328102 -1.5745070663065917
Ni 6.010842835543181 5.691036420103973 5.108832416848831 0.44070533667684747 0.6734778473910208 -0.7828497476586453
Ni 5.604082851961452 2.9766128161873264 9.21666875151181 -1.1725477400496904 0.4405772957394154 0.8401200421350241
P 9.349692423830302 5.580278903210841 12.635626452801896 -0.5662479331670636 -0.9179162244788965 0.19374573582901472
P 3.822226257067682 6.170873434425823 12.673821963228333 0.4072108044638278 -0.11088268048519613 -0.15596594597707977
P 2.4550733947079664 8.50736385508258 1.4357439042871256 -0.3159021894558172 0.3976110765905346 -0.17155248756142713
P 6.2940060928712604 7.859161220067861 5.867323951264077 -0.49144914288861813 -0.9173287274065428 0.09587926509782842
P 4.979902550548265 0.9466164344322587 12.726387196845508 -0.5007393099412923 0.41189484020305833 -0.5753203277819768
P 3.980646267674767 6.212967114441238 8.210465100568323 0.1840112821500702 -0.2821621168908947 0.6760944590782615
P 4.9289278865953134 0.9598287179131023 3.7546734531190356 0.14901085481548532 0.007221714559419821 0.5423220184790853
P 0.21976522516824393 5.7788453289126105 3.80402933936452 0.500552390741467 -0.9155148141262555 -0.48119558348140995
Ni 1.4278638509163193 1.1588137145791406 2.416137195662147 -0.1966539106147452 -0.33366928363125115 0.14901265458769822
Ni 1.9850273012024997 6.545367056283673 4.918666528412568 0.08751135274910735 0.7802984419917013 -0.32524814944709146
Ni 6.165968874648843 5.47306104077642 9.425985171500265 -0.33953988347941527 0.00423794934074754 0.034458438788185816
Ni 8.862930789860435 2.520552452509723 9.935699053302143 -1.662574805779801 -1.0037211360598584 0.8916284944269612
Ni 2.2650057794546186 5.338326687125696 7.08077937541792 -0.5861333592370809 -0.06578450259497702 0.4235614779077092
Ni 0.32730884500529234 9.178078328479952 9.104904844430672 0.6867007738391979 -0.05992495849040648 -0.36054888163091453
Ni 1.5764110463879253 1.2803448841178093 11.207500540064466 -1.1494147535766528 -0.9097833109591169 1.515729334046751
Ni 4.238003715118775 6.925984553336157 1.6941896362382332 -0.4350283408967282 -0.1580336271393859 -0.2872978954555633
Ni 5.584410016640802 7.955478038693707 8.153131797705994 -1.357096125650153 0.21329023361984556 0.8845227366201154
Ni 5.312220598071605 2.6290988227872596 5.053895887725383 -0.5930691671249657 0.6475824676814976 -0.6459960970309842
Ni 0.6957313680074824 7.598873775873969 6.9039850094162984 0.25399233932489806 0.037433462256109724 0.3236895467107199
Ni 5.408937788924144 4.601041231671954 7.312456584267135 -0.3297974593806707 -0.07250536625857835 -0.26940404589427797
Ni 8.138957710944211 7.086324530757607 9.350646037679333 0.8488129419233317 0.4084793867636062 0.469952663577739
Ni 4.776568055601343 0.2577496302387904 10.4404455896824 0.09200332708218993 0.1417793700640526 -0.7304329246198259
Ni 8.266794743053282 7.315046264624332 4.951588044689215 -0.7332678229654598 -0.09253785942942128 -0.49494790007049594
Ni 7.3834553191759715 6.4716439703595725 7.202291436282133 -0.5074815137611325 -1.7227669018886653 -0.2141500105169796
Ni 2.353351551021775 5.235667608454293 2.7908346433808586 -0.36586129498276343 0.9753068465832234 1.0778637808115434
Ni 2.186369034384749 5.243119991492041 11.360908618342869 1.6393276623264026 0.0377327386640834 1.6483074972275098
Ni 0.925642389374859 3.410397925070781 3.8735885541310218 0.18214826079940244 1.1038828305831248 -0.7595676372022531
Ni 3.862181585417809 2.5340650151605857 2.719583855956582 -0.4444642894986474 0.5007071711517764 -0.39566038062206693
Ni 1.093289159933442 3.374655604469711 8.242161841806041 0.44979032969725113 1.2935754793886884 -0.6375993883268567
Ni 3.547179636698908 2.8574838800088114 7.259637478260763 1.1570059356603493 -0.24315745349292317 0.5882025830612837
Ni 4.174899592570806 7.051018979858383 6.300619514106713 -0.18596814876612489 -0.11708340997926933 -1.7737907012347
Ni 0.7497124634081411 7.252115030083344 11.264021269293984 -0.40927231497854677 0.9541500099999504 0.3532785732217464
P 0.23802310864228846 5.6527462762421345 8.208307640228577 0.11834633585209295 -0.43574824978188825 -0.8729923673830126
P 8.491094183688816 1.7263049484402229 7.658027862430867 -0.07980678501599804 -0.08583345082605219 1.2903993956535518
P 1.6448110015707773 3.31534591870653 10.51820879534858 2.025627427669176 0.02630444222248373 -0.6597990643523476
P 3.9866427517063614 6.144785544109308 3.8875988522546137 0.7892921608498793 1.224447257132459 0.13069765832859426
P 6.895155891880855 3.783945212574632 10.713701454273606 0.5877963487618006 0.8892247700814749 0.13264192653915866
P 6.2378447887088875 7.466268674519744 10.206517196994918 0.10306961219868056 1.2429625423278272 1.6511868756578338
P 2.3285921685483753 8.68006077531876 5.649910002990771 0.2498379508368923 0.15426721811841818 0.5954253260619681
P 6.894018470782298 3.787284680919996 1.4775218362055809 -0.3916949682164157 2.000472011449471 2.1397880075746953
Ni 5.111452125123028 2.8180199175732614 0.5984891435758494 -0.3561548663282769 0.46582552878324285 -1.9700355493364845
Ni 1.3573346434369675 1.4281823288239155 6.862619278903959 0.9141557289951999 -1.1949680167264196 -0.7703210190640152
Ni 7.044585726124941 0.973241187507292 9.2353934326047 -0.6239362890174673 -0.23746580242478454 0.11413692575643569
Ni 2.4272202268464906 1.4256618036695121 8.98746839084681 1.1444481535999969 0.9817356329277027 1.3812297854735631
Ni 6.310557844697469 1.910840147470187 2.2908288781393886 1.4753378176035816 -1.2612230311999115 1.688603882853711
Ni 4.022357774201066 6.833616860764502 10.43667663113022 0.7234312964910121 0.47217641070193517 0.10238672719904302
Ni 8.305066688177543 7.020818174849485 0.5902778731811432 0.48844635150655236 -0.4074527452713047 -1.5095504589295488
Ni 7.728976550811367 3.963812435416116 8.1438231434354 0.4410310954473824 0.06833735092381779 -0.21835067886188847
Ni 3.200511884596168 8.635564861943191 12.280639147815865 -1.0601344818525806 -0.03336006351768448 0.7729409731853657
Ni 0.1243228558829682 4.974151749473958 10.468359723314759 -1.7780962705885892 -0.7149065468494527 -1.3575108445900688
Ni 8.74031679543594 2.3906862611608246 5.4885372472118314 -1.0698470811546543 0.785822457133724 1.2826500907254361
Ni 3.716464293639414 2.445437163160987 11.41684334822241 -0.022864563302999335 -0.17960209733878102 0.1134761522439852
Ni 1.2361674486498373 3.3977952992987643 12.973886388144097 -0.35996858364741235 0.2773767796871094 -0.4809423298200233
Ni 2.9713169835524433 8.60313471158112 7.871006778356678 0.3093736443086801 -0.7597123903102335 -0.29711102489124314
Ni 5.823159254912409 7.972821435604511 3.446099298512303 0.6015370953866608 -0.842933086103787 -0.2425254763358791
Ni 3.514813181918357 8.454569317371938 3.613557712136965 -1.980742137120711 -0.430980910300232 0.7667376725881311
Ni 3.454411571900561 4.488873312616611 9.421137937746652 -0.09980199719100231 -0.9789346731437979 -0.651261973415614
Ni 7.335092174065308 5.969640893669035 11.668377199641803 -0.525264034555534 0.10124335762321919 0.21099809515155918
Ni 0.7258584681291939 -0.08489984060696623 -0.09654157303492167 0.20249237167339318 -0.14084785938871872 0.6658658393717177
Ni 4.579739609338169 0.302438450232674 1.5168229199398173 0.34838756367803225 -0.5095039435077999 -0.26684245581468885
Ni 5.7063051609310085 5.410047911916335 0.39826208307018623 1.0161596189335274 0.48107397030188115 -0.05860958211309261
Ni 8.078064735011838 8.939629369378363 11.120587919081494 0.23018340983075838 -0.6428176993030026 0.413671729597823
Ni -0.13815025669391168 5.18174474901388 5.947896132075252 0.5846261785639351 -1.3868170497533536 -0.19686396974302225
Ni 8.02800910730652 8.996191045767429 2.2997253310038652 0.023075136651908645 0.06804424516343119 1.53200313150611
P 8.383175669857682 1.8171166489490516 3.434366572396463 0.13187393802488256 -1.3794968619428565 0.06059318820202468
P 1.9020865546956889 3.3560200971909455 1.8594642013536644 -0.37540394436587604 -1.8908422295347693 -0.6080592127758947
P 4.767259401330749 1.1719168056345226 8.343550648594576 -1.1115598875124084 -0.9194375462194295 0.094264869422857
P 8.750435293528707 1.7388165805243552 12.502314330492807 0.475087156590827 -1.2828231259681908 -1.2261120464293918
P 6.389039900497934 7.577735942178377 1.2051913774201626 -1.5002986013139774 -1.213334692159065 1.379905667345501
P 2.067303793787753 3.4589976537699445 5.895597509963579 -1.7753055952173296 -0.78537842761777 -0.6628404222818326
P 7.07360361319134 3.873783280623095 5.940544752031056 -0.7321635341576874 0.7808064919763714 0.5960629596459671
P 2.3349253292251437 8.439728246877959 10.219236294687429 -0.024496956700099746 1.4301869320985563 -0.20019457677815197
