# total energy = -340865.66223379556 ev
CRYSTAL
PRIMVEC
9.35650966512916 0.00000000000000 0.00000000000000
0.00000000000000 9.35650966512916 0.00000000000000
0.00000000000000 0.00000000000000 13.69419766541077
PRIMCOORD
 96 1
Ni 1.0756711437083692 4.473899346796417 2.2863146188529586 0.03180248922257749 0.7008896637450702 0.3879838379134157
Ni 0.12357703820852135 4.977429275642671 -0.14978742897849703 -1.0454938491212704 0.44893723766833654 0.6223614883311798
Ni 6.107321393367393 4.5713286828503055 3.4736837759879404 -0.19833155542748424 -0.3600665426778573 0.12648336313693057
Ni 3.0786004734292685 8.736519346869235 11.675768642298063 0.6671850724037736 1.1928537985968939 -0.25764330581392403
Ni 4.895859223619451 5.462639158393323 13.106237700174281 0.29002917834379727 1.956506147391482 1.0581387915787905
Ni 7.099204992241174 2.029155626557454 4.10624652387946 -0.11830031310550596 0.7703133057545315 -0.7777116551011316
Ni 6.322333987482283 6.792395680943465 4.263715647364847 -0.3583498170970667 1.5540701386084783 0.10345090679749924
Ni 0.5597157699106541 5.488575403427547 11.125343886571747 1.1193451878847818 -1.1557201269693902 0.7906173074192061
Ni 4.954365479102497 6.735068345689247 2.2642940731502 0.6188876708499664 -1.0579567574749715 0.6812261238778718
Ni 6.215847549987872 5.941608249138985 6.498608759919433 -0.6439767526081103 0.29672021721072767 0.5019366726835033
Ni 2.265267150164471 3.950140643865028 13.028029442105174 -0.2537665964673372 0.2756957924402607 -0.15338995771978745
Ni 2.1949061968248724 4.678554284615172 6.1113914751097775 -2.492707140574494 -0.42054351701699183 -2.180323762905213
Ni 9.608667690438914 7.293923316702662 1.4308246052468192 -0.0062369820486473234 0.4933828695762213 -1.316882786656061
Ni 1.0461607119486493 0.6180002761125638 11.93069984962147 -0.3864522317602377 0.14338168155416597 1.004745977779947
Ni 1.9296585018482402 8.789224566305665 7.326998578678124 0.5215253934487083 0.8106919666818941 0.23994151765878677
Ni 9.181150046822832 1.691535328644413 6.188927935778649 0.5331154122791528 2.022910542958645 1.1424637761801164
Ni 5.604848750123184 3.871480466374868 7.373667913673149 -0.4955369398047466 -0.17270382755705094 0.7721567867211734
Ni 7.183086102173289 8.054046169004387 7.284833467478005 -0.5198708885644208 -2.200221530270404 2.4541927865493802
Ni 8.15960631203329 5.511732765065247 2.1322007397648566 0.25351205725436987 -1.952976536971669 1.048868422020458
Ni 4.119390548779922 2.0973832956734584 7.059673738536413 -1.6005178885480564 -0.5087596091426076 0.4830295513663552
Ni 9.104660579595278 1.7720387385558365 10.188167800221454 -1.1500279616806195 0.3056887392579251 -0.9866040167635975
Ni 5.814518777169336 1.2930228652614109 1.9491359482002404 0.6571644549429779 0.15432892459428907 -1.4465851709509217
Ni 1.3072166905561142 1.8450943667041857 8.247577152378268 -0.811231641235448 1.809323604033987 -1.9245900154091757
Ni 7.625050196847393 0.15001759911841114 5.728926361603469 -0.05928372536198177 0.008928155727565269 -1.5779011795898052
P 3.0781513609611437 1.2266197155471645 9.003579397784947 2.5767017384195947 -0.5966818241768885 0.17792882340141614
P 6.978375025296018 1.5431972230265947 -0.033025672473774026 -1.59052786721488 0.17454190920705423 1.408572182042258
P 8.625008463637675 3.039265706429312 7.947386636079553 -0.0013703979849653818 -0.5385131862559565 -0.7900737762109104
P 6.205022068204107 3.710632707217816 10.511981632343549 1.1307009792172333 0.8939607421045637 0.400543162635665
P 2.996412891762376 4.477557742109686 9.828818879709935 -0.94076124739787 -0.037244229063439084 0.7013833155520373
P 4.727713386855365 7.503200370339204 12.073845092326593 0.8437293567528372 0.31411990074441387 0.8385110457766913
P 1.952422890076331 2.1292141418518247 5.7563559055942095 0.3141067881182913 0.24284300757629787 0.5786509348171066
P 3.8539557236082373 2.15989413733062 2.3406675196568236 -0.46805621788597457 4.649460572358935 -0.39411489051181803
Ni 1.5948077308219701 -0.22716576463255012 2.447276527428993 -1.2000839977967463 1.0794792049277795 0.3307415684614949
Ni 4.540658043881262 2.8857347378987974 4.7277985310941135 -0.15644982759203377 -0.47049156680034454 -1.0610207411122758
Ni 9.13644464322488 6.940556012875984 9.581446796615657 -0.6624688978750269 0.9172749913504719 -1.9810745807594654
Ni 7.351147730349601 3.3592583399684433 6.1006558158196365 0.9557821462867346 0.06446681222481801 -0.3721985500547009
Ni 7.753122102341067 8.723513798313112 0.07315387150075141 0.11483626581630545 0.13801064705023974 -0.1323789026857591
Ni 3.1106745888612024 0.26281593809193016 5.18471900660776 0.5020711413788386 0.6736624525980012 -0.057349484453746394
Ni 2.1510615921241603 7.258209518976963 5.7446340701761445 1.1074376378139186 -1.1751178147697117 -1.5163733953886531
Ni 3.237511435067532 4.947890774353693 3.6962283604536785 -0.13082724192792308 0.08103962898183463 0.993043087520722
Ni 4.23538320018298 3.983197192820986 11.60770845470663 -0.30529458914330004 -1.6000777156868442 -0.26916904706533645
Ni 0.62732123112811 6.8919208751819365 3.5270505006638806 -0.7757157077170254 -0.6913220746612933 2.4514656174262037
Ni 2.47334657055268 6.618776285974104 9.489257106023228 -1.1934785766650864 0.14643640922008974 -1.7416786511915037
Ni 1.8050204354337733 2.72339929369108 10.58131524091231 0.002982993887723895 1.370712173771691 -1.3014996193317714
Ni 1.585264090874312 9.1774448689608 9.545417684511296 0.61027704636282 1.4382398843100197 -0.0004324595517282875
Ni 4.47746417701216 6.064150457368868 10.4305828044488 1.5016795408219041 0.7980246556268707 -0.2931805794885854
Ni 8.484183635351199 0.534986514634516 2.2179260177692095 -0.2503549996826269 0.4901360805041494 0.4466121890795856
Ni 6.596732348996964 3.7554129628937885 12.923694066202886 0.9477358789434903 -1.1482657275738741 -0.7658395862538939
Ni 6.8068795580404995 5.991955628117759 9.542623830699167 -0.6977020100457081 0.2119728003600027 -1.5811615955086318
Ni 6.207810308110384 1.4475081977866913 10.384091243139077 -0.707163412568924 1.0659042944568224 -1.8714730809795381
Ni 2.782766348071366 7.643566729647802 3.534075368186137 1.6651268827776935 -1.3804448276784225 0.27270714212558195
Ni 7.15609257153702 7.524374151909351 2.108837534912599 -0.3292804105349361 2.0928959710088475 0.2878401411122785
Ni 6.171469624231261 9.317904793366925 3.7249865288292887 -0.6799336303186935 -1.8989172932334202 0.7680540774067095
Ni 9.195577784861351 0.11329423399040717 8.10471915452255 -2.4738331864881267 -1.4256949577654736 -0.32064716033997037
Ni 8.661854399043438 5.276463327335964 7.207009761959727 -1.0635555917189876 0.4043478810937359 -0.7961680620341062
Ni 9.152519126979858 7.593762028234679 6.0696520851034 -0.33530759056562254 0.035142609339403996 -0.6371892973726316
P 0.9255609151434072 0.020252165359516072 0.5625685697342238 -1.0644529067222765 -0.21661287023517534 -1.9871207869535452
P 8.97865646275693 2.5907426984186297 3.2608765112217397 1.3657172916602607 0.25727358117933113 -1.1175955521835268
P 1.1123018793898223 6.570028870163027 7.459229452756831 0.2404505960847214 -0.5797858197524982 1.0645212980663668
P 9.404882908027151 3.3697657004206203 12.098317043584535 0.08910260849562719 -0.5848727473571024 -0.9036406883964889
P 7.468469006137529 8.601776249921953 9.530477209738335 0.17223640100232915 0.8857242131273841 -1.412009232748265
P 1.285837065771409 7.772209382236384 10.872850985689865 -0.7348500798509151 -1.7336740357194724 3.230602435009636
P 8.344537727293552 8.492417363933491 3.8514247877201573 -0.21229084582105376 -0.8518471007639652 0.2856729582576306
P 4.2423444434389195 4.819566243096699 5.694868666103982 1.7168610779271913 0.055434269708904534 -0.2687939231141049
Ni 0.19316982209743083 4.041460179050465 4.769305879658625 0.04618009810048821 0.11318356070423087 0.03209765186549311
Ni 7.617901823396402 5.7793850830482985 11.661540197917274 0.19497986534643194 -1.6922576775562146 1.8061932859351217
Ni 4.49620526604663 2.7990279620213956 9.542815639149097 -0.7245641245438748 -0.032696461791756594 -1.317924083436382
Ni 3.770916699553857 0.29847172545716183 2.6601530303673635 1.0466500742129006 -3.966102489739724 1.0238122503827787
Ni 9.104267606185667 1.7956264996421567 0.2287956686314541 0.2464556646282207 1.0838840188636945 -1.2209942655868522
Ni 6.995768776926113 7.899551479969354 11.448815270436898 -0.9280437998312017 0.6813690772136395 0.550844968348432
Ni 1.777680713936658 2.569194656458378 1.1812200589255688 0.9212542877131942 -0.9612459976147834 -0.24705113212037447
Ni 5.129622263278563 8.840619874376731 9.922705841171487 -0.5885797638950444 -0.8960263663843406 0.003670763983367871
Ni 8.512664851038132 4.224632570477236 9.656805997465097 -1.343481620190512 0.037634779633638406 1.3699614116485954
Ni 5.332312334049271 8.449882670598143 0.346314366775163 0.21627322750756944 -0.31231961431088145 0.08062439582128694
Ni 5.021189671755611 9.059693193724252 6.942451641751862 -0.8650435448495812 -0.7362461888674934 -0.2673569335572621
Ni 1.1398287310819897 4.461792023176544 8.37774023780165 0.8631229307881005 -0.1095135680518114 1.2210006933447553
Ni 0.7659201457444407 0.2169830750687888 4.770524097228414 -0.03904014462159728 -1.2677505479057845 -0.7138282261836093
Ni 0.27288541388768495 7.55875932525018 12.777466789185256 0.38397625941591934 -0.06796814050985714 -0.7930230886472213
Ni 7.607347680395463 0.8930470437531008 11.770655814652168 2.22671777678872 -0.9759961593407643 1.8141670481692176
Ni 3.4597004721626705 4.795660360678791 7.80373427054584 1.9810807514070528 1.0156734233257283 1.9831281208543843
Ni 7.422650177879016 3.155932026534558 1.7462840098108128 0.8785109832083967 -1.4520310245568413 -0.2271883317581765
Ni 3.3152172485629263 7.689198427711262 1.1739884125377795 -2.0938768468648776 0.12838803635881116 -1.1045366621170398
Ni 4.9301414753529995 1.0541792408066328 12.72615475405099 0.007716651917967356 -0.025878924649290917 -1.1644513361948012
Ni 3.635237951631315 4.783496898000403 1.4284415022128305 -0.7735649799226098 0.5914282890874331 -0.2984508267485892
Ni 4.654021516043839 2.9493683607262717 0.4778668938968058 -0.1160426274195808 -0.08743473387490103 -0.49591412063850726
Ni 1.9616951912411635 2.2724342366349677 3.554082392990135 -0.28913289178177304 0.2896178018379915 0.6547440184269433
Ni 6.9420249849071425 1.0022318986601633 7.86638545984929 -0.13687910454895783 1.6281004261520156 0.9260769059128181
Ni 2.5405263105763924 6.365205515168725 12.184782421510318 0.9666712823954124 0.008034440268702292 0.4966463708188414
P 6.1517741712020255 4.716392010054711 1.1988570798092315 -1.8072111856766746 1.228636355513142 0.567360706615268
P 5.855762272158823 1.489518926575893 5.841519793013406 0.11782183080719064 0.15620942944645355 0.42730628966212214
P 4.826125156433277 7.262438661385141 8.36051303204515 0.6480774050400452 -0.8074282083289579 0.017396083989260364
P 7.811628357824114 5.398780979331785 4.967953938216207 0.3715897128261084 -0.5667081606329337 0.51393498269596
P 1.8922231063280628 6.060042949587474 0.6240099623266628 0.6325302013340655 -0.9377224605715463 0.09534344719901645
P 2.9293828558947053 2.0480932022967293 12.123350385427633 2.0566300466982774 -1.6597499347364963 2.4981895038453037
P 7.6803378129755435 6.382299858486736 13.927273302267425 0.3864596879594054 1.2173582114961614 -1.5647800688268148
P 4.3084762543703405 7.8055092004459095 5.061033432886108 1.076502895908275 -0.2916569437552074 -0.1276313606984447
