# total energy = -340888.166403497 ev
CRYSTAL
PRIMVEC
9.07411837644302 0.00000000000000 0.00000000000000

0.00000000000000 9.07411837644302 0.00000000000000

0.00000000000000 0.00000000000000 13.28088946986908

PRIMCOORD
 96 1
Ni 6.363942501728101 2.2663609278585546 10.836196246126534 0.3113227976152509 -2.5487371348858687 4.134815708080143
Ni 4.571695194970044 0.24890760940108375 5.8231259424403135 1.1968138116859064 1.3167814851915065 0.13566965762188893
Ni 2.8717044517008357 1.8127548147235122 4.436480846764708 0.217789921262412 0.24362590848890942 0.5328531597567017
Ni 3.6257818530040877 4.267694074678577 4.905641813950363 -0.19841125962548412 0.9463960770861443 -0.24128723305340377
Ni 4.040532590427588 2.5442285866719185 2.188331674873707 0.08623968512553536 -0.5441475017235983 1.6102657119634398
Ni 5.310092519386434 4.512377681885891 2.359615644389968 -0.3047464299493139 0.5224152522528294 0.7540428507292819
Ni 5.461421594758078 4.634560688414594 11.61498791676373 -0.5548489473015025 -1.570606959921237 -1.338597038404701
Ni 5.657177554642498 7.97984338822037 12.326472312916959 -0.6594177697535288 0.7326648992741382 0.6549314518474012
Ni 1.7077491146455208 6.357000801022979 0.1622869809553097 2.019015578779613 0.19666625190991938 1.0566442093111352
Ni 2.921730067370553 1.77846372065207 13.577319594563253 -0.040903423082581165 -1.4139416738842874 -0.5849136278973669
Ni 8.285877111071246 8.755744044681553 7.022217174005824 -0.5664723904730438 0.5253802484184242 -1.082549359212671
Ni 8.980101626294786 2.36527789437689 1.0204381703595389 -0.16676406503384827 -0.1439298407481521 1.240220975026948
Ni 7.141494647768802 0.9384997870952585 4.549381937409399 -0.8753837504333247 -1.1639288880324277 0.9206207678942531
Ni 1.0087879095290746 7.460050654244602 2.4664207421801496 -0.8536203906143042 -0.9736587694568394 1.1820597933051835
Ni 7.447619111805365 3.777383151932795 3.953734109257866 0.25803694170791686 1.0671265968996977 -1.0810918008305381
Ni 7.818133521206034 3.7076757730873813 12.819113469311205 0.12250406677420836 0.8326435312523208 -2.5381562740462287
Ni 8.395828205769226 7.327840746697391 9.360358009390902 -0.2300170594562232 -0.4627510036229773 -1.0234535814917793
Ni 7.036370984149417 0.9711303174686129 0.30467986436041294 0.27238986799547926 -0.6754267435872755 -1.559132126512418
Ni 2.0517489495881973 6.894143249702265 8.956712178271882 -0.40800244712718764 -0.439012779465773 0.5642638128574992
Ni 0.33208188761443286 4.856450109777117 1.6005992003497256 -1.334993894434475 -0.044676002751135965 -0.26041649768368696
Ni 6.686563713322717 2.1035712407345337 6.877628353907075 0.33469438246165584 -0.30762220883521213 0.25442094222188444
Ni 3.551083708945842 4.199166331247105 0.5327759828239861 0.29457231762978947 1.5087963543723435 -1.690579261412527
Ni 6.070739582533488 6.077399985562977 4.802701383258627 0.16788223779869152 -0.5883733043111932 -0.9229674137495589
Ni 5.119835475354699 3.195750299910752 9.36784778685758 -0.3260493051921481 -0.37718417619475036 -2.332027848282145
P 0.2193876868731092 5.39982647791316 12.1896654569028 0.18519424671457785 -0.19538918496970867 0.5624660975271281
P 4.206162476663639 6.227286276082184 12.272046657153236 -1.085766066377756 -0.7748942402569945 3.473331542715889
P 2.2685568645522003 8.401889716973175 1.1988861564858564 1.9375272922961344 0.7787812340162266 -1.046800997968468
P 6.493911101988822 8.074232369572881 5.881295579525516 0.08774249492330696 0.20244172094111587 -2.1439022868533852
P 4.615568558250125 1.1581388270527229 12.304266129955426 0.9223506061011664 0.5466628119462844 1.2680608800573516
P 4.224047564362716 6.679694605566145 8.234496729499208 -1.8276653397659683 -1.3080147947424698 -2.215860522359242
P 4.891766579246832 1.024204836977442 3.596837229593375 0.10163133709025722 0.9256526738912059 -0.20232113620285158
P 0.06662217853202664 5.814404807083853 3.6492829126853867 0.21525789886917768 -0.48749144379245074 0.7927580079112928
Ni 0.9448062995005647 0.16168627430605606 4.4506918238552835 -0.5846187223647673 0.041751630015489385 0.052757494207689784
Ni 2.225237022504816 6.451752747118243 4.459351255205476 0.11989722527898061 -0.20475288557279575 0.3006799731894241
Ni 6.042292220820344 5.729834022022768 9.015692134145278 0.8512760587518436 0.8941399479949051 1.972315860730229
Ni 8.687007596523 2.723515021353992 9.915844696168847 1.704138745264517 -1.5076061907189842 0.7933329065781562
Ni 2.3188365555418438 5.347741037328327 6.951403660106875 0.4970171238946989 0.3635917822222964 -0.4984553990031222
Ni 0.6850650999402074 9.132374409997583 8.73235731889422 1.400268290162253 0.437527196059182 1.5652222985705562
Ni 1.5406673694384645 1.338151191220299 11.360977930491417 -0.9411417706657405 -0.4906423307166066 -0.9784086254369987
Ni 4.048018738246837 6.914151681146438 1.330452709026541 0.04675319699513883 0.36223012598807935 -0.4692132143085532
Ni 5.914047703087692 8.12417631817548 7.982013917382024 -0.8232489774112983 0.6391963005003314 0.7901056578901102
Ni 5.390806804055786 2.7172085089486857 5.002021656916867 -0.6204367605046411 -0.26221755544816777 -0.7629681782433699
Ni 0.7936287619090198 7.241083099061227 5.910832742878771 -1.2097323195197875 0.240743701845108 1.6751426151424829
Ni 5.20107605890104 4.941420156055229 7.0499739952958835 -1.409889872412417 -0.9999935506966261 -0.619126783443966
Ni 0.8590685827915335 7.410896153957489 11.414605971232945 -0.06218727216202194 0.46398976112608475 -0.526639317636506
Ni 4.651465771308241 0.34561139840049276 10.320207382654802 0.08892623081876298 0.28691248709168654 -1.1347766919485038
Ni 8.081155922040866 7.6894988163749245 4.23364253733735 0.13569074066781145 -0.3640913475665343 1.2485204960315788
Ni 7.3771676552373115 6.437932864537981 6.950142357625814 -0.008103345833424754 -1.2519112668806827 -0.06604572667616368
Ni 2.5404719015844415 5.288205745398523 2.4548131297069586 -0.3872032509936493 -0.2183393660079788 -0.31541727939959874
Ni 2.326132146871148 5.4747151784613495 11.280442405957873 0.5428568079366328 -1.0775938149796087 -0.30943277968138966
Ni 0.9316941981686689 3.5862912889927316 3.7205746326329106 0.8882513504246121 0.9355192822726405 0.03837320046155972
Ni 1.563978780041676 1.1381666920828253 2.26328933872302 0.351888120632123 0.2815075140260313 0.6409798747633154
Ni 1.1426856031300807 3.485314497559281 7.972345444046982 -0.6504734160760475 -0.3433456303787506 0.1003226455811627
Ni 3.6909430984465397 2.8077863605023072 7.053055565961843 0.7119387224703804 0.2761760745107889 -0.6139115577916137
Ni 4.233530018267098 6.905132007289065 5.968471544027699 -0.8666085753438559 0.5227135002195386 0.47086823341347295
Ni 0.5908285637796512 0.16284140959986249 13.306256617264623 -0.20352261271012048 -0.06529367900148754 -0.322267983772845
P 0.23549696956827493 6.059714528472413 7.8084060661002965 1.187151091785162 -0.05510773960742122 -0.06806738509188277
P 8.660719875029226 1.7443450348334346 7.844782392618845 0.858314967876496 0.49424984556220686 -0.8645920591344594
P 1.718683427520908 3.4337372076143016 10.187916715452328 0.3731236329721316 0.3088689367581197 0.04590293317970159
P 4.131400813775412 6.10397807885095 3.5219194918657633 2.1466999042031802 0.9803935170775114 0.6606004772077204
P 7.139897602900696 4.046222062770218 10.31866659732182 -1.1287176302386173 3.726784721707866 0.40419310068342645
P 6.405229741216077 7.829194871741385 10.184981238095324 -1.6709337192674578 -0.722802918878394 -1.627099752801643
P 2.567049994872415 8.590849162049572 5.805820690917781 -0.7864492920844455 -0.7518175609431891 -0.5489711483644868
P 7.2300398967630155 3.9904525300464586 1.5190945599530328 -0.5187012937363519 0.6524194840588248 0.8938190743203769
Ni 5.552262595750194 2.943780175492703 0.1827228033840726 -0.3124088315905781 -0.491292819816412 -0.045640937767566565
Ni 1.697268507698573 1.2963013563810584 6.817359873196912 -0.6995915137589371 0.4659769667594426 -0.5746456703124556
Ni 7.221600966494045 0.9095714970979687 9.18384190310788 -0.8814898633310626 -1.563652640090591 -0.5052343695981686
Ni 2.797124271183984 1.9379776509727589 9.03888104414781 0.2183951589465787 -0.769202589188856 0.8141074201213464
Ni 6.662272297914077 1.9838563944565404 2.4458215856171486 -0.42866203235906825 0.5147428233092362 -0.41909624304750404
Ni 4.326503437122879 6.859089929671045 10.34218762006397 -0.15970690107675076 1.3658689867467768 -0.3538966664217196
Ni 8.541876144133836 7.020337016638371 0.4384822797164466 -0.4421790930088966 0.0742316049210657 -0.5201693936414461
Ni 7.527335243432151 4.040124255091993 8.291152803607138 0.5144602590718107 0.14863907329836334 -2.58728619880366
Ni 3.031572272645707 8.509009686677693 12.301224485411169 0.8767590335142964 -0.4653156790263599 1.5456924560677443
Ni 0.3208671844752703 5.088330135683874 9.812266354941725 -0.24950807830129937 0.3684514243074428 0.49115937956234124
Ni 8.755517191717333 2.400612512083743 5.509018976298789 0.9276259955674927 -0.22653784265837112 1.3834710160992563
Ni 3.425788279748045 2.8590551304159484 11.287667219162339 1.8940761630910348 0.6550309535397428 0.7090081790871468
Ni 1.3994740845081548 3.286863524459932 12.668973103472073 -1.0104363432965051 2.0768597434815907 -0.18155305041756475
Ni 3.131687022815123 8.83454369033289 8.025654983226742 1.6468712790016153 -0.38927298903848445 -0.14455847547108652
Ni 5.938638564409102 8.227403491013987 3.190574422679116 -0.7357170558369006 -0.41816936035786045 0.43658591519183526
Ni 3.305773987557282 8.567946086781957 3.535160445681336 -0.03820145077038582 -0.5816231300715532 -0.3974989764927025
Ni 3.496775109311658 4.6849674170641995 9.105152054291224 -1.0364199118444601 0.4997077833529846 0.038278326754908276
Ni 7.364382222173892 6.236033726382493 11.43167166602526 0.3562266001064768 -1.841028905557068 -0.11494836591413751
Ni 8.337908106944663 9.051877904173883 2.273874298033509 -0.285423818361302 0.4560141991197759 -0.32914002830232997
Ni 4.926293600401063 0.36882934558244546 1.3126447513352988 -0.7374350669692719 -0.4491449828037684 -0.6287740767257428
Ni 6.099540834870814 5.7813659413749034 0.20847696670600094 0.39460160034024944 0.33978645227258253 1.3628096310951625
Ni 7.86989229352239 8.534163143350368 11.29252822447964 1.831970909119858 3.4971571843805775 2.527996817014724
Ni 0.0038982413371504553 4.807277461252866 6.022617716939502 -0.35427153326263505 0.0015927984084166116 -0.9043600830610166
Ni 7.149470797990764 6.2550167824283935 2.524976029304525 0.8176514287188629 -1.446161710260258 -0.5682428521099052
P 8.717650894929788 1.8893494495626346 3.3421893327856766 -0.06770203133266404 -1.1334605442402415 -0.07833431423552961
P 2.009989855934644 3.353240701790601 1.775973782516795 -0.5732760436584385 -1.4479563402668352 -1.0601774192753741
P 5.140433724505844 1.1630297769612987 8.035349771505633 -1.5843199386319553 0.8852745271844754 0.8881654755790253
P 8.327754168266193 1.6724417192943746 11.915082629011337 1.145382492488808 -0.97444835523767 0.46488476213652835
P 6.752069775270783 7.946269149515862 1.1238849368674129 -1.3286437838467313 0.14659916005019913 -0.23738172735141053
P 1.8126822217749619 3.3730948732191046 5.808224424926653 0.5278022275963555 -0.02613886317889692 0.09870053659670744
P 6.7863154987493814 4.176208811268077 5.9365578690212795 1.1811714771629593 0.4301111061007689 0.4645816290738128
P 2.4173633349617223 8.635856790150752 10.322478634532567 -0.7377281727296585 0.37791334105129104 -2.3756149888444766
