# total energy = -340854.6852441307 ev
CRYSTAL
PRIMVEC
9.43910439759590 0.00000000000000 0.00000000000000

0.00000000000000 9.43910439759590 0.00000000000000

0.00000000000000 0.00000000000000 13.81508340517207

PRIMCOORD
 96 1
Ni 3.6778809013596656 1.7837452885167742 1.3696366820434365 -1.3359233482272799 1.9547112602745884 -1.0125868139806045
Ni 3.8818221880112334 4.196682388827504 0.7740924452067532 0.08234317828460658 0.6803550341268283 -0.21286265916412372
Ni 0.21689740115947984 7.791905054178294 3.53581860659799 1.9213920772971684 1.3115068670561285 -1.2893406153717342
Ni 1.9319958600316092 4.947157251264153 8.521446815096512 -0.2960686996696578 1.0944689934683924 1.5761101491276532
Ni 3.636226134258241 8.854814267636273 6.837568193565866 1.394471480974818 -1.9903230959409273 0.5359767929873479
Ni 4.358053315264383 1.1806714782115193 8.19040987739866 -3.645988576195405 1.6739452524002718 2.643184038412545
Ni 7.545572750292985 7.533452940422551 4.111645498544991 0.10924103111671508 0.4280951041120046 -0.10983521305728827
Ni 3.6849319122422317 8.01313877983503 2.6947981926324225 -1.7030059172116543 6.799354300909064 2.97042299303742
Ni 7.092401354748146 5.1806523733552305 4.859151762691724 -0.5461568188441432 0.3605306267984694 0.5908981276155759
Ni 0.7060619890703167 5.425313955786438 2.974456198019722 -0.294763350594673 0.8301187079479381 0.10827275366617484
Ni 2.482361712146438 0.32335445074026203 13.061138701465843 -0.5306178426682797 -0.897914584545989 0.6375695635301858
Ni 8.320457136347192 1.5096903354184854 10.85496706780141 -0.695140419966119 0.7885377991823581 1.235474718591214
Ni 0.5699463299927331 0.9206128289106454 0.9692770748358895 -0.12466636453284982 4.313898185470029 -1.4631358762207511
Ni 6.517588222598719 6.406263426950816 2.0305268937648804 -0.05568829470123957 0.3330465624455877 0.41979738287958673
Ni 2.0681926954058327 0.8624056485780729 6.775897805880129 -1.4607398651847487 0.7078236718607422 1.8248646370923798
Ni 5.889708446296967 4.084998907217704 2.9759211470009457 -0.30601372669751165 -1.1890313395270102 -1.2067536965074377
Ni 3.6566145994608417 6.498379645428676 12.243493285290885 0.487541837414412 -2.495024475853761 0.502915748767321
Ni 5.494681932996582 3.052747904397708 6.891529664802081 -0.9296270851579215 -0.48371243636599276 -1.3884921234629313
Ni -0.2891235391396922 6.96572857557273 12.094234617441034 2.0025355788467185 -0.9866364126634297 0.6326497576310652
Ni 5.3381249497325385 9.014155786657154 5.382080026542238 0.4190939290546589 0.6309841970031843 -0.4033153260641635
Ni 4.671252233730813 4.641981571419117 4.887652194095767 -0.5379233751907575 -0.385759062347955 -0.14742936926097835
Ni 7.552689834905374 8.069877235544674 8.811978668591866 -1.0682799937778504 1.7859803013223563 -1.4137264725496879
Ni 4.6091901232182675 6.574553216810615 6.222866350722146 0.257465385475163 0.2320898828248519 0.8875604950051746
Ni 4.050612250396837 8.566704488294157 11.526352619550064 -0.516917976583684 0.5158010893704215 -0.5616356312060328
P 6.6259868959258785 5.591074065704432 6.998900419675276 0.7862083797182331 0.9110560070239534 -0.5873880575797884
P 9.239108519392513 5.111303274353608 9.634859955900101 0.7496956295041799 -2.271603581557817 -0.23576064680821976
P 1.6399688524213987 1.5336562211358016 8.908463304521469 -0.5043311410576088 -0.05392966013892002 0.493422207454589
P 3.877923837951662 4.2448595769729085 7.863407212861728 -0.5996666178368254 0.3157232406757917 -0.19372825232751797
P 4.433754931433298 2.396154372935627 3.869135087974745 -0.4219720219334023 2.9383384537980493 0.5150958357732807
P 9.02652101323836 9.47299064475827 5.222529903317202 0.7650124623669082 -1.4608391097667746 -0.9245913225062271
P 1.7936374697817394 0.12780735950752392 2.983422403156736 0.19250517855369428 -0.8984061794704269 -0.013876500871776101
P 5.600749147571406 7.19925201497659 4.35912842923965 -2.0307729764258573 -1.481594854256887 -0.9516604108088771
Ni 8.753164553855346 4.101791073697068 0.9413580922542915 -0.4263395548734787 -0.5381974547877505 2.707379856364163
Ni 0.8978060651965142 8.344592925941196 1.1091230679172082 2.4300791813306275 -2.264577013728339 1.1324439300502689
Ni 3.29120799532979 6.972194361991148 8.434895892490621 0.031537151376332784 0.2492237142916611 -0.8408245244012165
Ni 0.8060136079947877 2.142563397874022 5.370889968441459 -1.232151310644936 -0.8835112646364655 -1.8875597021287556
Ni 1.879070802443192 8.214909072506693 5.470649029639016 -0.8628393381094109 0.3575180652243907 -1.2415283809844617
Ni 1.9920380022324158 6.143771376571595 6.469410090542889 0.18945816419725436 -0.9376185880038305 -0.42969304472674386
Ni 7.27626566663771 8.757440468085337 2.2027320240719193 -0.21263434520340155 0.8763556274282907 -1.0444327548466077
Ni 2.8639752582927045 9.172912081213884 9.235065751037755 -0.4998502224681198 0.018369246535807075 0.37849929546174815
Ni 3.0415248094320173 0.8994824501131724 4.682636737379358 0.37256647491708095 -0.5536166175562982 -1.0738965686336797
Ni 8.927344344773674 5.968591040601658 7.68549614402924 -0.35288493732775356 -0.20708667591229496 -0.28406653300245915
Ni 7.437089125027482 4.034716798822217 10.840363829600047 0.89366146569659 0.10370570312078269 0.3719177855894885
Ni -0.3887098647292832 2.444123900787301 12.894156227546118 0.7147121714504594 0.4944084826272581 0.5421474405744341
Ni 8.591774749209947 6.965228303046926 1.0425537851202913 -0.7157575819958383 -1.1968168970097004 0.14943637238867813
Ni 7.498358350782149 8.339278710242555 11.257704385372167 0.9796862065978419 3.5392865094504593 0.1730180163633601
Ni 9.20686453923877 0.8107133380060723 3.0583972082975954 -0.48441383330839155 -0.23642399142383153 1.7736649742901132
Ni 7.683808432187469 2.803527234608698 4.359321930876989 1.1029307510825006 2.4341073286534143 -0.5314711918075105
Ni 0.622132305717556 9.341022528092733 10.181702190394498 -1.0646930477575405 0.18361738914576117 0.6364326217122652
Ni 1.098456880102885 4.558077373647859 11.331103804011954 -0.7827641299233745 -0.49766349922944614 -0.11935317985005252
Ni 7.869588882241906 6.523374393510382 10.197852497784151 -1.1301978143285698 -3.191466645350439 0.2827879234003517
Ni 5.762771372202257 2.439885742974353 9.701973875012847 0.5312768164085172 -0.9177123359982067 1.0852137934187116
Ni 7.800475760846794 7.820760395902529 6.394863820735454 -0.4537004633849348 0.5741741299926757 0.6378022483662822
Ni 4.870332381688243 0.6401166310650166 2.837852537251872 2.288643567759239 -1.232890759914122 2.8670682454981526
Ni 3.21153251626722 3.0099510056807683 9.78020894676527 0.6884128714342983 -0.6200618936637257 -1.8395384370544705
Ni 6.06379384617269 8.059447025336864 12.956544931066075 -1.6540312870851641 -1.3267450241621217 1.711299267568698
P 0.8024267483758116 4.199061043101141 5.593561269677064 0.0460847101732045 1.9283242856406273 0.1310565843299098
P 3.200488764282478 4.345829675247084 11.32686281446773 1.335196240253268 4.0557565998634475 -0.7777980441673508
P 5.847430698314352 0.9713499021314872 7.08880977557704 3.1913226635734073 -1.5694862160532326 -3.007407283571253
P 8.82274963046348 8.604838469506428 13.429490306126159 -1.4546093268069789 1.0994978141415517 0.20560083539538784
P 2.7065404383324387 6.369252699145539 3.7074016999342643 -2.1116845644702598 -0.9160663157543513 1.6904123968173597
P 8.079240826971054 0.72862711171538 8.990565577289404 0.1250959958711007 -0.7000921075444394 -1.4331902377012542
P 1.8223889813591103 2.888318708180439 1.1346190324351453 0.23755321993226833 0.5462902590982139 -0.8157377566359179
P 1.3880297206053749 7.491137436022894 9.39143867176872 1.22038671390984 -1.5009164374036346 -0.006031036685428323
Ni 4.162673296177055 6.216358088334557 2.177339889700847 2.379625652665766 -5.996299539057453 -2.353174400452773
Ni 8.557680704621152 3.0314438460818427 8.951220559000514 -0.10133797421955451 -0.030529793157740966 -0.6818151636121225
Ni 7.668366057617352 3.5507833624925285 6.607616511214165 1.6105151089700844 1.7146630418346085 0.6484579283079155
Ni 7.424402968901419 1.9708472131676757 1.88551015936968 0.7298001761318335 0.3879306160779771 1.129094811072378
Ni 4.800766183288628 1.07940876770527 12.713648461131575 0.9085211564172418 0.8634512606617968 0.5668791389931592
Ni 5.840728934289423 2.7852248114476597 0.418089076739975 -0.7030918136027117 0.5169015215234517 0.6533695066769198
Ni 2.8932364815001406 4.234873004665339 2.9482626836969366 0.1701887744446811 -1.108986213247961 0.5264400571415062
Ni 1.3354916662916367 6.095405406340981 0.4806155911821353 0.22579685072728853 -1.202239610687168 -0.5163747024857043
Ni 5.393513613532938 3.8478980472991284 12.02431728436293 -0.5603768190982671 0.40718149388778907 0.13757330240250498
Ni 9.26638753070525 6.348288448583051 5.264237529402485 0.965476490756363 -1.7871666083209736 0.420577712689037
Ni 7.185367092609448 5.706957948710139 13.133391268937984 0.1900790856107049 -0.10219877955795302 -0.780765611436107
Ni 4.457116714477944 5.5899319340889155 9.909131064485955 -0.09214113821163486 -0.1099182596893978 1.4687416524433028
Ni 3.1981950619471857 7.7226220289064935 0.5015666269986595 0.6231346190517785 0.22807870478292974 -1.3197179421120109
Ni 7.894980072702552 1.2733162865279657 6.497703805563627 -0.012034562567030886 -0.4146945144353825 1.4454610846488074
Ni 0.2008348774394496 8.417085246661554 7.978970166322579 0.39253237651604656 0.6702539411370844 -1.718387284763731
Ni 0.6119975394730967 3.0677655192761053 2.806216435412504 -0.7338715179877296 -0.20686710370232114 0.8709380559571451
Ni 5.15944270608197 8.480506588187605 9.203028487267318 0.2829056799251386 -0.09727460278345827 0.003411339674394125
Ni 7.052285161641178 0.5339285959556576 13.887198135178576 0.5810860266211605 -0.06575493490862225 -0.41717794297886857
Ni 1.1036011919248372 3.0947519183567693 7.509201993756568 -0.7533818201065154 -0.2756909073442542 -0.06934213803924831
Ni 3.117113156349807 3.011461262362442 12.705911227369272 -0.6145751595175416 -2.725372693397158 2.981100527355924
Ni 3.1672631172856476 3.0355309782266233 6.0366668044385445 -0.41722113751197826 0.12273675161030474 -0.06267243932855658
Ni 1.8766166353354714 1.6295197640050658 11.26684993349013 -0.5292736699355595 0.23609926109456114 -0.8776303803756562
Ni 7.084463068065097 0.8269872976615369 4.138087261309828 -0.7716235399255227 -2.5768122958555297 -0.08454532814224795
Ni 5.9297585656741125 4.432622238922043 8.612129233637209 1.4204499073164503 0.9038589750548821 1.085400455508221
P 6.905592042329319 2.2334619719022832 12.526454033258922 0.4798151581941155 0.690507549179798 -1.7424294133145994
P 4.88351881034011 9.560963096465787 0.874162996844906 0.7413912234035426 -2.4067975850948677 -1.9475515093013558
P 7.90859126104614 5.005368207238429 2.9088213865445915 1.2343346914495 -0.49203921106413323 -0.7049635767041278
P 5.715896780444797 7.19518376104033 10.944101473243391 -0.8301138228519317 -0.5096173291572127 -0.813142999325548
P 1.8707643906939844 7.698816607961605 11.95750730440737 0.21671082926562035 0.9796617811178098 1.0255436312515886
P 4.200986620370276 1.0752366836221452 10.693329958624386 -0.49625633446927436 0.7575236101890309 -1.785735275191086
P 9.163331390389514 4.8500949421538095 12.973247426054964 0.7031316657017116 0.5661481743644056 -1.6477966190293623
P 5.324343857512263 5.86757374680618 0.26092515907198444 -1.7434902504789458 -0.11801209244112579 -0.041515088524651085
