# total energy = -340862.827675776 ev
CRYSTAL
PRIMVEC
9.31639070679124 0.00000000000000 0.00000000000000

0.00000000000000 9.31639070679124 0.00000000000000

0.00000000000000 0.00000000000000 13.63547951459315

PRIMCOORD
 96 1
Ni 3.75105839226468 2.0126478346276127 13.234392304077483 0.24588307995420233 2.0393375781664167 1.8780854440897332
Ni 3.3820547889543966 7.134268413667331 12.189900065656781 -1.254205462231498 0.7845150511762102 -1.1274395348571422
Ni 4.365940179238996 0.9368841991439113 4.334269109014463 1.3597921844250773 -0.44891358351925265 -1.7783605799935696
Ni 1.6500818572991358 2.837930989435686 13.77183438817774 -0.8950802004209876 0.5614443411308331 0.48244668227969173
Ni 3.760328201022854 2.2626811285490778 5.968685455331822 -0.9345558899181067 2.09971839324732 0.7775255072322544
Ni 8.994285819264638 2.4806939875943197 7.496145909722212 -1.555798948374127 1.0173191864592672 -0.460627015301439
Ni 0.7059960881350557 8.244856717631487 1.5690208733554265 -1.5235107777643826 1.5764497918552594 -0.33306661705024576
Ni 0.9824972480685515 8.80895485883615 4.050664201163271 -0.9098535020754203 -0.7127933571611919 -0.979124677667417
Ni 3.893869345484821 0.5268009026293164 7.56343726819398 0.17545156550551722 -0.8934123258002614 0.21894383236119713
Ni -0.026387745051909894 4.1146025906178885 11.680601866257595 3.122793508353757 -0.3657957318521507 2.2769069960486013
Ni 8.947023769184021 0.6270368819359129 5.486371249990096 1.4732760499785467 0.5380688996296862 1.6461973928630422
Ni 2.2886552258533865 1.033867826453042 11.972441531858887 0.38628768115791534 -1.1315954660070446 -1.3493023406373472
Ni 5.351493203460995 6.098826117184007 2.5019334951389265 -0.046255945643746146 0.19038530399721407 -1.4678353385789495
Ni 8.003990752170365 0.3518027511392126 0.5780941549708997 -0.13697732068971893 0.6409976153751283 0.48796915475981767
Ni 4.712146574477671 1.7180356111505095 11.208596247238404 1.4433980314721917 -0.5012954395550786 -1.5648026945346343
Ni 7.25393745235953 5.815412195342406 12.302815652722046 -0.0732926380465641 -0.5045208884709117 -0.1675837327216662
Ni 1.3686150611162868 1.29784775726997 2.7964460332354135 0.5490629367473447 1.0688677479605204 -0.632535343540388
Ni 1.5194101611763822 2.3061420912193076 5.564939167779347 -2.4851486115009456 0.9250407513388198 -1.367987061531044
Ni 4.5570100363459085 4.7122490547755005 6.926701091888084 -2.8056263361425873 -0.5148317834786166 -0.5953836741907552
Ni 7.547599403984036 2.850573331631506 5.623039906813992 0.16800950740517517 -0.48631027900015605 0.08812456085307403
Ni 7.86975087840502 7.69145379296389 6.535676335852479 -0.4106846219450411 0.12458100390789513 -0.4071100172199053
Ni 7.329493381031677 3.9177565712697016 10.895102494705833 -2.2845575706153234 -1.5885182929840191 -1.1618095276965796
Ni 3.458533040307005 3.757682346060722 11.216572940965786 -1.6581118849124412 -0.31895743134237325 0.31184858821173383
Ni 3.4758894762029615 8.449919793587421 2.983538723147488 0.3463185969641455 1.7163645979067474 0.6876981047554607
P 3.7394874350007092 2.90669526927898 8.194295733599846 0.15273509774460794 -1.0436624523394864 0.2494949656751768
P 4.299989449390645 5.831743828260072 4.59957476222967 0.8809681864996377 0.2257865663146434 0.34763423045177544
P 3.6709094829716493 9.011875164928387 10.627383896296287 0.6208005716019631 -0.5370761966991138 -0.23958927652569062
P 8.507970224112224 5.876620882318485 10.439241249151 -0.07755681263955676 0.7046488736771865 0.35523826805127856
P 1.210301633751824 8.554188838433127 12.774085276875011 0.09513518784295229 1.0960646200902866 1.1424105543446776
P 3.69361352713614 3.7889015713357357 1.1240598049333201 -0.9794074990151583 -0.3936022125414576 -0.28784322643607196
P 2.0374014847486848 5.27045923705035 11.9670827439215 1.8768497719104191 -1.2748773887585527 -0.1080027878342398
P 2.8878947928227046 2.5516103536920243 3.9376125947936162 0.09457520157442423 0.17453496722851877 -0.26043320985423535
Ni 9.392785115568264 5.11237871945368 6.847506181003934 -0.38643629092063775 -0.8754233454220084 -1.5781693456495272
Ni 1.3556932271991144 1.0917598783357452 7.395611805912839 0.5905242892159249 -2.4784562870824343 0.9561667833196629
Ni 2.5203259136820275 0.07541245625518635 5.561053301213484 0.656612953314882 -0.29052540125392545 0.31349306579369235
Ni 2.4904202994973677 7.82618743543696 8.430271525576378 -0.3645430903919722 1.9823141095935215 1.6523299881233413
Ni 5.61528680646369 2.144903317171361 7.133892031482577 1.4757175695405036 0.8238976667388908 0.7476212634736543
Ni 3.09382429311483 5.4316700619261615 2.7249008107646673 0.24449802668121765 -0.9694203058954595 0.4515847025935126
Ni 4.1150963593256105 5.763957769441509 0.23053781471809456 1.9209873856595823 -1.122380632276996 0.23228451533416122
Ni 7.452162297533053 9.228127226129113 11.329965527235492 -0.12974120795259592 -0.3374017540904899 0.41777238202975797
Ni 7.927074630454307 2.780681768512092 13.346325943561729 -1.426329506025679 0.3782049041497809 -2.786688875808136
Ni 5.269797773309818 3.935653357826939 4.688546293526711 0.32971595541045795 -0.585021871340457 -0.3021100207677313
Ni 2.261339568286588 4.671219670081032 5.153461207575205 0.7432285337225975 0.9842982514485564 0.8332317996556231
Ni 9.32654557760785 4.147647828472403 9.382355416166481 -0.4303381345099105 -1.1133468042095018 -1.0507746379042355
Ni 8.267458281498149 1.0695402864882642 3.1972884018030414 0.14249593651510295 -0.14236815268798708 -0.8996986730296055
Ni 1.820003507490417 5.419037036121054 0.6577083034370772 -0.4171005527737139 -2.263361396153683 -2.669728878780609
Ni 5.560925666660733 7.318555938336103 10.839047635071482 0.06396570421868339 1.0952284973422364 0.28735625949732446
Ni 0.7481508928275008 8.257769235157948 10.585059533292888 -0.10974162490221745 0.1610940112322645 -0.5596548533305781
Ni 7.3940746014454035 0.5168006888393433 7.402701579244467 0.2789721491986873 0.5246130312350965 1.9500876454596479
Ni 5.579884521759108 9.42529931915221 9.344639871648177 -0.9758701752858612 0.4132822074688882 0.048663012423342
Ni 6.4664881602318 8.626875318766059 2.592649986416275 -0.03435405199983761 0.23979110812385157 -0.8882994300537281
Ni 4.9439383753855655 8.954914752116858 12.52928779453354 0.6330408224218969 0.7559428959654724 1.2072288363716435
Ni 5.3847340855204555 6.860776447933724 8.307961290117404 -0.08865163700113765 0.02902775469091775 -0.2562474539076619
Ni 2.7963798868613607 7.412698066478155 1.2227017497891393 -0.3852656676513042 -0.5602744891924479 -2.0155962686854187
Ni 9.140422723968866 1.1041972599359076 9.48366650696121 0.3771021580039054 -0.122423334134944 0.1491995737875237
Ni 0.05370899245313534 1.248098230869321 12.190895987823865 -0.5400507059464055 -0.09107387328938508 -0.2129657604008913
P 6.268878196845252 1.9113227692468147 3.5779225872778513 -1.3722283533059012 -0.33360809137601255 1.0911538130522302
P 2.5193011107037373 5.82920976998648 7.607574600829882 -0.3910442220062943 -0.7171716887345455 -0.33960724638224093
P 8.903739817937314 6.539249171690428 0.6791574297726979 -0.44475816658998235 -0.36037944593258575 0.3982019160969981
P 2.219685985414434 7.159748742263919 4.152440179854517 -0.0632365393621427 -1.5052482320097689 0.5318733123419356
P 5.679681699063181 8.494917960725088 6.806531763014665 -0.16185634331958576 0.18632476077459523 -0.22756319859909196
P 8.289556760266377 8.10029428295754 3.726903786066372 -1.3257528354521813 0.48319950128531625 -0.3020575702632411
P 7.145531930037816 1.5140718692985595 10.026822333484972 -1.389503595446581 1.5312621395750274 -0.5304514922937444
P 6.609727667424681 4.918225137021185 0.6324962868929879 0.5893135567372755 0.4135604008309393 2.0955280093150552
Ni 4.722254858399901 1.2811900506773932 1.723960835643171 -1.6630525167471681 -1.562994951901934 0.627046809621991
Ni 5.576251129381532 3.8775563453485784 12.77033542961354 -0.362491350069266 -0.7964262007914994 0.09399516070123813
Ni 2.4418539547171085 0.47730105549974167 0.8510178208710905 -0.047386716814079674 -0.3162688287666166 -0.6484664129483477
Ni 0.8959899021147634 6.066777733135649 2.488352060759363 -1.9181897683097868 0.8018129190247094 2.151784003594307
Ni 7.208361668997736 7.801806440944357 9.309760236462523 1.9394700178448014 0.29244498687414155 0.00350158539535526
Ni 3.6722883087969853 7.36888308096088 6.52265388491562 0.5224700167501648 -0.2644567291913316 -1.7724503851567215
Ni 7.436417597230226 3.697340083420833 3.3323471863119503 -0.07000959641991815 0.8329129828636236 -0.08872079967617623
Ni 5.270235643673268 4.067778410900724 9.699666093973647 -0.10091142820509717 -1.7425947352478697 -0.4027753944002934
Ni 7.1569910906132455 7.915289396203965 13.241782065190028 -0.8450431904682543 -1.4195603056226456 0.6582846845903502
Ni 8.967054009214245 6.564394110221393 8.446429873626807 -0.22505354480336076 -0.34353563490236966 0.7538003957011727
Ni 7.071066019078941 6.076848751495032 3.877629944835201 0.8248404902681343 0.16004782935593728 0.5120542207334794
Ni 6.7772643215937585 0.41168105752165696 5.134343973834731 -1.830519778495628 -0.44194897927596144 -0.8264181191678992
Ni 5.239398390417436 7.85259940310472 4.411841104636629 -0.16473469330864532 -0.19067121066874904 1.2085010182158478
Ni 6.118604814665014 6.297712426098062 6.0507442247207575 -0.3269610183731401 -1.0231933858518574 0.4048204498547802
Ni 3.835874813304289 5.9084922549433205 9.812554663505846 -0.6278415376091445 0.7289745949067445 -0.5181194530909528
Ni 1.6308900924329677 5.911669144176021 9.55135381203823 -1.3157432737349792 -0.6310667294146616 1.6314030081626874
Ni 9.23473254714373 6.512483181175622 4.755482697512364 1.1260529389222609 0.06690113269792348 -0.10003365358583417
Ni 0.4933969837324012 6.524846031650091 12.358353452671892 -1.7191146498480587 1.0126410642573076 -0.686744739703256
Ni 1.6263064282027957 3.6914148589281717 7.732216728884003 2.4795639183243168 -0.1596876178030411 -0.356326873129767
Ni 6.573663918979566 2.4450215275590974 1.5667849395846107 1.7869102693357934 1.1960617640112305 -0.6325826518385557
Ni 8.61848125073479 4.242572533434241 1.360338379607984 0.9545919826333753 1.0906794445189734 0.21775341159752173
Ni 0.7982087917607085 7.59645455687636 6.522694877034751 2.682417787102187 0.7447637394202012 0.29808881542348015
Ni 2.393818644207418 1.175495598052793 9.482794492790592 2.0520100314277627 -1.312531708776217 -0.9466889257362148
Ni 1.160924762979644 3.790997759245875 3.281719124267185 -0.9723444215207899 -0.3461100804977652 -0.6804820466229958
P 0.13680747104550064 8.616878831532372 8.274895556203324 -0.07528215767276712 1.052504990331781 0.051143355643034495
P 5.007625222290965 5.40460594690858 11.467002181492502 0.22719707350892485 0.3699254377498081 0.6303401356612821
P 4.8711959967083605 7.923935006784452 1.0295114821562363 0.9140207460792322 0.509148359940594 -0.11773647018223594
P 5.78466810599369 1.7330629493685332 13.311146320595158 1.6464046237778418 -1.8129755989642777 -0.4730981511852563
P 8.833391751673025 4.453728528915647 4.710376460242442 0.38141312667443344 -0.5476750552608826 0.5302859132501576
P -0.14792192516459698 1.992468532346001 1.150092595499113 1.751748633832996 0.2826156594885455 1.6641832879175016
P 1.3322531881683966 2.5156863511075853 10.496319048485496 -2.0275359575457985 2.184614934081399 1.9127290023055317
P 6.266353454962372 4.781516419717229 8.019448507639272 2.4330187235749263 0.6835300894207003 -0.5049222376743885
