# total energy = -340890.0233152709 ev
CRYSTAL
PRIMVEC
9.11587208901048 0.00000000000000 0.00000000000000

0.00000000000000 9.11587208901048 0.00000000000000

0.00000000000000 0.00000000000000 13.34200024873686

PRIMCOORD
 96 1
Ni 6.514776601266313 1.8682888993174815 11.371734296209068 0.5607653127859376 -0.590616334709099 0.4308263870002387
Ni 4.765841817161707 0.3288760574940428 6.136212658964294 0.005951846708060717 -0.7024464667092288 -1.0978224833216577
Ni 2.8307244584670315 1.5649126712349548 4.7959287534834125 0.4739247608516096 -1.2617578206574591 1.8544261527995807
Ni 3.7956213031208565 4.529020572289232 5.194213973785243 -0.8567463378377954 1.610424606138807 1.2686463202471765
Ni 5.001177174859378 4.492256259553149 2.614485029933641 0.8619201687292511 0.3027638523016463 -0.24263063445517571
Ni 7.3107836809656614 6.479972201061411 2.6722559586551013 0.41603843005778673 -1.0115938539397158 0.22806379238459432
Ni 5.174834540994358 4.932005936317005 11.541884786294068 -0.2725366779859887 -0.8111959029015062 0.27723356924102577
Ni 5.429294998647473 7.621944863939489 12.367927753430589 1.0592531076888918 0.6542997318006731 0.6113065160685988
Ni 1.7803025004757584 6.545916420831515 0.47829887728414916 0.3367738906985039 1.2174618269535615 0.3585915007942276
Ni 2.818117207161799 1.541940673195052 0.42833842789625565 0.3844236313659831 0.3558404204116517 0.03881054510929445
Ni 0.8205880291892687 0.1375484846128137 4.700573995111668 -0.6696235066419371 -0.6231600729730752 -0.5768449919566194
Ni 8.67626841524865 2.119631728665181 1.2656686680379392 0.2868335542246351 0.7108377760967176 0.20660639384176677
Ni 6.850951737661367 0.860242985012039 4.681801679411838 0.24015723321401866 -0.3481047423302908 0.8081272912785114
Ni 0.6742782797684587 7.754052084413406 2.433113812710818 1.0886963526506734 -0.32852013533014385 0.017305324047666968
Ni 7.444987552054332 4.14118578792111 3.706273904553991 0.5763708805336784 0.005068672772159013 -0.16485039295090317
Ni 7.682146084199615 3.7605343108765763 12.550646296570198 0.41388590249115814 -0.0770292222708609 -0.0998531621439119
Ni 8.090008439874747 8.944466492364516 6.794093307750936 0.21040288476972152 0.4540030822270181 0.8081882264234339
Ni 6.767787635233576 0.6930779430850029 0.39874283708818076 -0.2246218565825809 0.27097267593297847 -0.7896210049442078
Ni 1.7312226443460612 6.478896528137321 9.50544177291172 0.955761063240812 0.3871322885463978 -2.053444192771128
Ni -0.004643625318066081 5.062609037871643 1.4838443078346928 -0.7047103230427412 -1.3583909332021766 -0.49445604803574195
Ni 6.580511155974939 2.0413263861402737 6.993609668663612 0.5490233417586609 -0.4184825207229051 -0.31626188678808115
Ni 3.4723086624537 4.300786479065007 0.5565285580694803 -0.4985176196996253 -0.3927043833175366 0.23540429191006557
Ni 5.972509825313272 5.8182328035564 4.709766440676525 -0.04786391356081434 0.33663916489285245 0.7009128036735219
Ni 5.0200926097533465 2.74746919731686 9.584906654385307 0.3497736453922815 -0.714873379618672 -0.24221745817715704
P 0.24138100416595087 5.279220393992346 12.589271158830066 -0.5104493381402048 1.2047747184041961 1.2794112720731645
P 3.8833524575399143 6.161737101230852 12.988784287122362 0.9138423115198391 0.7650230038898695 -0.22999417663808774
P 2.5501287951074083 8.692285002770914 1.5635088269102941 -0.9081144078971264 -0.02478440603353151 -1.6817850601596647
P 6.602899738191606 7.908848710887846 5.624573390556677 -0.9092552063697887 -0.9022785179416397 0.3902134985748828
P 4.881704553307408 1.0977515666512634 12.532327951307822 -1.3862742898760059 -0.9180445225266448 1.2980201454236031
P 4.271588340286511 6.011179355347108 8.096379522981925 -1.6004605529475597 -0.47952153821309673 -0.2654905697724847
P 4.847374178458885 1.399468705986464 3.6300652126438377 -1.1589311777075202 -1.2729966267960722 0.4405616120101316
P 0.24162348636748315 5.88001106971371 3.4945769151568244 -0.5276965552564268 -0.6446362405689801 0.764366087032161
Ni 1.6167728683972593 1.3912461892277368 2.622276365935508 -0.4525146706069498 -2.086938982094464 0.8644395927169951
Ni 1.7964467102093569 6.348913305894871 4.933377875088832 1.1579274190333542 0.6228433130636047 -0.20848227070824096
Ni 6.059201770297191 5.430653263610944 9.335557466296072 -0.12914908289455176 1.6296502871376384 0.10933333372020525
Ni 8.559585250601524 2.3522596723081497 10.11043486573483 0.9540325105854796 0.3979046965715535 0.7842669397211461
Ni 2.241866459505283 5.344034245604929 7.1031478126505485 0.7448835528275172 -0.6442688299272324 0.7943466925546513
Ni 0.6462478842236581 9.113356257318992 9.162872763728894 -0.5793505319872926 -0.16204069141624997 0.06698160822687174
Ni 1.3753116445556137 1.287744575836841 11.313535833079643 0.1338112642569115 -0.6399786871923107 -0.2069552925407533
Ni 4.339164301187226 7.083251509903766 1.6706722861792174 0.10975602307992066 -0.7602569499597939 -1.239719609910497
Ni 5.663472640570912 7.598362102459636 8.08131645569576 0.5900072403701903 1.5098322518360254 -0.497896955396491
Ni 5.44483756081336 2.9998238884829833 4.880090132334048 -0.47728287869056507 -0.4527170164257429 -0.376947377593596
Ni 0.8373120083972074 7.376563815035478 7.244866808812273 0.14950579217403281 0.38645120331897315 -0.37394715731469147
Ni 5.172747006251843 4.100802473906518 7.463514650790958 0.2221073176908433 0.661673655667241 -0.44052715922777036
Ni 8.103445235553643 7.076915978698317 9.023275031036963 0.327292690680946 0.6839689767303317 0.9587196316485037
Ni 4.586505262622417 0.22560872201966517 10.573882163968735 0.9176444588747487 0.12387035099411571 -1.1326084806525913
Ni 8.684144528862332 7.237318866599162 5.120699933708659 -1.3794089302147403 -0.2282108594854199 -0.5260610765355327
Ni 7.358733168937839 5.9146058048571355 7.102307329230199 -0.7333896932553047 0.6289566250501942 -1.4514802942596938
Ni 2.31079156949723 5.429194724052855 2.6299218479815663 -0.47349898616810066 -0.42422610807490163 -0.5563191040891258
Ni 2.2629514719919084 5.4170706139762395 11.839157937913214 0.26077362391278963 -1.8733217041525028 -1.4105650441025708
Ni 0.7790397067026538 3.6268773921221893 3.763551664587373 0.29704417620904966 -0.1995461445608757 -0.9772747689428717
Ni 3.1894157992900865 3.2464902753725595 3.463970374117549 0.22938791051265656 -0.2246311125539615 -1.8190919962746606
Ni 1.107842837218792 3.3267464145564105 8.402071182612918 0.668533616011868 -0.16435982646772984 -0.14853082985527324
Ni 3.6134405964432936 2.4013851077990376 7.116916426078909 -0.9140533990893807 0.3842464823581705 -0.4345711987546516
Ni 3.976370817857045 6.9749640635878905 6.021818489836144 0.2987241350146339 0.3860825071256448 0.02929772052285277
Ni 0.8000207982457651 7.440557238146636 11.403834928708159 0.6679234932316949 -0.016936370744022447 0.30614562428968567
P 0.1888909002319966 5.373022719321949 8.044412670114435 0.8028215627948818 1.4216593542435194 0.38296735853543074
P 8.586796129232123 1.7570934897576662 7.981264288359745 -0.08489936904755702 -0.816142191163188 -0.04069747771936217
P 1.8789544698360081 3.339317202372691 10.577044460048118 -0.8734219987212635 -0.4470708738835591 -0.6040943145908757
P 3.9980574779113818 6.217808831367139 3.634788146050375 0.8101301806411532 -0.08732597621117864 1.9876972282823056
P 6.832765572546444 3.7589846125961066 10.3369551749783 0.15527457633700997 0.16698492279540272 0.8406283492300104
P 6.26330614970728 7.892203128181155 10.209979278987184 0.8303894451108215 -1.0746671282511169 0.4395737941755655
P 2.480109780446895 8.686943101639415 6.001111786047398 0.7042094721469226 -1.0667003079955564 -0.35690999932674655
P 6.849128563213756 3.8513192824953832 1.452063642451156 1.1872899313558714 1.2247624743800325 0.13533181466649596
Ni 5.440325204055522 2.926550507433484 0.1508339568125575 -0.4412694367104336 0.32838875195860223 0.20844370416082167
Ni 1.2827946572115765 1.1040050550065703 6.893904816059867 0.5324039880344249 0.7006073566179611 1.1322153589792308
Ni 6.943878939256117 0.7343245302005381 9.232597335716116 -0.6762114442721 -0.7945012158546446 -0.6520325330330512
Ni 2.851189591641469 1.3814192789551116 9.274251402320692 -0.0896152864659876 1.0655839350029261 -0.3197004801559849
Ni 6.5976125322935335 2.0550548897307874 2.5948986668429526 -0.10759963885855017 -0.09098928399537878 -0.6628059694994715
Ni 3.804418119830581 6.836038170679907 10.73458678724066 0.9537676869598671 -0.13763320910616295 -0.9141744980482772
Ni 8.402664625895616 7.2568632966775555 0.0716954235650921 -0.031022673633759476 -0.022363198186548583 1.3967268526678978
Ni 7.753003759106029 3.9061512540072942 8.279711564323154 -0.2195390427430348 -1.0692459572355457 0.09755690991056747
Ni 3.1196611449244767 8.64689707489763 12.442509262146249 0.14788188341736466 -0.5155416650614476 0.4345966526759483
Ni 9.425082624371578 5.107996965744927 10.478393402275092 -1.3144502659551685 -2.2488971410992367 -1.1762838100533546
Ni 8.824282832777977 2.3091689442388557 5.5110734884950805 -0.7494428900634255 0.22664608610146125 0.5302743432859319
Ni 3.546448051365815 2.769857779533527 11.781479991088581 0.6282932804345823 0.3447736210745288 -0.2843958913174199
Ni 1.084004831316274 3.1336813564266075 12.831628472912714 -0.07038703436399492 0.7950295775542889 0.40299779482374465
Ni 3.074127363095384 8.22701999961274 8.263982126776387 0.9015362404589764 -0.47885665093558816 -1.6182482159482838
Ni 5.548111277398304 8.114767148873309 3.672345539671168 -0.33843096668595263 0.08604119596148407 0.05941305185099445
Ni 2.9801336044487807 8.20853301071396 3.5966300164490934 0.21728572793248385 0.32657303890610206 0.9979176420042039
Ni 3.4094456075000608 4.3959835328470325 9.485041362430174 -0.09602633219865397 0.9799548868781961 -0.33252308584194984
Ni 7.589875225406005 6.256952386757355 11.468610493657344 -1.1214056699582364 -0.5719568106263827 -1.0468853301521583
Ni 0.8796433843090714 -0.051168302459436044 -0.08931366983958428 -0.28198136833865634 0.0012449281506946301 1.4137388138448619
Ni 4.621355242188508 0.34959278874225047 1.7472282928216412 0.5320540608941741 0.4896329156154857 -0.518429528132204
Ni 6.383416882315916 5.671011466911784 0.15831717633277823 -0.3216663456331041 -0.07265371891098456 1.857786327521065
Ni 7.952057945296235 8.666423273231548 11.449251115785382 -0.4580566834711014 1.1551385434343073 -0.467273316973363
Ni 0.1060212404774946 4.770335942175069 5.808212636792328 -0.8579943513122835 0.10007736233957602 0.24318085053169083
Ni 7.81430799990696 -0.27813893579146687 2.572964966650964 0.06546182914823566 0.9741009992005805 0.6868229012393591
P 8.640032823102374 1.4797704245315053 3.458393283482306 0.23100204907731184 1.2289587718495671 0.4531142518641616
P 1.8745606194172646 3.171858629359589 1.7036662741576396 -0.057288035088191656 2.2703416841262576 -1.385674194398162
P 5.009973991569103 1.0125090453531953 8.10377067219254 -0.8477575040756238 -0.03836291604891458 1.8456059834047893
P 8.499356682724683 1.4151571221081594 12.493062243229616 0.49920667534685 0.893247775197939 -0.5541200395552779
P 6.58276277641774 7.8594589151020555 1.2252315703771435 -2.1106095862385263 -1.2715115576101135 -1.0519308629958657
P 1.8675231660494849 3.406382674428074 5.890893597991503 0.39148259509529354 -0.4937993882883495 -0.32399602220754525
P 6.882191831821187 4.014903609807311 6.0169351170782175 1.4210253202039462 1.042531938279469 -0.15287573708753027
P 2.533218852105813 8.53947563644437 10.274327309528402 -1.8611447024703367 0.5437888328325989 1.042159899652031
