# total energy = -340863.6055635248 ev
CRYSTAL
PRIMVEC
9.34344030677865 0.00000000000000 0.00000000000000

0.00000000000000 9.34344030677865 0.00000000000000

0.00000000000000 0.00000000000000 13.67506933839427

PRIMCOORD
 96 1
Ni 7.054213210144061 6.813432757893091 9.624172201833835 -1.9399137902504395 1.5052081228004528 0.7068389393499698
Ni 6.360920608767489 4.97480257802104 3.3097361420765825 -0.7782307608293952 1.3388060690917136 0.30457159493434643
Ni 0.8031499674390957 7.162671863218538 6.68362154108058 0.8115468584830217 0.5856363649960044 0.0024834285434860454
Ni 4.114402549849412 0.9692884794922654 1.5174811929652026 -0.46698612475024737 -0.8254058758533012 -0.8772251745174375
Ni 7.63160978009956 0.44757320667081446 6.1084617906931395 0.33584392268506674 0.19752037238009854 0.5648243133466595
Ni 7.729986861269544 4.9870424845964685 5.377064771762439 -0.2910938721628858 -0.0072623379893681375 -1.6713093574393216
Ni 5.730649511094169 2.5181038332905628 1.6075725114244306 0.41916669127412326 2.1581505692422835 0.7837138954311536
Ni 2.7689752008861603 6.897392910936444 13.12503028053766 -0.5898329195758552 -0.8710686679977386 -0.28561433710555323
Ni 8.454262310130176 0.6461259812365595 13.055971045819874 -2.091302144159166 -0.19128210477987057 2.017857296805454
Ni 0.4953686403318394 0.3495885499864556 1.2912727699470845 -0.6413475425153793 0.6052495112412415 -0.7250690892047512
Ni 5.69909671376194 5.789522527377963 6.653645916442956 -0.42636757989793667 -2.1101712131495267 3.7413950154218725
Ni 2.4865043187576648 4.266943553475697 12.703195448403738 1.228868011907974 0.8544629411202573 0.11917783061445282
Ni 4.427912340102772 5.498857448252024 4.898395661981943 -0.7021237932624875 0.579171326096951 -1.3778451852720466
Ni 6.37519738529211 1.0315625079848039 11.849160171651334 1.3350666566539393 -2.1095366648893217 0.7182613222542985
Ni 7.776031334249474 2.5240462612157324 7.840176853800835 -0.3505298068320157 0.46367300121661437 0.8701806089658305
Ni 2.2257382480602517 1.6736717443077938 9.898261083818197 -0.05163392212620785 0.21127371741044906 0.0029254011769110906
Ni 8.050896656108963 4.94641720689421 8.95674598012399 1.960124975090992 -1.4918692395997017 -0.4484430716407374
Ni 6.399032501073725 0.4469827012543511 1.066788211633674 1.2032184296606696 -1.7863361419998784 -0.7803519209374561
Ni 3.614248199480982 0.5171239063396454 3.5216444299697445 -0.18581979611371868 -1.7067358165677315 -0.10696971858403514
Ni 4.674962240683598 7.175892831008026 8.552880452055614 0.44621906740622513 -0.24085194528819812 1.7833063540346192
Ni 7.084299087375265 8.006412537631398 12.712918232207091 -0.23250434465445122 -0.7026752948905833 0.5891744600562498
Ni 4.739067583442384 8.641570254494754 6.647533437907349 0.7546411464349133 -0.29496878173725977 -0.8416267085875375
Ni 7.705236088354805 9.241363050451247 8.473360301763897 2.027271648140818 1.7690017644864888 1.1250535511234687
Ni 8.500026479906088 8.755504163487705 10.797219620734461 -0.6247227894745048 -0.17193198238803292 1.0167594573010554
P 6.081962860129345 4.380924179669316 8.769411874127037 -2.076013593431212 -0.4869854506903097 -0.39087067254290747
P 8.533709581588848 2.5549356742984526 5.863732800641577 0.46624333304695187 -0.02566500886627193 -0.9870475320589194
P 3.249190650008818 6.9845204901851945 7.0165544746843205 -1.2408061581064564 -0.5814814622873663 -1.226074765433553
P 0.7374898762420267 0.14423281665920765 9.550695388620733 0.009667090776118834 -0.1338809411525823 -0.9752207146273205
P 7.901784695011826 7.879631398454315 1.0467558759865618 1.4543776704121467 0.5908893858648274 0.33740278253175443
P 7.0167647020873325 1.129976962915323 3.0417046123310376 0.21008201109519303 0.8369629845632811 -0.11590044541476169
P 6.54976087731403 6.807172653003367 5.186570714312194 0.3205872536363124 2.4650788373342643 -2.8316656976291426
P 1.0354400356403783 8.363939274355626 12.693212916964665 0.20170561410603974 0.022073434860271662 0.6240483891152995
Ni 6.833754740184355 7.805304332189026 3.006272418655208 -0.6898604025141022 1.2455292746137387 1.106646766481507
Ni 4.806770150652727 1.6793899296697492 13.105666935204138 -1.385686021472704 2.1522318897650035 0.3118295620483404
Ni 2.0410744972535704 2.170013971101587 5.668069952109252 0.9457838974234422 -0.11195277362092333 0.020026322523255834
Ni 2.383717133844474 0.7712991143665955 13.23244807438122 1.4919607708722435 0.22054331563783308 1.8471627863689477
Ni 5.014334673227632 5.483300620429056 10.756289746883837 -0.27415338765380526 1.5750382562197134 0.09751422959809011
Ni 3.864998102354839 3.690331832491446 6.022897368978793 0.05717207833561766 -2.3795436344749215 1.5949609632855695
Ni 4.831091125321306 4.718390550426031 0.30623311907706663 0.7879796126860429 -0.6837951701566288 -1.190228445158905
Ni 5.824934165485498 0.572616465982989 4.815866923967105 1.573397892402813 -0.7445619078220402 -1.730380452569865
Ni 6.100827265759718 6.486178767202744 1.278352660929908 0.4590262464732223 0.3073481292382191 -1.4543748421986693
Ni 0.8325098593718945 3.592141620124141 6.956671432522049 -0.6698294520051562 0.91570379020861 1.2074669205243784
Ni 2.1769187733605495 6.506341911011731 3.5263899632137594 0.17237652612461926 0.13645435830671337 0.37557286584357247
Ni 2.1403765789968108 3.800565739191366 3.5462737381627427 -0.4618670583561272 -1.1395692282411405 -0.5160887958141692
Ni 8.963461110548234 7.089736969533204 3.807890996256355 0.30303870322958776 0.7469615184024684 0.5202946063654006
Ni 0.16839308415748314 2.79126864904568 9.448420224226881 -0.6448036193847798 -0.5272489261960468 0.42026403810336005
Ni 6.339084989174531 3.049773607230686 6.077433160352423 -0.44480701755004687 0.39068169646055295 -0.4054866226838694
Ni 0.7651128226539308 1.0897160793782863 11.846329109290757 0.8181625640273265 1.536987729204895 -3.7063562786501847
Ni 8.805912023010173 5.262374978462654 2.126336191507578 -0.47069751216356354 0.09895507580967473 -0.693564847948883
Ni 5.459063736721683 8.138538124565079 10.998529644483726 -0.2205893383844201 0.06003268771286436 -0.40853980768789644
Ni 7.164372369322911 5.37510358367833 12.560537001407095 -2.5621171557372002 -0.22390888967595632 -0.4514399494855322
Ni 5.337720479702539 1.698469234423202 7.719823067091872 -0.11708109598642416 0.3644225056537079 0.09601656200664108
Ni 3.033469304197005 8.193841946717718 11.21206649399223 -0.5657717648615933 1.33845897016494 -0.2717645757066545
Ni 4.502033850685113 7.683409812201981 4.276248685505062 0.42016067975627636 0.8243170136644964 -0.49606555861470697
Ni 1.2998874217505536 7.516928395895897 1.51953301241861 -0.7764011638198242 -1.3718701986355342 -0.9853359486844514
Ni 9.119776863988621 6.111656312874925 13.009093137979997 1.6306512175983272 2.251113689134581 0.514974479704068
P 4.654472076469924 8.022679466904542 2.01474748598824 -0.15434178011009547 1.4328971319408679 0.9185528296216309
P 5.657555778926558 9.096558415255844 8.702430620495033 -1.1171368673795534 0.02089458406082208 1.030693036663012
P 8.64397151860917 6.063154515139775 10.83032623216096 0.5122696791783953 -0.4128006398467794 0.6939571982912952
P 0.10012430447502521 8.883612071163805 5.3192185995493615 0.4647196973135738 -0.27243640496269855 0.4889767700887256
P 5.181245887779877 6.7256137640744305 12.779844359542304 -0.19096817308387756 -0.5521719146899716 -0.5265449581504866
P 4.0424487173781385 4.653248085812382 3.014901085618878 -0.14061183211851266 0.20914612954448494 -1.8189660122197575
P 0.3739198024391817 5.13547237456383 4.081337983903516 0.7903895076791162 -0.7018417432456945 0.6052022029430738
P 8.296031151462337 2.367366113610124 11.436938805071197 0.4924138207947326 0.37716566425198916 0.09553088061947419
Ni 3.2954219917914256 0.501027027676938 8.021002319400505 -1.048676103503994 0.3707823864334647 0.1636697423792407
Ni 7.038712442961898 2.976969521707226 13.181426350841953 0.19777902535812392 -0.01542584763676698 0.4289798207098032
Ni 0.5962731220580465 4.180544762557392 11.448206993872697 -1.5474940280528575 0.1375362785169825 -0.591084275484453
Ni 3.8075172586509987 4.811320405997943 8.086478344826936 0.09371156802254829 1.2381779764549903 0.0775742961410535
Ni 7.2156678556581 7.497409949456151 7.297467805342492 0.15395431486368968 -1.4264503478742596 -1.5359937407227418
Ni 8.396370355060444 2.693620356206142 1.8066541247017551 -1.1065020133735264 -0.7530560613359806 -0.1040808270720143
Ni 0.8697957915702927 2.715325167637225 0.5257581793673957 0.866454823374811 0.1977916237636142 -0.8405589294446556
Ni 6.533662129963296 3.6706545475694226 10.804535534359317 0.16625395816664915 1.3294158861260654 0.6628496782532133
Ni 2.5660637114979448 9.152796581421875 5.422137526968441 -1.1544268620792635 -1.616852106931706 1.5094381017214005
Ni 0.3430640257409433 1.1263049909426945 7.149695693560558 0.9795712782865325 -1.2565436234463716 0.9801001542068087
Ni 4.4214747098505045 0.8949735596991516 10.39726432236213 0.7037965529792202 0.23608023493116762 -0.23715315628037223
Ni 2.102189939169503 5.1017986163212035 5.488994512846664 -0.5679582309899509 0.9384287426099516 1.333306222319407
Ni 0.46389432789673585 1.7912495949529705 4.025926712189338 -1.2148349308536757 0.9660907273015943 -0.42436083388055307
Ni 3.9578625538458128 3.5053223743998094 10.129451429115718 0.11983757568563876 -0.5991855644353486 0.401928987239598
Ni 3.250629539789441 3.0871940849670128 1.08720456267029 -0.5354859693938584 0.17760383596182963 0.8750610769865834
Ni 7.594077181081627 3.1475527082320984 3.976285949101865 0.5768411353018775 -1.5966483782903211 -0.4294367057415636
Ni 0.0035990931395837727 7.311867915276881 9.096313617124336 -0.9438113470781035 -0.38921411077609097 -0.5232035524820796
Ni 3.5235701129813437 6.276979142604404 1.5279430428831464 -0.4927087263273321 -0.51791376483805 0.8267168813552408
Ni 1.2210007566999155 5.104405436118566 8.955966737216823 0.748930212093065 0.44509652376600767 0.43434082791140033
Ni 6.8928800293517645 1.7432056257843838 9.891573983714354 0.2871199751168023 -1.3769722957487898 -2.516876024511214
Ni 2.1746483174080087 7.8287657103652855 8.934619779542869 1.3392159029356228 -0.42293078630224584 -0.1043399942706719
Ni 1.067749651623454 9.026090189765862 3.4336460421005133 1.2299350197199077 -1.525348859414386 0.1336855373123246
Ni 4.31304408709643 8.807752680716554 13.499904982558528 1.228901950469703 -2.2724484460566154 -0.7867151441513226
Ni 5.025369276025786 3.018986971989438 4.0755394449564095 0.039397013740383756 -0.8103250702607786 -0.9497547091457321
P 3.209957544886512 2.7324703802829573 8.228384644892799 -0.2233087941981122 -0.45072466858606247 -1.1407182542439194
P 6.888376491207216 4.4092721770356125 1.3383310061815437 0.48519544866942244 -1.039856191219519 -1.6315649876618483
P 2.872341679087654 6.100761861678781 10.823024333696306 -0.42890063073243556 -0.9023710776554459 -0.6111651053947281
P 4.090473999666457 1.3849127269691734 5.273503015662146 -1.7743085214113827 2.2867373518754617 3.499568107814915
P 1.079064557625624 4.989658647833964 0.603747874165178 1.0722425779700242 -0.3134796960572537 -0.01923236586705075
P 2.0657785529676396 1.4430102377218523 2.376426447507981 -1.1982266328730333 1.444858418067802 -0.8468470764462125
P 3.1817123253616892 2.4059638648033235 11.829523063521885 -0.6658915504033307 -0.8711833391987318 0.3159055318899269
P 8.815320867225024 5.481955165049773 6.9763365709719 2.085213257652609 0.860098285029164 2.6927155694837692
