# total energy = -340866.01954661316 ev
CRYSTAL
PRIMVEC
9.30843674794180 0.00000000000000 0.00000000000000

0.00000000000000 9.30843674794180 0.00000000000000

0.00000000000000 0.00000000000000 13.62383809182152

PRIMCOORD
 96 1
Ni 9.069889343106473 3.5383415559342453 8.073036761385286 -0.9693642558465436 0.8306254723810276 0.25612558361781695
Ni 0.12093148557062033 4.788176036374039 5.901900694443167 -1.4349403876231417 0.3615115026545 -1.2158507737126996
Ni 8.142815595038032 0.7186736758370957 2.2694862160456535 -0.25173773896276647 -1.0462852346743141 0.3645322917586948
Ni 1.5817919482204719 8.280915561164278 5.942732151804503 -1.2828352101530487 -0.028416089248847833 -0.00584386037528671
Ni 0.7125301076486809 1.5062353679396194 0.46122652005790954 0.46865862735666386 0.21052732616272773 0.47615005063770255
Ni 8.443990062820093 4.027453359661904 3.3850604604769616 0.6509506128227821 -0.08016853923079097 0.6785981993367216
Ni 0.6841626469605082 9.10025346345588 8.968476718345377 0.22472830025345814 -0.34128026320928967 -0.7154027697595808
Ni 2.303875304402138 5.245964950777431 7.159408119212825 1.2466628739975496 -1.5389847050302656 -4.148005210187224
Ni 2.927456783962887 0.1509660872626493 8.492514943071921 -0.32208363567618076 -0.7039371923221425 1.6865896806371599
Ni 4.571363929942892 5.022888266481431 5.444085716417159 0.33489852805266196 -0.6876055450416545 0.48791027649742424
Ni 1.125324831821254 8.396703204642598 13.586440543841059 -2.6401290536363047 -0.06065489467789553 0.13837137282376813
Ni 2.981036145315183 8.927693664854617 12.160719429541611 0.5194921650687634 0.8273000075522203 0.450771719773914
Ni 1.921112389390599 3.6563259904617564 13.454670314636214 1.4878686030807406 -0.621376241599775 -0.4526997900345623
Ni 7.133808987584099 5.2938103151538725 7.405808953220509 1.6166474471200674 -0.24292451154651065 0.12702380902143284
Ni 0.34094662505272716 4.61998189456121 1.2123754696764317 -0.31729804136207934 -0.30081958409108195 2.494967911584213
Ni 7.303687956430417 3.951003169462736 10.8318097797676 0.13105761277117428 0.14103246459569904 -0.49471804344787695
Ni 5.370092953493357 8.180607847833434 1.6903227344871437 1.1223991442197574 1.2392719808501174 -1.6088495483422036
Ni 4.682376345420217 8.024449514607909 10.301501627961962 0.2800610113874919 -0.3267625292090888 -0.5681271524676473
Ni 5.067969025173086 3.1892658731558474 10.078724675326061 0.7954635797679139 -1.9074957789310503 -1.0964960512007504
Ni 0.8621464715972088 0.30624104985017314 11.535372139548526 -0.7570273872789026 -1.3396141668153059 -0.798806785208534
Ni 7.992112005688889 0.9876623622175175 8.357338756897164 1.5422497489347826 0.13114117362391609 1.4175553593774748
Ni 3.7052138997428994 1.8737976059031562 11.743026606004275 -0.5511763835459218 1.199683419924218 -0.8549967021365404
Ni 1.1094818726444633 2.1192331550303267 9.226335307024454 1.7015709845373406 -0.3717172395429082 0.42770841019654726
Ni 1.6250482533289015 6.400229712140778 2.6117853569434972 -1.9303963376783073 1.541039273566449 0.5408302644249073
P 8.589453002335787 5.2024293925695275 9.74105741250482 1.0935950755038715 0.6399254653568721 -1.3534467018230238
P 5.482669186327732 8.467726576275332 3.780233383229098 2.190365463411931 -0.4605653088255681 2.189847386124932
P 5.235297482377547 2.6261333811944403 6.127048505893596 -0.5030368477262175 0.6025004877411946 1.3199822515169912
P 3.328222215453811 2.194789735311179 9.371306761085075 -0.7311170951710442 -0.4434386764476104 -0.2072118886362496
P 6.629301029638807 4.644788878231098 13.18772483010027 -0.6179137369724712 0.06112617788735924 -0.4224728728292208
P 4.8051266995120745 8.276549904375843 7.694688837876421 -1.0906017972035023 0.6390890854985058 0.6755187890804496
P 1.0948117764854606 3.2179265495984675 2.823622103985693 -1.6815354060427041 -1.801649375318181 -1.4198426127497548
P 6.818951117927841 1.6743271169493072 10.201979546684303 -1.5922440785750385 0.6041416228890434 -0.1830473755749041
Ni 6.381752465392288 7.736800205277009 6.420968908995002 1.1929980374842422 -0.8645110693848789 -2.3172504328626546
Ni 2.3825502109604435 7.230570186551632 7.877343636023647 0.735501854502301 1.5998216338119804 1.3489066478608254
Ni 7.154967064087533 5.129078911774515 1.646604730920918 2.8947806238117564 -0.9862106379799209 1.2058427546573942
Ni 4.083890411065478 7.534406867215339 5.459426020014897 -0.27877828802032634 0.924573324784098 1.3265848444351733
Ni 2.9783739324335365 7.55464340849051 0.7254772121839326 1.8196478687781306 -0.5713369176541967 0.07763780238913726
Ni 1.3662364807369551 5.115572370196652 9.043203916920794 0.09501897398006216 0.03849558497203692 3.0892416405402408
Ni 8.568062214916125 3.5344785547248634 13.127507622573493 0.41561394092585846 -0.6130888047800022 -1.6117284125518951
Ni 2.9734870031927523 2.4385311489682104 2.0683578945245977 -0.1564318298699048 0.5350550525040269 -0.31354320230533744
Ni 8.357375059800095 5.999669066256135 13.42960269474015 0.7357060000933072 1.765898957191449 -0.7547270212805002
Ni 0.04136110740667003 6.341921664970733 7.622782095605685 -0.8618954861389027 1.6477187146035752 0.3460357756164041
Ni 8.77365765518509 2.078350501267421 10.802899637222785 -0.024369172872983836 0.3712313010454252 0.4754424830477167
Ni 0.7832490934029893 5.577559389528794 11.42808402957451 -0.9953398539746988 -0.18491913867632023 0.18262160089139517
Ni 3.2051460660792346 5.3561023732097395 1.4804482058905808 -0.7476019801999447 -2.330742039591186 -1.168892145574974
Ni 6.154552143660731 6.3734214145913315 3.5327564939447775 1.2798501593827958 -0.3589666247454592 1.2182539838375535
Ni 6.3140149718966905 3.481401848951619 4.356235719701569 -0.23841865325635714 0.4848267524760941 -0.6713397180020955
Ni 6.453836998803021 0.8048632833022304 6.779985071270988 -1.6566622969501081 -0.7501954519587337 -1.8735708440488312
Ni 7.93981720859417 0.870962491947584 12.921188916776892 1.0857799503348269 -1.1499487717032517 -0.06166276711711961
Ni 6.532120951022065 7.589605896544581 12.860929821285191 -0.548791685363829 0.7415776283827358 2.6718703506036436
Ni 3.0300450642727648 6.082644470546331 11.925558532787731 0.5339062836115643 -0.05450610146768032 2.404822977867
Ni 6.520652957070356 2.9954735305579576 8.029032057970268 -0.3093060242955383 0.04844472576494883 -0.1600779112629243
Ni 0.18791127232297997 1.704225815466259 4.477501378147893 1.46043030436413 0.16674041088476446 -1.2572190522468412
Ni 4.191747266518753 1.2484382149424265 0.3135146622477903 0.5313079267567689 -1.1143500486630358 0.10800664448898173
Ni 6.345114458741379 2.547737727735608 12.416738671138823 -0.8749631179561383 -0.6823926333821474 0.02487722285765393
Ni 7.0240625194910535 6.3115389277480265 11.173808258161676 0.3876169414923002 -0.8657886505457218 -1.5546463228269225
P 4.639911257426962 4.281033790857048 2.7144136635309657 0.26431994650315127 -0.20953153790836174 0.5560133999232489
P 1.3916392043523855 3.3506183140315775 6.538883530247646 1.524293678676994 -0.4255288860467252 0.47003468176858404
P 5.726308207181624 5.391939854308826 9.660377468692294 1.1907398375776848 -0.029946924071077456 -1.0116031099110967
P 1.5492868874417682 5.769620362909949 13.537449310913113 -0.382567809104167 1.5461084605592406 0.41364267613210054
P 6.368636878153687 1.1519097268911216 0.6692095743273726 -0.9281204187054081 -0.710812322175421 0.6632348295067738
P 1.4638261305662592 2.2906200906138006 11.894782048694768 -0.10461535941924564 0.0916351451094938 -0.0670728823890974
P 8.644726499158223 7.601073890496289 2.180535726270392 0.6642038782882626 0.3478455751316332 1.0100655902206477
P 7.269944873577381 5.2316020330278485 5.301198421322274 0.19862234719502567 0.5859567244499004 -1.0564315790796965
Ni 7.721525060735814 8.480953864753722 4.357980120729613 -0.43251148801214545 1.0003169954743159 -0.41943331467194855
Ni 3.8171106167018904 6.340758110389594 3.5748538986903924 -0.5056773706728581 -1.5507415884558777 -0.7083774874816833
Ni 5.391027627517213 0.22482760122969841 11.96013565156453 -0.30587745822996354 0.8493127643778857 1.2000868260102235
Ni 9.050220616466897 6.4794258911514335 4.261141661737893 -1.6475305098521689 0.4386042311734446 -1.249028803126565
Ni 6.846541324155813 7.572422522490318 8.641872532481603 -0.1200463492623352 -0.2000282264036168 1.2371454214254178
Ni 5.355506633264197 6.00402541460792 1.205075793656197 -2.176269133219865 0.5722216342519951 -1.90008148874485
Ni 4.03095333184197 3.792424642708442 7.901363125953018 -0.010682419414510634 -0.9975754281734369 -0.5634598288989651
Ni 5.061118015799339 5.929474145485171 7.701541708937498 -1.9494649242739848 1.325904273428381 0.03679094357610438
Ni 2.3316796046730395 7.5981603498251165 10.396391831163022 -1.7680316872637356 0.6715780592651467 -1.7217364037416218
Ni 8.970233220341065 7.409031533988432 9.987145483041092 0.22698547171875103 -0.7287879328172352 0.969023584677673
Ni 4.027462668098552 2.73856998747908 4.262653351849709 -0.8259126402863906 -0.5680939852368668 0.49932700297479815
Ni 5.1138875431631625 1.024765790700883 8.723834248020712 0.904758604051016 -0.5436152833692122 0.8166307007638323
Ni 7.117370288461765 8.894248451974354 10.669209077537225 1.026985763014754 0.04246099737768816 -1.0065825167680533
Ni 7.518266038065777 2.792167965704674 1.4340726436610334 -0.1530413161311171 0.33821396557914013 0.12009057223670933
Ni 8.05938407735203 2.3187129524208245 6.203628083362187 -0.39341889288605797 2.054842358670235 0.43983321848453927
Ni 0.8573163238199839 1.4144262572694148 6.842682046321091 0.004256975504141056 -2.271464484876791 0.45228841352875654
Ni 3.4592477697267294 1.219572752893526 6.673759984762302 1.2117313522276874 1.354522708496022 -1.1272281901772843
Ni 1.110552342859111 9.211666141709117 3.046195201858976 -0.0038000904723805517 -0.6313469796592417 -0.029617308645800602
Ni 4.9331549371839785 4.744109897277137 11.543695743600162 0.5758492037022533 1.1420472574679879 3.039452484932256
Ni 2.6218515003358482 3.923440888544712 10.756769817720773 -0.06363506035214202 -0.8669618449182165 0.10458013530593602
Ni 3.5918185244834016 8.565102132061707 3.1025838493919746 -2.955704970100955 1.5068423159697661 0.4536819514421735
Ni 5.469739767822114 1.2728542442730506 2.848090260561552 0.8858442836450164 -0.29653895443785705 -0.3759644448550364
Ni 2.0803797404569275 4.423518030645026 4.092042739882771 1.496724510809474 0.18199862259541558 1.2248964288547357
Ni 4.6717088770203326 3.5096343373083796 0.21534882018990634 -0.15835964302023695 1.3114690718396576 0.8023932170082118
P 2.6500746802559596 0.2996329906729676 1.46213758015811 -1.5401278174957735 0.38003013028397775 -0.5118598453344863
P 2.5183509932343573 0.623276162838658 4.913695650369007 -0.6632037191585224 0.10658379599952612 -1.810073080605502
P 4.472778277392133 7.548602233105237 12.641845525467994 0.09723475068445835 -0.24692540517578768 0.3686619976563522
P 3.498994794218443 5.77684370974966 9.861301935450733 -1.172644670638871 0.28890740603452825 -1.6475767897090723
P 8.514901733213039 8.830932465887084 6.556526741072375 0.013850789840163242 -0.2008877461904347 0.785804459411595
P 7.3579282167848 1.5565102342814803 4.395131953083554 -0.5096507534983094 -1.1451716620295826 -1.9695524390524792
P 1.6695798142582594 6.273439496543205 5.031037802767729 1.5292600215433338 1.1029019547270942 0.7532522365071865
P 8.481382052839582 8.04416478343073 12.178934178376595 1.746400225036889 -0.1389925513475348 -0.16340286187109923
