# total energy = -340849.9204929921 ev
CRYSTAL
PRIMVEC
9.42548727786452 0.00000000000000 0.00000000000000
0.00000000000000 9.42548727786452 0.00000000000000
0.00000000000000 0.00000000000000 13.79515337400386
PRIMCOORD
 96 1
Ni 0.7192975935280009 4.759362197308099 12.996331516411324 -0.9332564543803927 1.2743716527667277 0.04868898056527098
Ni 7.045156015248198 7.25244133574425 8.613128270998496 1.2570748133594931 -2.647253837606544 2.7697926142734297
Ni 6.677081303958123 8.119642736142568 6.877394591370739 0.4493948940310454 2.422444033382873 -4.267014890654929
Ni 4.770493698013166 2.8839446784348244 4.671452560749232 0.019228252101992693 1.1746316191619126 0.47868875789915627
Ni 1.1564884619054494 0.6094972623141657 0.4404115574468147 -0.381114364487092 0.28365335672444053 -0.5131024594923357
Ni 2.482352933692404 4.148929926636657 2.64749689969874 0.6001003629401342 0.07923959965861838 -0.5592061958289337
Ni 3.428332558386193 4.112123398056397 7.275081356653287 1.0745038632003752 0.16630666578145553 -0.43236364958037155
Ni 8.384291573396487 8.529312123648953 11.66711345618164 0.8148304143302999 2.8271570111255118 1.3093098594048096
Ni 0.3386370288158455 7.71059543080937 4.342852733542893 0.25378382285851775 -1.5971764828796493 1.8084663982400144
Ni 1.2425148860673023 4.111821782457276 8.474900669567488 -0.26445132987469294 -2.2791700810511655 0.002182352363299467
Ni 8.388033491923084 2.2437278673501635 7.09309592963102 0.7219179451702793 0.2454107683034741 -0.101318948056161
Ni 9.44264185973787 4.918238214145196 3.118298113854511 -0.12861506476795267 -1.0547148534989061 1.539876877827232
Ni 8.590012262972097 -0.04771087503723936 8.442054730823187 -0.7263397283870587 0.6258772147939221 1.9054864618105056
Ni 4.377922144781964 0.633988448962808 4.080040923797372 -0.7158108038312768 -1.5213592786390187 0.45226553071062114
Ni 8.526041479495984 2.6433591106982957 13.70904446439101 1.7879356252765144 3.503709383676798 -2.033305513039724
Ni 8.943835637203696 2.8666677598976626 4.098733550552909 0.6602808890847726 -0.2254412671600827 0.4896064332529246
Ni 8.90240119427442 4.969823907082397 9.67947985365532 -0.8297340709150097 2.222001088039341 -0.17239015297137408
Ni 9.158746177065032 4.79762025095913 5.829073023700134 0.39289387362052336 -2.9191914485559534 -2.569266108077156
Ni 2.8620304200611737 5.083740348675488 0.4397564860674733 -0.35026112655166125 1.43103076815609 -0.2859601504807462
Ni 5.310357343977716 -0.03231245615335427 10.65185932621094 -0.0744707175150653 1.7139405618462868 2.4560074711606155
Ni 2.6653676239466715 8.14835277098392 4.440300963423967 0.5068947880197271 -0.5904648967328991 -0.19818243144412967
Ni 1.8668874527106274 4.55491394854128 4.757093482473459 0.6145905861365093 -0.5678263333977769 1.362962354622943
Ni 7.804774901634969 6.221679451234984 1.82958231584307 -5.454476314591658 0.26554867670392973 0.47373604187957125
Ni 2.4689216140440373 5.956276574983263 9.025796848618644 1.0089453605732752 1.9467392978127052 -0.7860016630240657
P 2.4741244831288784 7.320512206270919 0.6575512250954054 3.5416182429074294 -0.30320891025886487 1.2553213210034961
P 6.08194659945461 0.18500441065972023 5.10840025154989 0.4039809846726204 -2.125804291701094 0.3479203942336266
P 8.569342168944821 7.266975437426904 10.071979773181729 1.6977690942927468 -0.39869068280795855 -0.9251793337992131
P 8.674992458024498 3.807387962581776 11.519036220341828 -0.0466413540076229 -0.5236594090725756 0.23996337203565768
P 7.822117798584439 4.56542336707316 7.662035319350856 -0.12764832997930917 -0.7868501270672901 0.2659415412669743
P 4.587686368483294 4.990918148045936 5.360217230158694 -0.40300782212607367 -0.701646853626069 0.14643975165419942
P 5.8911653075229715 1.3246862858528874 9.0667402236506 1.140139498922314 0.36814109215587565 -0.07145969860288338
P 5.799898312326387 2.2524275922873156 1.72051811520084 0.7520641297363564 0.747422260088971 0.1367163537188484
Ni 4.328900184437295 7.0788898349124105 12.544609373997462 -1.886186475930313 -0.6939919081839726 0.20841053693004105
Ni 1.0781061080838246 8.681307534631099 10.805508910244514 0.8491261022883764 1.43960796830214 -1.2394223903850525
Ni 3.8369557167831263 1.9743285844100862 2.3922726073686125 -1.452934767318033 0.831776041045703 -0.4028936651457126
Ni 7.83549256530797 1.458405676625782 1.542657281496556 -0.9709621964612827 -1.5783945742864558 2.360610030795212
Ni 5.897056237193308 5.228987110627298 3.6054459509339045 0.1255567375576031 0.6761821336960613 0.4949417294229089
Ni 2.434895604268176 -0.07318608257801466 8.022930636833099 0.4826366868033107 2.366589131196782 2.6890458339416656
Ni 7.828150110566863 8.82393401106554 4.072509016758068 -1.8556803369216557 -0.8543071322686836 -0.5427380229705814
Ni 9.061522273785805 6.423903284958283 7.074568248906253 -4.533734704848825 1.955910165678696 1.0498469838836437
Ni 8.234021026621816 8.515249296339928 0.8637601549220941 -0.9757560183055001 -0.8563498737303252 -0.14879848169436308
Ni 1.338767964136859 6.533625384626096 11.034853641621295 -0.2605987888978222 -1.408022223076059 0.6208517365548727
Ni 0.7611505281010581 8.47900829700802 2.233062928274987 -1.2629155884109862 1.011511835748871 0.3809446716784472
Ni 7.427218149947521 1.4841278319383377 11.047862699430892 -0.9854771022480061 -2.3575594168943463 1.2610471677436799
Ni 5.012229175221344 8.729113607091811 8.604010054417563 -0.9968889436293734 0.17972473895957436 -3.2690643385302605
Ni 3.195485315864618 0.5888771233704947 5.95467801230792 0.07066111396098798 -0.19024235066144654 1.1197120843058974
Ni 0.2161481063664798 0.6957970256127224 4.1167908994527975 1.6549962221015946 0.41772661639348707 0.039485459689132
Ni 8.25628402803195 6.262237323829314 12.065103722160803 1.7386416641373927 -0.8335773559204999 0.43150592956576656
Ni 6.69935373085573 3.20968009999826 12.434399976627319 -1.056764022718451 0.767355251567472 0.651708316924413
Ni 2.468525743570191 2.123336115863437 4.453889688713125 -0.9496539219018096 0.6754259722563271 -1.197858708010653
Ni 1.0108646804547397 7.639894849277864 8.019026599921974 0.3605787064275855 0.6050841893079708 2.2030679985802637
Ni 6.405533009874307 7.782841792286373 12.183452027963483 -0.6081952241331268 -0.3521912536948386 1.6871208705502816
Ni 5.307435442861229 -0.024824848905170196 2.1749302917393623 1.819702890385782 1.326451918401735 -2.4740946676796294
Ni 6.045573643298086 5.3787204046160335 13.837642987820075 2.208233344831287 2.0924982213497962 0.5564211768846288
Ni 0.3994578143786377 6.393600342734074 1.575834054851142 4.854266936877485 -0.3388297447862681 -2.300881761696644
Ni 1.4795187685642668 4.0867971132176875 10.94183350575482 -0.9981981493591002 -0.5029545724250564 0.2385667487984472
P 6.125124757566305 7.578770563018456 1.0460688761646686 -0.10105386732023242 -0.13640267913317156 -0.4179672716493834
P 8.607826434295195 4.524808941553994 0.8934542106555773 0.3742824291669231 -0.22530217047905715 0.576376279850317
P 6.454734054480955 5.331819178952685 11.730267049893886 -2.39729581625202 0.002191865444996225 -1.3956475035607898
P 1.3372410351663078 2.037762115100266 8.900977945666066 0.26920041452390414 -1.1984336066775167 -0.04848303520205199
P 2.01876033235563 2.23665875174576 12.970645177951164 0.026117780132974375 -0.6849683645291236 -2.8638286555149324
P 8.39355682758199 0.7082245308452635 13.32072474855867 0.023454374368198316 -2.513415833876755 -1.7020695214403136
P 3.3797912979026234 4.625454296785753 10.227919750671132 2.429024257703552 -1.3660420219895313 1.247392810185039
P 3.3549928403623763 8.065813777186905 10.701190442544709 -0.6555485166061097 -0.5895133314529074 -0.007569070596509545
Ni 7.007774531932114 5.956531063145021 5.6796168390430894 -0.07248813986739774 1.1429908523281798 2.0468673108845588
Ni 0.8262806465362946 7.646464414046224 13.515428928376378 -2.516075125876473 0.9776295811791293 -3.432891175312655
Ni 4.41170309188354 4.584387447867906 12.514273442567102 -0.5031821150548302 -0.07541611214747011 -2.155341896148894
Ni 2.9933840134784613 0.5197798172580669 11.814334857758945 -0.8390610047428905 0.16696666796295762 -0.21358591048339343
Ni 7.134839528549396 3.802665793358034 5.543375187822544 -1.5525634721559647 -2.967496306308928 -0.9704474616083931
Ni 3.970194407694922 9.146144300314248 13.66721697863413 0.8070952504695712 -0.18136895943121667 1.8036216685532034
Ni 7.3849354131457146 3.5863037284259276 2.776550674172728 -1.3602920068796314 1.629907397453767 -2.359952599716871
Ni 2.8891569730071383 8.923863029249388 2.259080101345433 1.6236904700097778 1.0491813252751867 -1.0856871335107046
Ni 3.8193583316718986 2.810633236873425 0.11038753908337433 1.0844077525776485 -1.0680586217956638 -0.29614994652955445
Ni 5.423293534873665 2.8179945425894775 10.508982131809727 -0.9898294656794309 0.4956145871202174 -0.45750955271837984
Ni 4.8370753415191725 4.526797719410699 1.63298738323837 -0.521665004350366 -1.5719668163832412 1.296575956777909
Ni 5.3703788482028365 5.179908597357793 9.152090840360673 -0.4210878195562361 -0.886913091229163 -0.2103082681733862
Ni 2.98546660400153 2.4001438319569286 10.432198340663446 0.12600462372829913 -0.08853696580014431 -0.8463307989314264
Ni 1.324780540727613 3.246137885542036 0.7769957150911414 -0.3767609726144028 -0.4843017332105595 2.2942174623025906
Ni 6.2461857186635825 1.0751747814798656 6.954151048603351 0.13073905308949096 0.5955124864591356 0.586525452469177
Ni 1.5981008264562655 5.497010272396384 6.883602217420152 2.099636375056474 2.244817314602908 -1.3256569333042652
Ni 0.4792634168086157 1.6490738627077501 10.834824061381603 1.757036878815129 -0.8776306374859725 1.8274640223884395
Ni 4.733470383221037 7.428763929893017 2.882097282890207 -0.520363254819807 -1.8772089550220508 0.09042364129989588
Ni 5.784610171645931 3.353956036740397 7.56564839935919 0.6393544233447505 0.13449466347718128 0.2589404273587928
Ni 6.7060081250113415 1.6657286990717246 3.7396319033366896 0.2935783291476364 -0.3341261686630117 0.4450340459591884
Ni 5.1670899343951415 7.215455722902012 5.310099085620969 -1.5069335901319918 0.5226381668969128 -0.6009907359648875
Ni 4.041394540062473 1.6785944894717388 8.050382369096866 -0.7204688714285786 0.7401763771598349 0.11679441798394079
Ni 8.43025025031258 2.6689304582112907 9.559972212893518 -0.15858795698095912 1.2830964342342355 -2.93640112756602
Ni 5.381793113532081 7.201619107292327 10.122290197663894 -0.9134376198822527 -1.6452687104011858 2.271613094639514
P 1.8865867215282315 6.26389620962448 3.4053890367805417 0.12667773853592376 0.13954276742405 0.08364955580085594
P 0.768686205335352 2.5372846746823545 5.735155581426272 0.14927439288951713 0.2182709746638886 0.9197021127347257
P 5.111130815270684 1.2078385176558357 12.41883849681016 0.09779807938709609 1.0813285994316926 0.3123540670932427
P 4.834954606837853 6.492803598382535 7.456046003382277 0.031236846527094592 0.7977976272177293 0.5997933732226766
P 1.429610812397179 1.6467457673020334 2.3922999412822827 0.43303727860862834 -0.5669763266926559 0.9885431427678393
P 2.509913059062105 7.94386682026721 6.55025665727139 0.9366976188514577 -1.231783385782556 -0.9115751127522171
P 7.981399111382856 6.387520903314288 3.9571947753727974 0.3709487368079999 0.620602339548228 -0.3249750982913629
P 9.267403196648448 8.91373063021641 6.603519144429954 -0.3351736360909195 -0.7062187892674676 -2.194676432082459
