# total energy = -340859.44498320465 ev
CRYSTAL
PRIMVEC
9.43446637719773 0.00000000000000 0.00000000000000

0.00000000000000 9.43446637719773 0.00000000000000

0.00000000000000 0.00000000000000 13.80829519350748

PRIMCOORD
 96 1
Ni 2.9802064665918944 5.529182336051976 7.224804101810511 0.8941191220592988 -1.175792472239233 0.6643715142143785
Ni 3.4780255286435517 6.097986324436437 9.528565920792952 0.5753892333466993 -1.6218019947378135 -0.5367298691032886
Ni 0.8952478524230802 8.36658871692174 2.4008755004293714 1.294512646490977 1.7994343699447333 -1.9880818653152343
Ni 4.025705746419407 1.1463820306617314 7.124666673833853 2.224056170796157 0.8569913639690661 0.7658781528013132
Ni 5.129094913006367 6.769276922968855 10.943405697175033 1.3719735569826177 0.0023024228809315184 1.9473126538176722
Ni 1.8217671876774615 0.6008604188328386 0.7251038522950015 -1.059449539970414 0.19138263491347685 0.0742593728352076
Ni 7.090350688646413 4.933508986929103 0.764393688248345 -1.119571444962975 -0.014996987629464494 1.519892464285505
Ni 3.82307227382824 3.3400558897957433 5.512382381463882 0.40740877940724674 -0.09690256415602021 -1.1707237994670738
Ni 4.458587375197714 7.9015732950693325 3.548538731648784 -0.32955371880098083 -0.929488245587212 -2.0412021421789817
Ni 5.002965529680577 7.79999239371031 8.888565674024937 -0.4271692498636256 1.9699926119136912 -0.3965458685508138
Ni 6.645609935412984 7.315853308158196 13.00510835129462 2.4447390973356478 -0.21943876971974466 -1.7650237536753473
Ni 2.001342824016984 1.1285886267457736 6.451649567922527 -2.3610993117268047 0.2429787618232138 -0.011112307863077635
Ni 8.63720695548236 2.5953745759599127 0.15664422193966746 -0.103280442657906 -0.4520025068572216 -0.8917117981693868
Ni 2.417185806203447 3.8989159504350184 1.365070134983431 0.015131713435115875 0.07093210823418751 0.675561726503243
Ni 3.624042767459712 0.33105637473560384 4.936106295570705 -0.18262571465645322 0.5989950456910974 -1.167386250453409
Ni 7.0438010306817604 7.382771979407341 4.334299599742761 -0.007820524485683305 0.9211627564406524 2.1288775313097785
Ni 1.4508322662757063 5.853350606758396 5.69628089037726 -1.7776375857846158 1.319831841982056 -1.3362689044921565
Ni 3.782211599194087 2.619102259336707 9.3590144051643 0.09333387296815539 -0.07144607175612856 0.20532084226112382
Ni 1.7372438018433864 3.945842987061728 9.387473473516627 -0.47264820813203123 1.1025612835582237 -0.06969437917234449
Ni 9.206237371064056 6.6496007147642295 2.8777453295036244 -0.42529054478367406 -1.5624984718814898 1.0310812732403662
Ni 6.390492525396327 3.4023894103009042 10.22403517020332 0.9001303612503851 -0.9150350462763596 -1.6937005806503282
Ni 8.910155507281182 7.416311507997601 11.912637692847609 0.18266273854197573 -0.5497265384732726 0.19471298483829044
Ni 0.6790825244572274 8.93015657637017 7.733128442367162 -0.15719596172943895 -0.8509716401375473 -0.2875670899565499
Ni 6.501724886037442 5.018305972293168 11.920328669980316 -0.027239038221611157 0.5910678204242208 0.792278497171713
P 2.8531336366109636 3.133205210656097 7.459613822575259 -0.2741022227008957 0.0545346407127706 0.7560799357639688
P 2.589496903298385 0.9168310815527391 11.075689183032306 0.24573524152242843 1.7968995193380215 0.6164518077149641
P 1.8290034235223924 2.6269800389071336 13.623264034209503 -0.19192513768050817 -0.48712171915785785 -1.0605548572194508
P 1.9547931660523312 7.501183969094078 9.033511157440858 0.8679830870938793 -0.6191555797993724 -3.282555945258792
P 3.6131365241262823 4.006393393388672 3.2842198864045384 -0.3347213790448494 -0.6191072430599402 0.37209724859014626
P 7.099587031400242 6.4173996240009465 2.610968805722737 -1.5239596923763432 -0.4979589189826778 -2.709974870784849
P 5.714126183859251 0.21651440322825505 3.8928071333429815 -0.007283163924974554 -0.11505866623975668 0.2847915840939418
P -0.4091765881212374 2.0671010558803062 6.9188396343150345 0.9323902497253554 -1.9555160155640707 0.771814058669774
Ni 1.3998106711656852 8.839529090677333 10.41425760204611 -2.0703738786469312 -0.055823791837839344 0.9105212175664062
Ni 9.501828642586258 0.3212454729687934 12.003178381448171 -0.8612339412955038 0.8360515284926053 1.525837111904714
Ni 8.192003913387914 5.927231914322482 5.984115143500893 1.0819587768165237 0.09474206616959167 -0.8412163605229964
Ni 5.9586958602714315 0.7058613143167473 0.8067251962178629 1.1265378489784792 -0.20868950162304062 0.1441537838335001
Ni 1.216970709399375 1.6257472761388327 8.781150498550522 1.2171478952575685 0.2320502878361681 0.0048832962342303
Ni 4.5175433566774705 1.8456741259187324 11.46007010616313 -0.0035036422778842885 1.0794972026499086 0.8131576546135673
Ni 1.2859838322229333 8.539494185409417 4.673196959629241 0.7890129390465638 -0.24777566899122488 1.1477527924931976
Ni 8.82332067714201 3.177632113646683 8.693537324920861 -0.39520863779662907 -0.8683091029747303 2.4388972938428903
Ni 3.9729670783970295 1.8047757134183735 0.22601302415221386 -0.7085379243189475 0.891544162243271 -0.13564394659027607
Ni 8.68137912787606 0.7552582942866155 1.7586383416420173 2.045965882116212 -0.3829761002861791 -0.6034764785012187
Ni 0.759928355229563 4.336411033356966 3.600485847927498 2.02096036121081 1.105998848484863 1.4870767033070649
Ni 0.5871030797075737 1.5382897712072694 4.650813687736022 0.727895760020269 -1.556320882315868 -1.3031538671057428
Ni 4.422321285774098 8.986499210615184 11.117168758672232 -0.2533390220116153 -0.7386486276613988 1.1932492342630998
Ni 1.7842746176021616 6.497460507156205 10.939539452782263 -0.6419540657511267 2.036804527331918 -0.1958959494027981
Ni 5.930590584414783 1.7343002482793468 5.562588838663862 -0.35199764962679375 0.6417275515626174 -0.5449949373255581
Ni 4.681325696009935 4.554903844221052 14.116772488493822 -1.4762387321512964 -0.2769054964776457 -2.2548194201209424
Ni 8.539947039803884 3.0429456691587653 5.16439868684174 -2.791068750043386 1.813597805929309 -0.6546568580297758
Ni 7.652843018907981 0.2676784587832023 6.359092733819927 1.8861355680877192 -0.31466651727650324 0.9888182508060969
Ni 6.130374848107424 0.7095105659788323 9.95184609296189 0.2314774460518336 0.2091633559356656 -1.9211195403620718
Ni 6.65476136796785 0.4033602394922936 12.167304135363107 0.3833908192260945 -0.41942380159025183 0.9307665980790034
Ni 5.288018502064855 6.7856928947683075 0.8008277111765771 -1.1149506583615123 0.9857277848062314 0.9286382388820911
Ni 5.1089994992518655 3.734992094104284 7.59637113247121 -1.7820663109799308 0.613878133450517 -0.3712266730597349
Ni 5.986442626399126 5.575788600815938 9.099970370168949 -0.00481207667666268 0.3535619087901201 0.4999448390644551
Ni 9.208690332367421 6.802156038900517 9.273734375112802 1.3733331563343059 0.5099083780350702 -1.263236976306147
P 9.479846335521474 4.95063254371991 7.983956000442893 0.609243462891983 2.180400124669103 -0.7785611475856204
P 5.920250409074439 0.33784258652603244 7.622841415274499 -0.2468413301024136 -1.1977970015347823 1.1374871489011313
P 0.46956189128353193 2.5377111163977 2.661107334763546 -0.9957085501680272 -1.2423413638040604 -0.8140266874820818
P 2.69390814462283 0.2453999094687046 2.90054277447845 -0.5543426970890453 0.31560496993037257 0.7674704369890977
P 7.80520965371324 2.1057540653414297 11.129224120031623 1.326176553253161 -1.2865244860791778 0.600141757701031
P 4.952415657898126 6.33152710945002 7.1747353878221825 0.5574686443125367 0.1939899906293369 -0.017483758607060213
P 4.974530047494629 8.538720559152202 13.299100480736358 -0.7610419077549345 1.4220038820671317 -0.891646235038774
P 9.145479406472981 7.854193404048156 5.978094066947784 -0.9000272600136177 0.3646662462333978 0.20889698964815637
Ni 1.3851683790778981 4.8449004770782675 12.064114657457068 -0.24704598991405194 -1.4639671138727948 3.3556495799206725
Ni 2.5712978173207164 8.266196558348195 12.78891188958915 0.108025156431743 -0.015147911385031977 -0.08239537167878068
Ni 1.356921586222979 3.497809605001857 5.86308508934614 0.2163771000752854 0.031381856745391117 0.6716670194345271
Ni 6.320064232590058 2.7709971708143954 12.843937472303589 0.2769954850882907 -0.3218069849760264 -1.4906538791353618
Ni 3.2478151103226156 0.1240717261709272 9.131522056656827 0.171544260031311 -0.47411142294111897 -1.1445437986375966
Ni 9.427013322833583 4.371129870266151 1.4153916926753376 -0.5907425758743181 -0.22522863692864437 -0.6972127291141154
Ni 7.215017729656734 4.557856832251643 7.492988248000869 1.308048990414515 -0.21610276336797624 -0.290104511666423
Ni 1.12548468725036 6.221304236729906 0.9156008271144354 -1.147985477329294 1.4060172768308883 -1.7492001563795296
Ni 3.7653710763998216 8.674010809499409 1.366193779949704 0.15422350936467633 -0.18430078836603098 -1.2537071824388406
Ni 0.7757405211697248 2.651566258740106 11.742325759214914 -0.4818499292359572 -0.9611837769182802 -1.027147742513915
Ni 7.952764710577279 4.695807602166347 3.364957220811533 -1.4801918032617734 -0.8602535796601055 1.0312833619488433
Ni 5.074469351673708 7.999672878270886 5.629476376173387 2.6746412284805614 -0.20591630975327763 1.6508053239486986
Ni 4.796596008335052 5.544400130599398 4.609582238566398 0.080646507308474 0.25943716448955323 1.6392345883919641
Ni 3.322687036874599 8.152992394197836 6.860969559935346 -2.5031687022274505 -0.015026298205503155 1.5584849798467224
Ni 7.767462353041051 0.21170282528703635 4.077866081642183 1.3012201404181396 0.330065882550709 -1.1188924166180794
Ni 8.807489642268747 5.0759694318553805 10.750337830220339 -0.4350108573952315 -0.8390787453547033 0.6184279576047285
Ni 2.933298298898287 6.1307333578363785 2.1900236640252717 1.3601657657144124 -0.3114140717774766 -0.6652855413882155
Ni 4.625784991421789 1.6100577582638391 2.678491282831173 -0.5113150285746098 0.7272236736539088 0.06683351268478167
Ni 5.156473734938555 5.253931774414613 2.3649745248612937 1.396771075642272 -1.234222591351668 1.7544161533628302
Ni 7.608897273711516 8.21681656041812 1.4916136913908276 -1.5053528759084334 -0.748470241737511 0.5402517662136179
Ni 6.799467215933365 2.284065483163064 7.94580396115565 0.6556241070390515 -1.4416802774501365 -0.1177243859973779
Ni 8.698606463798933 0.6357688885197078 9.55476071717294 -1.0265216788941418 -0.11269787931706397 0.6575053832221643
Ni 7.581584493045187 2.3905523071288193 2.669420043241993 -1.437456726287092 1.3682354300964241 0.18872257158281047
Ni 6.90729373414942 7.645512438397536 7.57066032422531 0.9795887617880289 -0.49608535610904886 -0.45874702466990674
P 8.439328454033106 5.318548435825215 13.175737283003443 2.7484820257211116 0.7032131696719244 -2.997734793478495
P 4.575829491032077 4.222338898283877 10.820415160870896 -0.9834276759181451 0.8643539749817243 0.07126763719673533
P 6.035841493262304 3.065126100021128 1.037225252661927 -0.5098446146766704 -2.1215586290508623 2.424407584867147
P 2.999169744360226 6.282128242586841 13.650839093045962 0.28501449873802526 -0.7251413372035834 -0.5740003234189727
P 7.46330458589017 7.460096867262691 10.130952836313808 -2.432423770303404 0.3500775497859455 0.7538834423332823
P 2.6636706793255636 6.725199095240672 4.098316231339018 -1.065559509522894 0.783550887490728 2.1931905915655516
P -0.23498614528925912 8.63933914492298 14.038617367581947 1.6262494889862056 0.2498186675631827 -1.247534992189858
P 6.345773153942647 3.994977688861467 5.467270536201664 -0.11617246812922571 0.050255553721442484 0.21037126020083766
