# total energy = -381174.61067057605 ev
CRYSTAL
PRIMVEC
9.18819712939890 0.00000000000000 0.00000000000000

0.00000000000000 9.18819712939890 0.00000000000000

0.00000000000000 0.00000000000000 13.44785525607579

PRIMCOORD
 96 1
Ni 3.616639728254033 -0.007812723912357676 6.187263869722107 -0.8788382846408285 0.8596396002251904 1.2981641272006355
Ni 3.58867085657437 4.037541844802536 1.4340257957001465 0.6547417044340982 -0.08477672742676366 0.33694744016189065
Ni 1.64045150486702 2.6887604656251343 3.394924859272784 -0.6503921692161508 1.0091289373389911 -0.25563655979654043
Ni 8.185222607089997 5.319258574048974 0.22198224551406007 0.5576686761384847 0.9806053759780017 0.7741861584463764
Ni 4.352099769228698 8.33252778145542 0.30647231106279 0.782901169721871 -0.39302191455795543 -1.3638691827079286
Ni 5.636628086758308 6.041542740520146 3.7091069864414883 0.00923977343071312 -1.5915462811770655 0.005870342737847954
Ni 2.5896106317567917 7.018946384999694 1.1169429547373324 1.3544172932664096 0.2747090030469591 -0.3770695049937571
Ni 7.551632106296808 2.532377352619927 7.270260111809084 -0.7192455405444388 -0.08993538880956768 -0.8475021935317082
Ni 6.185191012478042 4.166571695327337 2.0982286124509995 -1.0247280773288288 -1.026961851755354 0.2333939463482561
Ni 8.970868580099587 0.711045163896085 13.163029404082595 -0.29624147780209625 1.5239823180841627 0.8409224834316614
Ni 2.064514361184842 5.375049306256238 8.674579547776144 -0.2509206423781098 0.9410206717068439 -0.8339406527971895
Ni 8.414973473170797 9.063356971140154 9.043453498790454 0.7846256086121455 -0.5399666308730313 1.9278807703453056
Ni 3.8301366738350544 1.041721023506367 1.595870373004431 0.8273079779720205 -0.44250690866196046 0.9021311937304979
Ni 5.586194073404279 0.13339975701982376 10.918394222933149 -0.7552155308811445 0.17839779261803468 -0.47099241769616296
Ni 5.849224589032954 4.225082133847735 7.2187014631417865 -0.1134113604443208 -0.44974147873718673 0.4285381051866942
Ni 2.8043479839333303 5.602549064071098 10.786430581105025 1.4122938538682193 -0.7352447441861725 0.09576510811746732
Ni 8.409037897906321 4.885263276770011 7.30480773254349 -1.1903719127153047 1.3635133420304064 0.4250491181968292
Ni 2.654470114406836 3.318730816798813 7.779691425309203 1.7837295576149668 -1.5404587184726308 -0.22780822473036247
Ni 6.564250079871099 1.15096868588192 8.761196680931262 -0.7426533779454177 -0.6424302340565968 1.31525707812718
Ni 0.35975190902890597 7.651820206426584 0.8188153641934219 -0.9614925664079507 0.6261739200987345 0.41592607284963845
Ni 8.263662244911703 2.851584504730027 3.4402033752879637 -0.6675023465338762 -1.9097670914637304 0.25480583636512893
Ni 3.5460192460825857 1.8104331494378973 9.542301846981559 0.9535946517171124 -0.8380220219554146 0.5317025910920263
Ni 3.6779066258755786 5.759226199380428 12.942995975153048 1.0792611753797026 0.41063371410244764 0.05930249441505915
Ni 4.261099866102754 7.23099159545411 5.193520854510645 0.3461553319134038 -0.33946095061236375 -0.5675607384412161
P 7.5739502368191145 0.830363090187837 11.199131313007909 0.8675321155993898 -0.4348337083874189 -0.09652615465320795
Ni 8.150509598809522 4.876304784691276 2.698258304867994 1.3109437954638068 3.2748292660384957 0.2561086143369525
P 2.947472528662009 7.068535084229372 7.246928523157256 0.6636271798491861 0.46712599276222133 0.5107799820067461
Ni 0.8604158449479681 9.155376764133523 4.867666041868273 0.3206947257484541 0.6075627327554505 0.6079435131336369
P 2.9125114390624316 0.08218199046136748 10.923920923430954 0.9156693374262488 -0.3574951824062552 0.5086408241765562
P 1.161691311785391 5.87516286917477 13.403759246763274 -0.7463421396509146 -0.01784474149090475 0.10059261141309772
P 7.5691264333921024 6.988083231263825 2.263690582915692 -0.8625981686328822 -0.6793700445057396 -0.9088469151877767
Ni 8.388447148420736 2.9758640574038475 1.0496734080131829 -0.8162951718012844 0.2817234866915793 -1.399074784074784
Ni 8.961965217202875 3.221804526605398 12.052760755648846 -0.9333009344650829 0.04524344521883176 0.04403142718860159
Ni 6.402859399498803 1.3410173527091647 2.343678431932545 1.3467075833269775 0.6377670242529726 -0.0341470781953541
Ni 0.7064519842138697 5.372044765835985 11.261986849891418 -0.5343192027792668 -0.06068574791583097 0.7408808594260272
Ni 0.8057525045130751 7.740780329817678 7.193244644522971 0.21782951625109584 -1.6767534112730285 0.12372482655518692
Ni 0.48416744701838355 3.0702635934212092 7.819228237016689 -0.08829399655140278 -0.947307276046504 0.25150762522983133
Ni 1.4690273133665412 6.80453061971829 3.0553125592565755 -1.275137841508791 -0.14836910746642834 -0.3236486661704555
Ni 7.109624701230504 8.376263599193656 0.40373580808624593 -0.10409085437434332 -1.7074768084988143 0.2545186441420133
Ni 5.048289456208988 6.085471510395462 1.4110700043057747 0.087826569996681 0.7529745573657677 -0.6476097213750073
Ni 4.732463560596298 8.848518548796571 8.306592257772705 -0.826677286366557 -0.9023451095135169 1.05440246446481
Ni 0.24738209731145105 3.021455890936858 5.411632112626991 0.40620190358333913 -0.7891008707746797 0.7266297488236518
Ni 1.7916340983680588 2.0321994723223673 11.984258152886783 1.8039978209456997 -0.052027043799568455 1.0870505895171343
Ni 7.202912465410403 7.447309317515309 10.093180198346259 -2.3389824252231075 -0.5456796220974086 0.21360853619121278
Ni 1.9225750938696573 2.128289636588434 0.9931761034563252 -1.281384079528819 2.3810590426781832 0.26379055636224247
Ni 3.0478443927318613 4.949194751522668 3.7246120688854534 0.663980963644179 -0.19196910354456617 0.538658196474253
Ni 5.276735598315244 5.078279731229493 11.097250746990028 -0.28398271503940126 0.4267283056714651 1.2957915132034008
Ni 0.10402141591977387 6.673626377004706 9.345707508608784 -0.6025171999117429 0.3524936154266058 -0.21955061270726062
Ni 4.930496770619872 1.9057882579436576 7.519839107024152 -0.9243059300553242 0.9174948206707618 -1.2865198580934876
Ni 5.131019982031485 6.293795501063328 8.55614368839676 -0.013772628304060152 0.46648373119253206 -0.011154216844606596
Ni 1.9569297624669821 8.040306363945572 9.339239936737789 1.6531059470574176 -1.3991442038601387 0.3816774360794136
Ni 8.801732249653064 6.383656067760797 5.345441260231092 0.25039562311257524 1.0622384155694609 -0.2400237929599479
Ni 2.1232636928273387 4.088628220143838 12.991004304498066 0.00810231739216024 -1.1436840217404627 -0.7599409613812719
Ni 6.177647502737897 9.054563866607486 6.48314402727888 1.1325069220777204 -0.07134785561536745 0.2410501773419332
Ni 6.530988806717231 1.260446053182569 13.045226611476775 0.34512149133225084 0.6792797987847786 0.9116113653067913
Ni 6.39824692460288 6.36629956362056 6.341537372695234 0.20722371571079148 0.778664248822388 -0.21617424003585994
P 1.819281383152587 1.3540554042576012 6.3410935827799495 -0.24213338310378302 0.39897093305253867 0.29345877285063654
Ni 6.156294132900993 2.4937593606128243 5.193615492939784 -0.11365278703116555 -1.0070723119202787 0.38954578308389687
P 5.200298987440372 2.5197068289516436 0.9630186032503504 0.34814073777454885 0.8317816974726577 -0.2855770561097146
Ni 2.9028362676173973 1.0481068204240298 4.076246205861475 1.2283576479304588 -1.5623483194568706 0.7551641088179187
P 3.565884128004869 7.940908448758125 2.891302323918488 0.6545720116254534 0.1163961541042576 0.7445423674380145
P 6.261793010898984 6.5529577857533905 12.440933595650003 -0.6229333016742498 1.1031968602596938 0.9182296419542573
P 9.02097181836148 4.562105199948264 9.432863070108327 -0.526131524762152 -1.3863565651771674 -0.17079966855580261
Ni 1.6558325466514336 7.535194421856954 11.987565903808163 1.1490985078878146 -0.19794923238740103 -0.421307648876526
Ni 8.974957327766294 0.45180110425268777 7.081936069559458 -0.9413603144344498 2.62760726702021 -2.7775959123679326
Ni 4.641638233213427 2.575828336251045 3.3231126679499403 -0.7527079339679423 1.0227118182297483 0.4423688404221994
Ni 7.633315177660868 5.34562869944997 11.355207540233188 -0.09876147174162991 -0.07022736885767905 -0.00926702712422275
Ni 3.356301354347479 2.793597793438848 5.55916882955691 0.2959056917292323 0.386548905239102 -0.23269846294312826
Ni 4.243412586870378 1.495553638116602 12.610403457647767 -1.4797156349563032 0.05140252284169212 -0.37815528185876807
Ni 4.379921629756298 7.243937765032509 11.081866029926811 0.19196627533108876 1.7271143802240834 0.2707284211326563
Ni 0.7079514979648949 0.46783358920467283 10.933631010024603 -1.0405367622263113 -1.1873099859605294 -1.0174773093036864
Ni 1.5373966872720493 3.1580751921868244 10.048224188045914 -0.4861837807246207 1.0893447848679498 -0.7742812892633439
Ni 5.744791541887409 8.398012061501724 2.2477683563277533 -1.1563191940059698 -1.3219542876416974 1.0920040768676678
Ni 2.0800975433033395 0.21713087749603718 13.430050353670037 1.0516267014918856 -2.2268386186373004 -1.1968143259065387
Ni 7.540266306603069 4.493956342770848 5.063870800688084 -1.2254756983969732 -0.43426060949276823 -0.12609744055242156
Ni 4.2226656380357275 4.277978583998791 9.333241881733688 -0.3144130065048004 -1.4229233085576076 -1.7116867328151035
Ni 5.156517228717116 0.2811184002504181 4.423779650514686 0.41379514254956473 0.39398222158869567 -1.0505486379363584
Ni 1.5544040399261407 0.9141612845021784 8.628251739663126 -0.032346277541189454 1.4867059502312072 -0.9311502066706674
Ni 1.882413484765911 7.158919378156059 5.163223693710212 1.3830935781551792 -0.851686921037017 1.66853076625292
Ni 6.756338526433194 4.260282116569412 9.55837200354126 0.7920172730905264 -0.7668469444724858 -2.0636463301151107
Ni 8.388125561525602 2.1812228395275057 9.734216636620284 0.7182566942686082 1.2805831808940784 0.43534150126177285
Ni 6.258531200962624 4.074193562650819 13.15389817390019 -0.27954370543144114 -0.3005935841232049 -0.11595469569146481
Ni 6.9894614608144 7.754498307944398 4.280506256994546 0.31261066318873904 0.8900968882737831 1.2853183815862188
Ni 1.80648222472625 0.1422011309297937 2.320683131291057 -0.942016717071526 -1.7029084724018415 0.37736955273267914
Ni 7.9037789446656435 0.9343569415165994 4.867868182202359 -0.46182412093333375 -0.47049902299951224 -0.0775383006967955
Ni 3.649983695180936 5.0953238366716 6.456974204572568 1.8602787549256155 0.9295052148680765 0.5711212020989649
Ni 1.4814865085037363 4.867245222445498 6.391966791950762 -1.620250076869661 0.37145113036571514 -0.8882199829660445
Ni 5.862198323202364 2.7012012843683215 11.200664823087847 -0.28363561611262766 -0.08076940603958348 -1.0461718490249015
P 0.8913442348825644 4.931167509001152 4.199563754308994 -0.2631354392767468 -0.45300215176632946 -0.2895059588504756
Ni 8.516043640212938 7.870260401995668 12.102074727788109 -0.6817326312006453 -1.185594031710687 -1.9060932421565686
P 3.512041293562418 3.310681956223457 11.172652766882267 0.5408171517987848 0.5846781148477931 0.9226743079891722
Ni 8.792645122816275 8.559182225145927 2.989942212853118 -0.1844630249755081 0.995724233897311 -0.1055710384642956
P 7.700490085955877 7.487048269556879 7.720117912395462 -0.14352334933835284 -0.4486896404339047 -0.19642636798497137
P 9.210156794670363 1.3897699260114933 2.099896270207195 0.22749634991689854 -0.5909989148594983 0.09485082383331406
P 5.187628463772088 4.348635818958253 5.1151473717073666 -0.4138115976097971 0.9666643404168772 -1.2211773281319356
Ni 1.1237440581595681 4.39680953584934 1.7874488746328137 0.2741842408917407 0.8641649988993698 -0.13873312703856105
