# total energy = -340868.3099823995 ev
CRYSTAL
PRIMVEC
9.28833098121977 0.00000000000000 0.00000000000000

0.00000000000000 9.28833098121977 0.00000000000000

0.00000000000000 0.00000000000000 13.59441126989840

PRIMCOORD
 96 1
Ni 7.7920924115914545 1.7172359402981954 11.022566534118702 1.4564978020789432 0.32766575774964857 -2.238157128973913
Ni 3.95277004376394 1.3538671397161686 9.609399902222993 2.658278985072454 -0.1502750662398896 -1.1510121799707598
Ni 6.301714669841748 6.92369847296986 6.667515155503205 0.6975634275853148 -1.4505937778896825 1.7642457378587422
Ni 6.076723425842402 8.969016844038187 10.616215981416502 1.7401354750741 2.1321009233430828 -3.1996183279232957
Ni 3.1974336711729783 6.268137352950461 9.5687523077058 -0.3782488700138389 0.1656420356142631 -0.6026023034263814
Ni 4.350217731116127 3.583735361216855 9.637852846851784 -0.12130181893599108 -0.8451534907938736 1.9709765730935154
Ni 7.907035508833411 0.5900876741641616 1.194719017149451 -0.07782215048580146 1.5701243638578635 0.5951782430481686
Ni 1.9460725533689094 8.580049402971406 3.3285644718390386 -0.39567760701324756 0.04836245046378768 0.7050296540553729
Ni 2.851759141317895 1.9834580860072024 11.438772934940777 -0.9393967629501757 1.6461819662440746 0.7996570490239713
Ni 3.5076174879321815 8.047614399884484 0.47939213072978054 -0.8435573499513471 0.9168366182614726 -1.1596945382361061
Ni 3.1766092328686177 4.406096330955126 2.099099665747146 0.32129713521914344 0.14494439805559553 1.7920650740638555
Ni 1.0806044390407454 4.547381135169058 0.17756038128693838 -0.8792753721782469 0.6247217610332402 -1.0510001236514803
Ni 8.587805159431772 3.6352391571123417 4.0104877331588105 0.6808607701186533 -2.75019360909558 0.8531488502945241
Ni 4.542932024576824 3.5334947783496435 12.35619161388987 0.6136428775112593 -0.16843991007437442 0.05880498595335034
Ni 4.809683605157974 7.7885442691149755 8.47935089028947 -0.24543802199698375 0.7080265319001676 0.4250432046595583
Ni 4.042950450319266 9.041215041602772 2.6473619850118713 1.4784293120447118 0.3346869262624881 -0.005588806941687149
Ni 6.0341271394624725 7.913370150636968 12.512582030955889 0.6547105940858466 -2.0976034037868456 0.5640969482623317
Ni 9.20895301276176 2.8389040910889767 8.614628930787331 -0.5572241324018984 1.5470176026370712 2.283362007645326
Ni 8.446836158474909 7.375520050524424 11.408661094379267 -0.03800758959202487 0.018723030330800014 -0.3203818224937257
Ni 8.544920934788045 0.36977124720254245 9.169511972453193 1.0250677200564347 -0.15297729566240106 -0.23845156337682158
Ni 7.5176872461919295 1.3763449009545958 5.28965347008157 -0.25260085829401013 0.27889835853795836 0.05144905980891139
Ni 0.03391912747540824 2.7737464484908085 1.5782564998608664 1.7041801400254135 -0.6287676489678397 0.703766213961917
Ni 7.497773064334414 7.2208786262027 9.120354408991107 -0.8350554831279231 -1.3267311402050506 -0.39522766396002257
Ni 0.28395914275896555 7.720860200460257 8.23651397576641 1.2090982854802144 -0.6685487855205196 0.26043243852328696
P 6.622319994084222 9.027802691508438 8.335943702421416 -0.495373674754005 0.6516034159154326 -0.8945515816110272
P 0.16969873785214307 6.5759062036261975 1.4489601445851323 -1.3563389357691544 0.16702837443882845 -0.5453080976906028
P 5.10628788186322 4.397764697967164 1.2258804391241613 0.7752400536321875 -1.1308624444957622 -0.7532373241088511
P 8.236325422645278 1.4157367131083847 3.2812562150970215 2.049519660905741 0.4222898102841372 -0.752653169470607
P 2.4940840876941968 4.072357306551026 12.088490765871295 0.1642569823412784 -0.23633657391634783 0.2499461942799824
P 4.4850750102156 7.660095938467783 10.887274561124206 -1.5619156027948262 -0.5293528599129271 -0.263839664432623
P 9.309880018388517 1.5713534121945858 7.047696764191709 -1.5713502658451648 -1.4111404569900665 -2.071812925086303
P 1.8180793509451387 3.640719272455595 4.483409612451116 -0.12799285780292152 -1.2560355734617015 -0.7915560171833916
Ni 2.74154380460088 4.340427830146995 7.463127589367748 0.8943644053008856 1.2344637608281965 -1.0368001780020142
Ni 0.6969387773602844 5.391253879712369 8.241407997417868 -0.02688936819167627 -0.04975675970815302 0.10451148685152968
Ni 1.536308538991038 5.617917023307963 11.13936915524493 -1.551769772610076 1.8191740144655055 0.46729440001928557
Ni 4.113829704869032 3.9721362140871297 4.849792476471932 -0.7732986136351004 0.5582278910760644 0.6218405828307032
Ni 2.1203773746087116 5.737049157871626 4.658491867003174 1.1490517138102792 -0.5037531570669518 -0.17504198877192437
Ni 0.9500105039117023 7.581721000728176 5.2721301046466875 -2.0028029735754926 0.601407511787332 -0.7262543677621041
Ni 7.245158323672638 3.259906986086061 1.4228729378850307 -1.9774328702418205 0.7781497710798146 -0.061936075383164306
Ni 4.863676673785651 6.431268311888682 1.8152752037889894 -0.04166909760401211 0.998024085675081 0.9992278761751953
Ni 7.7561651469343325 5.451962411718302 3.243204709119557 -0.48679030396036804 2.445412469253588 -0.7748623585777945
Ni 7.909320438281615 8.571197623442389 6.471265723229556 1.0832235024615602 0.9666198603321868 0.4793844984146002
Ni 5.752365615839462 5.4903510841143435 13.092832433662357 -0.1085108378189099 0.8804012582525741 0.31784645766638164
Ni 6.527866955227377 8.332803317679799 2.6902657151508866 1.4334769157037377 -2.2151113028980434 -1.0948235485943338
Ni 5.643887197036326 5.706323358625048 4.442109977091388 0.09993929409981499 0.6447455124533348 -0.5612016289924077
Ni 5.013738950879877 2.1348764594406062 1.020585101201709 -0.7107452163829114 0.2838261348568789 -0.34664281307278366
Ni 4.078422586752965 6.83194833846028 6.212129645309307 -0.8532635214955177 -1.645278737703515 0.2112302657670233
Ni 2.2984439699400694 9.108648325318054 11.84815519891084 -0.4341899041558329 -1.629635374739303 -0.5866437232145961
Ni 1.79805370911454 1.4741231623417532 2.235274959028326 -1.4150138239025436 -1.6572850181357717 -0.9127616768611506
Ni 5.496797185890983 8.186660716305662 4.657078183011236 -1.3800085114719525 1.1475527606672493 0.872339307180046
Ni 2.0201005521582744 3.9693032731046007 9.642951211787228 0.24057478036741148 -1.4925996900078229 0.1432855222959339
Ni 5.3718691327269985 0.5876076897630624 6.543084956885657 -0.1609394879322712 -0.5245364123608902 0.655079290279175
Ni 6.928751325082961 3.9907593179230996 11.67467703913807 -0.4222592141565179 -0.11046204800800977 -0.6755295877137268
Ni 3.430589358200663 2.3246835052700514 3.1773950256788535 1.8109058609194424 0.596086870905367 1.1707939905833773
Ni 5.787475507360642 3.394067640353764 3.1104010800241415 -0.5976159059553836 1.6767978913577184 1.657961475377506
Ni 2.3415325378677814 9.221631584699965 9.367732388584196 -2.2100822251145678 -1.5678193698737708 0.18286457014013668
P 7.941485928847182 5.25221685162228 7.517818211660303 -0.40531307322048266 1.0377627990255998 0.9095454839166981
P 4.6900777657087085 1.131634530050629 4.474586626748479 0.8946996771531172 -0.5183886475919395 -0.2519046035579339
P 8.058435305604634 0.058150525623676216 12.231653670631676 -0.3695279452010733 -0.8807666120117928 0.982068076566457
P 3.3256405052118247 0.5153101070558126 7.53303064031993 1.4594975081372152 -0.1779231669744613 -0.37425877501783933
P 2.528859599296127 0.7940798592346504 0.14950219072948365 0.330999707218888 -1.393985799587651 0.3998422799138985
P 5.7289311564987395 2.2261250240713117 10.84191035207938 -0.9613760954347443 -0.49747375181614323 -0.04652462592410052
P 7.757335476651705 5.415394252215952 10.369395301688828 0.4874814164901218 0.18748407119001906 0.3782462989106776
P 8.467809210076716 3.4338774274066144 13.238550558305668 0.9137674924178457 0.11100172256156365 -0.5737833223121601
Ni 1.9376666137322247 2.158701028687121 7.729782571305561 1.1137214139401013 0.08310319637908269 1.1514875769452813
Ni 3.1324153535411643 2.010032001256434 5.7253003478755575 -0.2762573213706855 0.042690596889990995 -0.0903922738413282
Ni 8.19954363152785 5.600538555838087 12.995699711285972 0.3189831423739861 -0.07156768493565739 -0.0031771121764009804
Ni 0.39619004732256646 1.32595570478994 13.171639278797661 -0.07173454953082485 0.2606682086831769 -1.081889357031169
Ni 0.8904713727900323 8.771444753417287 1.2377128441000422 0.14080363641434462 -0.21065536710015978 -0.4174494514727004
Ni 5.312572427046784 5.567369925514772 10.381698625050985 1.5231785912359443 0.9120857338400485 0.495359790796934
Ni 8.000178893006531 7.855847516194993 0.27792172755029715 0.07411590527880783 -1.145804153407259 0.4577291249283536
Ni 2.2203012404777196 6.644361203761407 1.989895828285861 1.0147902493898266 1.2167642866659043 0.5744158136898365
Ni 4.838449566544507 2.9132571814665007 7.40556965926763 0.13404112087953043 0.1319497855681405 -0.9923496609981232
Ni 6.843159354086223 2.05578632020705 13.001627524187777 -1.4200585854153027 -1.3534364174103788 1.106746782394481
Ni 1.1740914914642033 7.235284827723691 13.01697556248132 -0.30707070720711627 -0.914243917833632 -0.2507067265950908
Ni 6.828558097612336 1.957896598846809 8.551890898438177 -1.0699121300646348 -0.45604608079897585 0.42314418786463254
Ni 0.8860417676930878 1.3705675590164546 4.587719428260944 -0.4900324650467496 0.2623844200433352 0.23330447195824336
Ni 3.197647302788054 8.846448026971128 5.373422141685289 0.2963553776721412 0.6797132867777713 -0.15042598999545706
Ni 2.6755223472113183 2.823680516432042 0.45203149383720426 0.30071802551621113 0.4512805410895325 -0.567688522268332
Ni 6.205088161509782 1.1959933761750343 2.82540814601483 -1.0610431097097792 0.42087827464859123 0.8766423054307741
Ni 9.197639825493825 5.315916226239278 5.8183536352370995 0.4773957501193456 0.4792993948999616 -0.724128836778669
Ni 4.682433469221425 0.5856794322287245 12.308312124785802 -0.5350601947103495 0.9096259594456463 0.791722624668243
Ni 3.1659926704324515 5.674204309714932 0.15774929990452471 0.9882055569227628 -0.7095236852709845 -2.2462856716183186
Ni 0.8953152374536025 4.839369111322443 2.469166281878359 -1.2202800131286469 -1.028111391978765 1.9967346558942256
Ni 8.960833824347668 8.493640058838725 3.3540135701932394 -1.6221300675011936 0.12789052789710234 0.1290341545832423
Ni 1.3529011532827817 9.161545370877079 6.837635583586845 -0.1530156050995042 1.3833440036030886 0.10326733003178346
Ni 7.805253976746352 3.2751119840808154 6.719866976027232 -0.3079628800040825 0.3402183976036786 -0.4671758721635502
Ni 0.080367284758467 3.608981045120179 10.938498778253878 -0.567032633851888 0.46638500083113876 1.0510500030528092
P 3.6927060615677747 7.111870772527419 3.862226463462985 0.25470762022436777 -0.38267476699567643 -0.41860876188812424
P 5.5657816208983375 8.46368519107264 0.8176601453734911 0.1399392315315203 0.553444353644492 1.2590206242319544
P 6.282478536153821 3.8158136018380695 5.294670097703418 0.057232499259907886 -0.3540725298779515 -0.2599621837550878
P 1.0604859138992442 7.720200728952849 10.401723338048475 0.4527455556708332 -0.5560900187974551 0.030920086617624166
P 4.766427847270639 4.952435965684168 8.201508113553441 -0.021976247160775054 2.31049125976195 -1.3272993540036946
P 2.039438857488194 6.715788469845499 6.816985765906982 -0.7960212520435967 -1.1492226921705047 1.4087051080756965
P 7.340382294009974 7.246755916620161 4.825540643995265 2.3147888586960392 -1.0325321467542796 -1.7256509083046796
P 0.871064333810045 1.4775691331762395 10.537830826512698 -0.142819895513425 0.32755828563750683 -0.3629963147301426
