# total energy = -340861.55963181856 ev
CRYSTAL
PRIMVEC
9.29014722798180 0.00000000000000 0.00000000000000
0.00000000000000 9.29014722798180 0.00000000000000
0.00000000000000 0.00000000000000 13.59706953062690
PRIMCOORD
 96 1
Ni 7.309766542178357 3.596085929293051 11.875082383429032 0.7110663471677561 1.0229025940843157 2.1902772745734986
Ni 4.300520632884953 0.08838274465344231 2.001107931736734 -1.5447167224180365 -0.575772327717731 -0.5545342442745611
Ni 9.048640559139697 5.373058840030015 8.868729425981941 -0.6473405268740207 1.6530146728951918 -1.483210535483439
Ni 7.679393629876653 5.509763356467054 3.782446282655401 -0.18682946832515568 -1.008108980714909 0.49681220697274436
Ni 8.952385343726572 2.0446127621834216 5.571658033348474 -0.34648109068393873 0.7510359455821582 1.735273004775476
Ni 6.026685728440526 1.197778681904675 0.9909818626736066 1.5078491599677257 -1.2810117837910648 1.2904706152111194
Ni 3.505618475601996 7.425512486472551 3.174168318916025 -1.4236447601046642 -0.06437605228322461 -1.4248336382064428
Ni 2.6790462064241116 8.72938464970315 13.505710391952084 -1.4300498923000595 -0.4218969457210927 -0.19735607888809237
Ni 6.185370733215318 1.61936556304044 6.52490703404718 0.6442816854430388 -0.1819788251010737 0.5740476317171403
Ni 5.00950750861781 8.663443184689891 13.439099107323798 0.6214916841317167 0.5541215822171747 -2.162986814288662
Ni 1.210831338757821 8.2489446858879 8.795563942485405 3.628444139553738 1.067860646852245 0.42495090205606817
Ni 2.9342465507343682 8.065863754496482 7.09928803760145 0.3766642991355384 1.1133776574474374 0.0961381751861699
Ni 6.2108536070574365 1.6404820676861338 10.985059337709297 0.031016760096488516 -0.2592440746421406 -1.2044641291423126
Ni 3.509752591117761 5.492056335853461 10.400235279657787 -0.10962721081154023 -0.6911570098383387 0.2294555305257984
Ni 0.28445966299992403 6.514223364736775 2.8174898384219387 1.46290216294339 -1.5503397250317685 1.5257957171438175
Ni 3.306214755533727 0.7324268461998826 4.099571032318204 -2.3064098906037245 -0.7508294859983069 1.0148758671250975
Ni 0.3925997637598324 3.3396592855489047 12.816040519347158 0.08434401076471926 1.7167440927333533 0.017200423038686505
Ni 6.317151471622343 6.439261166766646 1.295247190545574 -0.6931745544889998 -2.9276706896715576 1.0786957897945357
Ni 8.72072623248811 1.8663255467608462 11.002449564302466 -0.39811038482445626 -0.5132366710773548 -1.0372370084291167
Ni 1.2693035254010228 2.9256160039610073 1.4671780872358202 -1.2786347989184559 0.8620109286708443 1.1144078984841645
Ni 7.083718679864663 3.0827123935600773 1.740574113903779 0.5451024094376999 0.8587664535916177 -0.40916432864577273
Ni 0.5609307283998338 4.03881718551619 10.441421289356756 -0.04373163655999565 -0.14747950577262345 0.8434419074194055
Ni 1.2760388821401905 1.3780632789809346 12.266800512217074 0.7636955433276976 -3.0165017896733537 1.214498116339547
Ni 5.402750150565711 8.657989868267972 9.25141846068061 -0.13214184697428855 0.14294330846516673 0.5443115381052884
P 2.0556959078245622 4.833561410296297 11.977019452885848 1.1487892041775118 -0.09290398451958838 0.05567132542037508
P 2.382876312845262 1.2466541464629666 1.0108432684290087 -0.04822566777560727 -0.7536852102795472 -0.31276210116493874
P 4.1840314768126445 1.5743176391394413 11.727785241124408 -0.44406911094275775 -0.1080578094418913 -0.25168554556859235
P 0.9385835742870497 2.275928137974506 9.347455357633914 1.4115898858226592 -0.97456791153467 -0.33469721067513325
P 1.9558825660237102 3.430637697337414 6.085599197076984 -0.10843216206217454 0.5160556285833887 -0.029414705716691275
P 6.691265700431008 1.2230014316244548 8.8754192609997 0.6506595639449245 -0.024965154585769908 -0.3816237000233427
P 8.878147777240104 4.158836597534544 2.5518167111433177 -0.18021967631812186 -0.5031849432683075 -1.67000246570244
P 8.484106182630729 7.770437072695747 4.231870160940465 0.4969294492768991 -0.2177888928211475 0.7571454009140056
Ni 6.1495293452157185 6.138548391194068 10.34905585858734 0.5503358899224974 -0.5016728774991555 1.0051617251611271
Ni 8.107557935248735 4.906451905434931 0.4258250463004659 -0.188197809427592 -0.535818927253245 1.197830425875879
Ni 2.932602194675289 5.141529790852723 2.19485302312938 -2.087385582713579 -0.6677108630002565 1.4015911227387345
Ni 1.6145346864826922 0.9544046950136741 7.317426268566556 0.32745981238642957 1.2471159023745684 1.264650568824222
Ni 2.5506285013130565 2.8557076460820605 11.112327851608443 0.6773704975772077 0.5439317861683665 -0.7321604488338939
Ni 7.239254324729692 6.963671397404629 12.765336753814706 0.48918991454079613 -0.7419265270817221 -1.0612752803252434
Ni 0.049117937400901326 8.193036579879193 12.231502597830223 1.021667950346266 -1.7236030246367156 3.3527545177610643
Ni 8.461763378551144 0.597842341359918 7.485418142832792 -1.1657122051850959 -0.565992879733464 0.7138523945533255
Ni 2.2957626023029514 6.053218388919234 8.299610361816725 -3.2576717804226027 -0.11999029921341917 -1.6891204174788135
Ni 5.370652691898368 3.784239281070104 6.93532158412843 5.151330396360244 1.3579523030028613 2.5041567771723328
Ni 0.08054743448266434 0.46157724888669066 1.0159333400943742 -0.4191507504345233 1.080553411828565 -1.3470996765590735
Ni 3.7571399216105834 4.946715403514314 6.37123313468633 -2.6208288106457958 1.8525001394214613 -0.8422905674237817
Ni 3.9698285522126593 6.995908208280369 1.048534324741391 0.01860347403380022 -0.6883797042035176 -1.042798047456662
Ni 5.473067274922623 0.3603248632804635 4.104628588468278 3.06467037895878 -0.41926850695931017 0.6367558093796388
Ni 5.312208375696844 3.778711643470373 4.683932441037839 -1.4541606693053344 0.3858292534642581 -1.6600098732661022
Ni 3.82707614993121 2.4211888800070933 6.3625579952062825 -1.9799327538455382 -2.3591139058656596 -0.9295612649169926
Ni 3.0109367160886156 0.7358995032331254 9.597355672951489 -0.7638243555960781 0.03466541259266933 0.5324081017994832
Ni 0.49018904431467497 1.959988811097796 3.5966015324641187 -1.4300234099374984 -1.6867264633253405 -2.806590756938386
Ni 7.132556983834048 3.9164380761023194 9.719905721074324 0.105625802961631 -0.21830928410099174 -2.1484145729014417
Ni 2.2624202639072646 3.0628314784954993 3.8523490664460125 3.6420532456967405 0.8680990438464532 0.001940154445506336
Ni 7.0291019043204335 6.985373181325588 8.42071950810474 1.0382261118152636 -0.2421323546625185 -0.05688077234744397
Ni 4.923685128539973 4.509019407087905 1.6685234480744149 0.7589364313761575 -2.284898241784194 1.2526795125052748
Ni 7.540701021933157 9.20004208848896 11.7878980677678 -1.7874059780252893 1.8204245990431551 1.3360902128224474
Ni 8.209981808420217 6.5965340691630185 6.290371693227412 0.027263720811959498 -1.9047662958150293 -2.596072943857355
P 8.142665401617446 2.01256175425221 13.502025919562078 -0.8615332177034776 -0.4620825168010429 -0.17077627151703492
P 1.5496801686949273 0.781283730463721 5.268782511501582 -1.3376637279571544 -1.0508299166222033 -1.2249198258935035
P 1.1376807194968466 8.886657552099521 10.780572978093446 2.035562941615333 2.041577009019897 -0.6145743881865932
P 5.858914959678279 8.034834662760177 11.438561590626769 -0.9366665085032062 -0.08386629979735234 -0.8324715244508308
P 4.580191224989648 1.9841060332976297 2.994374241613322 1.4953785383045408 2.61010293958786 -0.5630201702583851
P 8.558668904270123 5.742054197716913 11.059978801002186 -2.059187008792176 0.31631125196877785 0.3052789054140162
P 7.8628182967154485 4.202026491990256 6.102445950057407 -0.4195955512814258 0.641314889505231 -0.8082170227788402
P 4.57942943291708 0.2850217169071235 6.096531842333056 -1.4421842136697485 -0.9812766910134132 0.5964123725655858
Ni 6.409634887261534 8.053721532071526 6.341863263244669 -0.11716619950106273 2.781514530696048 -0.49069323855920005
Ni 3.6575123827542604 8.047032626068491 11.120622095052205 -0.6429771076990023 0.6946670798741262 0.2834093590344345
Ni 1.706720817410638 8.978750781555204 2.4199114847634577 0.25980611779319773 -0.8697846590789923 0.43058110375865194
Ni 8.498329398034405 7.464187369376213 1.1944862537276255 1.0740112398346728 0.6911248710488227 -1.3497355715200239
Ni 4.931507432504635 3.645435191359891 10.860781322202342 -0.013637131167460384 0.215416535934229 0.09529202513579071
Ni 1.424839170266051 7.789063817884756 4.685196830075356 -0.05838332503489946 0.6902571237318886 0.356143039253735
Ni 2.922503804640151 3.89768126885214 0.2581035153185189 0.6324425267162657 -0.15367252195721276 -1.910406781930258
Ni 6.942945078942445 2.492072703344817 3.9756739128475345 1.1322163874204951 -1.0543754678816164 0.5765611421676134
Ni 0.4078792689031553 4.310331028356072 4.472076207627251 -0.4075720444579884 -0.23332118412879171 0.6333113024744642
Ni 2.581843395993889 5.526392720002377 4.495137140087438 -0.5256314451972819 0.19854341432797418 0.12286145011362713
Ni 8.973055921305397 3.0336697063517097 7.691291521429552 0.13124144664720624 0.4660422727797393 0.9289092331552905
Ni 1.2474716794188931 6.5612129294081 10.625076351846767 0.6031424922005677 0.2570077291124541 0.2737834059088962
Ni 2.688912342778589 3.979936232395024 8.339653683406842 0.05886026467131799 -3.2483394472780827 0.31069339156136816
Ni 4.0582335932194455 7.642892641423977 5.132499767748625 1.4213441369959459 0.04795853015714966 2.599425919489988
Ni 7.79917149806712 0.39072036697592394 2.9622572736368022 -0.023343559821946892 -0.8062647841484759 -0.09136955015293295
Ni 4.681574601671768 6.303494955199478 12.416653374023692 0.3498268672277201 -0.7816492995926408 0.5600785711315579
Ni 5.010780258787832 6.590030966104512 7.4901904914630135 -1.513088296879478 -0.22217262371113997 0.7387872101217922
Ni 0.7714175941092438 5.108066680543092 6.635220100243352 0.42242350764852404 0.4301093063285561 0.8587402283393727
Ni 6.483853873453549 7.474137117055728 3.42937145027045 -1.0981562125119926 1.125686042501145 -0.4418769883874455
Ni 4.757530845395127 2.1906074258468977 8.565229606241433 0.2930607660812695 -0.13212667746563694 1.1403364454244684
Ni 8.367839990091856 8.432044197573768 9.805540440178186 -0.278667730584391 0.36923843898511244 -0.15297472455923977
Ni 5.973871241458225 6.042571880197736 5.309315423850532 -0.17285629397451518 -1.2177719019948123 1.4110041885225184
Ni 0.5807419673602132 5.950794515747753 13.030751615000431 0.2711498249407911 0.7498866624690633 0.35331868243106246
Ni 5.53877648625522 2.736022679363857 13.204046305303518 -1.330307287592083 0.821614784241985 -0.9970146705739603
P 5.955244496269217 4.813838427734568 13.520803165136156 0.6454823906193593 0.29101571062678266 -2.352148273181104
P 5.137293483717467 4.7940411239950285 8.880028103038736 -0.03670378317893679 -0.9101306669962067 0.2540373336302206
P 1.8365877854890178 6.731789322632732 1.4176439512391745 -0.23585500629423897 1.896431550697089 -1.6269012636375917
P 9.005840850867497 7.674191147429848 7.7583115725358 -2.2044139710851973 -0.5531630749586474 -0.5950484023385235
P 3.56293868398912 7.2097952678746555 9.14254722533398 2.2785818126478627 3.798627000461148 0.46114689236065093
P 6.630731101103537 8.36712464875542 1.2021441220863787 0.2760349209472343 3.4528773886265958 0.8114540416588992
P 7.546126467913397 0.5148450950536418 5.2879815297597395 0.004944488489468904 -0.6641133754569852 -1.2282967127855362
P 4.833514959560164 5.709566552866058 3.573011061612024 -0.15134670203751352 0.11277861195632836 -0.6882151536011953
