# total energy = -340853.8741088328 ev
CRYSTAL
PRIMVEC
9.43143775481228 0.00000000000000 0.00000000000000

0.00000000000000 9.43143775481228 0.00000000000000

0.00000000000000 0.00000000000000 13.80386249850639

PRIMCOORD
 96 1
Ni 3.3452743071917794 3.594452887026811 12.614922139249607 0.008651505027410907 -0.3414998354192635 -1.035577618448823
Ni 1.546557696546885 1.7870499224065926 3.348872400613697 -0.12435577527096649 -0.7890607615653636 0.03745968750835484
Ni 0.8033707928919758 6.303322083259906 13.018891358296166 -0.2593304637083598 1.5201611445658594 -1.0284363794183513
Ni 8.890931287027481 1.74227888839914 2.849766384802872 -1.877397416883773 0.4481373674748605 -0.44996336494000566
Ni 7.097609458656079 6.685521658174169 0.16739952806018035 -0.5942403046149314 -0.9501329184207572 1.7028663063099965
Ni 8.741084607374985 0.8631095182771042 6.943383762553263 -0.9797121747397708 0.11052272604261612 -0.7134410180475197
Ni 6.239971117296548 6.4194230793904605 4.419568802313475 5.025082803383204 -1.7768683117187594 1.4920913829128368
Ni 6.294013254406871 5.325612110565031 12.28444362466681 2.7761378397651675 -2.148088557020591 -0.5973737080375906
Ni 5.219140612163908 1.5662128123824717 10.564095657981918 -0.5296961021849587 -0.3400962702035175 0.036793514679265664
Ni 8.397572789254184 6.643438583865922 2.142925411999979 -0.7588215030648479 0.2322068680186904 1.2210009504550714
Ni 2.596286126305359 5.769370678309849 4.52736353140161 -1.4755697311087297 0.2882648873545229 1.3737764145193114
Ni 1.244855441045642 8.860778981208686 12.387213283833065 0.09164928617688087 0.9735109310250655 -1.852977593278512
Ni 2.480336033175462 6.743543861926822 7.729914723715661 0.4356713737973658 0.4043255124962326 1.2208456558241296
Ni 8.740839389998916 8.463856932292813 13.489492740426618 -0.40596433365123635 0.02043332815368739 -0.26554841959361364
Ni 1.0924056846318095 5.06055098991084 6.603988766919139 -0.3485886239452448 2.7846173379910883 -0.8947377294799043
Ni 0.9393447710653157 5.3316576620288565 1.2662148176449 -2.6920851349886217 -0.677055280329634 -0.723263146344264
Ni 8.154232269257074 4.383090831335884 3.1464803529886436 -0.2081230875966093 -0.8949716998675812 0.15206892491551877
Ni 9.08421916799414 0.7151755341579353 10.600109602232488 -1.1297553274745122 -0.4052724497905343 0.7295062990404985
Ni 2.4466186439661417 7.830837707411373 0.08638442272615533 0.9697859167649943 -0.11223713763056153 0.30850872520522354
Ni 7.988163517033938 7.737023198190363 5.798436482523914 0.2070331969665402 1.317678285974163 -0.5453662046220479
Ni -0.4288767024487657 7.839561787136861 10.878285136787534 2.999301109524351 0.5727582234817555 0.30284638471312364
Ni 1.2825717597723751 4.06513820895138 2.9901372991578583 0.18548992357812571 -0.4451001233104334 0.889788613004745
Ni 6.963890537198808 9.028677432314788 10.49789262530614 -0.49114909514969607 0.14909390144759482 0.049120411675734756
Ni 0.7747935371425381 1.4943358268819882 8.875179843190143 0.9000264886826694 -0.09401495819558002 -0.5455055584133895
P 6.412066558108427 4.213739938848456 4.629939846098272 -0.30545785419404164 -0.07979624349303677 -0.04261552067768145
P 9.259360963131785 2.2596403947144568 5.368432723288991 -0.10408262684422721 1.2492730579268871 -1.5196412675066473
P 2.722525917792562 5.005631729109197 10.824450491303114 -1.2985744752651764 -1.153066234286311 1.243884025700832
P 8.763220191283873 5.4919166487266935 7.716496617525983 -1.355138230592834 0.7371758997706143 1.1851839407564622
P 0.0056522605183624 5.823158166606563 4.022045027682483 1.7296985960114923 0.8459389628096463 0.9477461633561355
P 7.618960463051268 1.119313575936478 13.686985156249087 0.19337421142220892 -1.5715464410163709 -0.25240802555691366
P 4.389909760678076 2.46496278998352 8.581957393182075 0.44978698726314154 -0.5541349519536134 0.005253020868823211
P 6.021520160970318 7.306440348690419 2.3987107138325294 0.5570580391376794 -0.09053394162551505 0.08167417724203997
Ni 7.753424468074282 2.3821264740603145 9.155438782298011 0.2729226005704977 -0.6621379968981693 -3.131196387705472
Ni 0.24260864044392355 1.5493022448713358 12.732488780774043 0.043737550097266605 0.8021893285275217 0.9819500629313541
Ni 7.1249700589627185 2.4291610530776238 5.939967463696452 -0.40008242094916263 1.0285343384487962 -0.001438532218739458
Ni 2.7705885235018473 0.22017690939624604 7.818383494138392 0.14577357882511022 -0.9290341887689291 0.3721116467678495
Ni 4.681529809447917 5.814679304257142 11.023805616039946 -1.4372806057205438 0.7581103359304363 -1.0120011166804634
Ni 7.197082830401729 8.960271215829417 1.4847987572404597 2.3977375317751286 -0.7751289819756199 -0.5988729182909364
Ni 4.340017456085824 8.185544641893422 1.3424038563891603 1.0986305810452497 0.5359839920761995 -0.18710817590783907
Ni 8.834814233658124 5.158581351712707 11.558953870413962 -2.418868400216473 0.8689536785372648 -1.0008253025693024
Ni 4.880844379003319 1.2403566453385522 13.286368813248378 0.6106987072812707 0.839935951148676 -0.895666926162393
Ni 1.0636963887567967 8.09304110249062 3.7811812031836576 -1.8245157383933932 -0.37217798122941065 -0.6083785437885264
Ni 5.867297294298764 4.579047809126666 2.320954170168944 -0.1469313465786373 0.1539867107635219 0.7594110570197308
Ni 6.087304437819271 2.010914523881396 1.1717863218399671 2.3968471587503752 1.9474985445762334 1.0819580054855755
Ni 2.5874771636420006 2.836382231788342 10.137293871792187 -0.6278839608113057 -1.166035135742153 1.2609957456804541
Ni 3.4284029976787576 4.4175438726734075 8.917640175000034 1.2255618303528764 2.4815146142927844 -2.3250012804526667
Ni 0.9992042188509697 3.990771323940054 12.369902823370188 1.4753308756250463 -1.852871663828267 0.6741512193089616
Ni 4.996275743068457 4.888719629350112 13.977928970947232 1.579744917666763 1.1053285618907156 -0.5030695007363658
Ni 4.212730775031562 7.231177477112691 6.382601804086374 0.7656392973176298 0.5107547851957656 -1.0070422300132915
Ni 1.2408470800906877 7.6405207292701505 6.075632090718445 -0.1962908708483716 0.20654880113095395 -0.9429453995333824
Ni 6.033186849208619 9.01739743301567 7.2540949271937345 -0.17804632281588692 -0.9494688024741971 0.7760509795692571
Ni 7.46417171012725 2.483750213565329 11.235004740040848 -0.5113435678197 0.10579883820438553 2.2843058596158334
Ni 1.0588863556108516 5.490313304344712 9.045325805862282 -0.5006284953950411 -0.455580454016467 1.8317346247393356
Ni 7.971498166898869 6.392005890458573 9.618779843809351 -1.3169339516089706 -1.131915568350625 -1.479125566780788
Ni 2.878757680660363 5.450088223232055 0.29155591499456124 0.15140352341737795 -0.06371065078508382 -0.962449273894265
Ni 7.887190546719258 3.2043969246408377 13.388931923932484 0.08092984287684772 0.5713777981944611 -0.28664200703911924
P 4.453704004205864 7.304921887246307 12.770864356984898 -0.9301145663173013 -0.20507478768858872 0.3173780026703954
P 6.039392735110643 0.5969958491933295 5.447487032758228 -0.3515613334203236 0.43867827894448963 -1.6069564450845484
P 9.34925199433571 3.5560197790469568 10.173984993258205 0.09278571377416923 -0.35225090328818043 -0.2444473759489403
P 3.1852982636201737 4.876090934482621 6.706731074916523 -0.23097633804569898 1.4739316812846746 0.5481748777154366
P 4.306281204001421 1.1132774559101943 1.8051865767980673 -1.599569151481542 -0.7308581850827026 0.5271278272371502
P 2.7120192963718117 8.172868789838224 9.349894275232256 0.7930999646317438 1.4548366123264362 -2.133020864054191
P 7.801458779470945 -0.036496833852673084 8.492646395386926 -0.9932364344784508 -0.30182180010335113 2.637804005047554
P 1.5438980311603037 2.945617141388998 0.7804844665548187 -0.2772551665075806 0.8999843225908242 0.12098403058525616
Ni 2.959886906388635 9.170233878368686 3.086322871776692 0.704178104688355 0.23747814371995876 0.24273039325783358
Ni 1.8056770115502032 3.4118413933566414 5.322162090712509 0.5885062303446317 -1.3641838857348698 -1.5524310603431586
Ni 2.502367871271398 7.130383704111292 10.978543204136603 -0.8489731216502799 -0.7560493396363496 2.8877445429005815
Ni 6.019831933650466 0.3762238160882421 2.971750711671545 -1.644347484138497 0.5029514871012628 3.8762650599606014
Ni 4.436170961817018 6.982432743404549 3.9677406966085185 -4.671546348514381 2.500087749309281 -1.9812884965424846
Ni 6.09055828377094 8.643818192013944 13.281178693169528 -0.19329733543768646 0.7623536845878226 -2.083285701612593
Ni 0.8032840236665979 0.28633844374684214 1.2882108162781802 0.17152214854412395 -0.057110628970062936 0.2531919549107897
Ni 6.731509347624419 6.535788155772164 7.431212608496232 0.8054150345536709 0.19611834982624934 -0.589684566923449
Ni 3.6031863981898407 9.364417745901749 12.032509178782279 -0.14863753063646662 -1.197432933327144 -1.7338388434321106
Ni 9.39287239296315 8.150629460116386 7.908784766113288 0.349738678389288 -0.9868919803176616 1.138536158990936
Ni 4.18464395403426 1.4936944891291952 6.3346476599088115 0.8532594077304596 -1.7290198247769126 1.6457749606136431
Ni 1.420044393370991 1.071986622355396 6.110376563475987 0.7260836465121947 -0.5356826587856969 -0.7217449099275248
Ni 3.967805773527552 3.238387825538849 1.116683148006274 -1.6503458678137768 -1.3116649899005477 1.8536165124140918
Ni 6.087898618384358 4.136298405198742 7.564944733966059 0.3416746704342309 0.16458634065623912 -1.2736247472983744
Ni 3.5420801143612572 1.8530605537565317 4.21347680174106 1.510153125510554 0.5072791679423393 -1.0848936910751317
Ni 2.324283467620941 2.662296757655298 7.526514455417468 2.055600062771866 0.7761435392830633 0.810795582139294
Ni 4.498333566650201 3.6353098744547205 5.791727901000952 1.2843105091469946 0.32711759855566247 -1.6539400129229387
Ni 8.056117024517336 5.333185554910509 5.711209832425341 0.09657166317916271 -1.0076955473265743 -0.7817865965014537
Ni 5.77043643075199 3.844452001927916 9.70817383825486 0.0323745596759636 0.0858596760782973 1.8911816151520588
Ni 2.5324541570274066 6.678495237206073 2.2960514024855065 0.5855818576089851 0.457016158021729 0.5195762401421374
Ni 2.6387464581152495 1.3110924268965667 -0.03650249271519773 -0.440152549497171 -0.524490132503987 0.5423549285995498
Ni 0.1403426200423628 3.281282003475629 7.535679926419878 -2.393951325259819 -0.12444344988876632 -0.039861354971312
Ni 4.8727616370306235 8.08950431341272 9.999931586012801 -0.9063547448935422 1.364662368033185 1.2539172415671178
Ni 4.8794013690595355 6.4682779258531955 8.607950435045261 -0.7357759340992941 -1.5606189954705898 -0.5839234960699556
P 7.942260710521557 4.731261779601971 0.9548783486954556 -0.5185807089980875 0.8521543475917388 1.17293160575167
P 2.7917526693440053 9.045399371075103 5.429942672644332 1.3511789888347698 -0.8417822603287953 -0.9687772729948219
P 3.465525135840404 4.321767624443856 3.3017736878211084 0.9182453256835411 -1.3544494320559255 -0.665220749588551
P 5.4357618696071714 3.178168096839126 12.276630621807788 0.9655677649185889 -0.15440682902007602 -0.8110238961000161
P 1.7477868479231242 1.1211338433819045 10.94130034357443 0.06098785253728206 -1.4464373325191477 1.371705905143528
P 7.4724619437258495 7.039558960590801 11.90371912658397 -0.5099613427601927 0.9154628778423975 -0.20514240770173056
P 8.413323289947769 9.481424160036244 3.9675341481263695 -0.1920009852237661 -1.2835317219994409 -0.0008019270760050704
P 0.6828587134234638 7.528645017157995 1.3469516955714635 0.6729453719263184 1.120119347046645 -0.4905626265186067
