# total energy = -340871.95187932084 ev
CRYSTAL
PRIMVEC
9.18135925243777 0.00000000000000 0.00000000000000

0.00000000000000 9.18135925243777 0.00000000000000

0.00000000000000 0.00000000000000 13.43784733195588

PRIMCOORD
 96 1
Ni 4.718392191327824 0.032702164400520414 6.246515544022547 -0.1816949753120677 -0.09775822728809616 -0.9660729866897814
Ni 0.7178968852804121 2.638603212019867 10.480029150199952 0.013485950301576774 1.2143394792744957 -0.14448931279604793
Ni 6.501981348712826 6.017187232064986 3.3366977422609607 -1.0732185687300484 -0.16058030482063956 0.4618619161498046
Ni 5.772366294971415 3.4182291281032486 10.124154167476943 0.319878657605062 0.1561757479950407 -0.13428100480447844
Ni 5.295771131889094 7.785314980934496 12.105605283337146 -3.0202939097259343 0.8014655629876197 -0.45032589048574706
Ni 3.0838807596352407 9.034631678150289 2.3576563817636464 1.1462119303686387 -1.002160476440958 0.15844706052772065
Ni 7.227547423145845 7.178592417086106 12.738971232797828 2.675489949634102 0.703418343704195 0.9235451406298997
Ni 0.4006533885845892 7.997505368227557 5.2060775179171905 -1.0596729688351298 0.7127776734319079 1.1007612542350074
Ni 5.791435977564452 6.833244780564917 1.2936681698849928 -0.6163631046558998 1.1262221175102733 -1.2255893411567023
Ni 4.815457518421514 1.3088578101747959 11.444342692763954 0.9438550558318455 -2.85761327073284 -1.0634733164178265
Ni -0.17087427190130985 7.433476123617313 10.268383217494163 0.6438808504601944 -0.6408196950363673 0.07718528823275095
Ni -0.2396417324952393 3.8188577270186026 6.869454224094248 0.37831983246109036 0.028355925434873742 -0.11233149711658073
Ni 4.811316725523363 7.5224343107352425 4.192850285408843 0.4298215998848081 0.8004592332102923 -0.8047609459094398
Ni 4.338421650108347 3.3791532643016278 8.248338259178576 0.022555516703012767 -1.5807255364124777 -0.4723070227425285
Ni 3.188107546730167 2.210393810740774 4.976088148113362 -0.46859486399826394 1.9484627082617154 2.6255578406903495
Ni 1.1922361884623442 3.722572815437869 13.031432405345782 -0.7466786970547269 -1.2451680346195781 -0.13753242186224057
Ni 7.585703055438478 1.9038190531749992 10.96019035310853 -0.1546955639050884 -0.12259611226738241 -1.0456311460300831
Ni 4.764647877848635 1.7971408432334957 0.31583874877250334 -1.3993295803980674 0.6066836725846069 1.10632049349034
Ni 3.7876502878593663 5.5356616792125815 7.998784331532907 0.7962259118552352 0.33890122145415186 -0.282776610546442
Ni 2.329127145017693 7.00399969479954 9.024656131622924 -1.737642276338601 -0.2617925520956072 0.5520212480447203
Ni 6.509207078226895 1.3444539389245342 4.2131144628046515 -1.035086023524385 -0.2016865879426462 1.4002749750304724
Ni 5.545393919727083 0.2592007815216947 2.3576563817636464 0.11216437541109715 -0.9122556837590096 -1.014553450788672
Ni 8.262727284965676 6.768424386194746 1.6271213558528463 -0.6662615321482397 -0.4149850490926079 0.2835497412670407
Ni 7.178858676496409 2.5560077066722666 8.185557044636962 0.1358105540751274 -1.7861829042514656 -0.07070585115599437
P 9.108862965470804 7.864641922486659 7.708701130959723 0.4809155903471459 -0.5034551662105587 0.3396309005313248
P 7.475994997034913 8.758731840923145 1.212113830645265 -0.9557561781448055 -0.4542110844727662 0.22736496654535682
P 1.4510219725583264 5.800773419642989 4.8012355933677755 1.1217072603590552 -0.18531508856315826 0.14573681204990385
P 2.487937111224612 2.2209340108451587 7.269808300376222 0.7268508636955224 0.26637040127427675 -0.02539864257876271
P 5.25099364416341 4.590844752433998 6.175000102687116 -1.2222137398162498 -0.4426241509661151 1.416316087653735
P 2.3789911056160493 1.8210123765709523 11.579379366174457 -0.11634447493071576 -0.5095389105107935 -0.9143405913124963
P 5.161209134737645 5.659940554310971 12.400364550036779 0.19102679423595487 -1.129632942964035 0.4778138114933706
P 4.14342794817723 0.7059179662244968 4.233217048282483 2.5114643665773393 -3.6092320854016617 -1.7444682981214987
Ni 1.2601415194484327 5.179727935792127 10.730819806899682 0.9771145892159238 0.3221337721878259 0.8976189076824413
Ni 6.477549752477837 8.68296726665365 10.300149801415035 -0.11074435513511895 0.49548346085899175 -0.09899852745310048
Ni 2.5790070109070085 0.6289451251137655 13.32599060028384 -0.17525101945893687 0.4070745359962795 -0.7304241828690775
Ni -0.04379783672294978 5.6096175257638174 8.768437455496617 0.260400556844087 -1.129434196689668 -1.299682877838007
Ni 6.761051754937062 0.8956415681034214 13.024109353426569 1.0966084084088985 -1.0629940627885628 -0.0062251549741054076
Ni 1.0809213922379888 1.699506271883298 5.655963189602591 -1.4954867817476307 -0.06926963293010005 -0.25048175506847825
Ni 6.206112055713002 2.6000139602439702 2.0763358701971057 1.8640814165011572 1.1543762113469862 0.06194815956802234
Ni 2.78691888491728 7.472450992470199 13.209067829996979 -0.20248851501865128 0.0834999175968691 0.24569436098216393
Ni 3.7385483800560135 8.581908048405424 9.754654048033633 1.7073677937247758 -0.7234168983133089 1.5298400624165203
Ni 8.722116581327077 1.9900779207540011 3.8143331533152574 -0.24210844340311852 -0.8912739393010198 -0.4260245947362211
Ni 4.882242723612537 6.46441122778326 9.93287983406698 -0.5155293237662735 -0.7238760973379146 0.4746019894242923
Ni 0.3246161279535066 1.500858389079755 12.43780245939709 -0.4203419425291471 -0.26843242600962797 0.611954434065243
Ni 1.5582969708332661 1.4123868139875502 1.7120489263803365 -0.8727008042845228 1.9225575583601793 0.6424330622700742
Ni 0.8324747364848184 3.73540835528624 3.9640976446590748 0.5286959430552185 1.5011061848169376 1.4477439671457133
Ni 5.450219952582438 2.3312296762231846 6.425198561732897 1.0114580996928 0.21847923401995276 -0.6310505314647454
Ni 1.4478544037116254 7.348906626089884 3.029763993559226 0.033603032766426 -1.2923979141408195 -0.09808964248558591
Ni 7.096263171148809 4.859041429480324 0.28935603694228795 1.1146740076613577 2.384759888568538 1.2253756824839992
Ni 2.3081844651935626 5.154451654531351 1.8286760569081737 -0.05149456833486616 1.1586560696692625 0.250625222624878
Ni 1.6298381199738285 6.275330321032651 6.961771870461477 -1.9001449949929343 1.5421682449645697 -0.5862629428364096
Ni 6.861780444262154 5.646691853308683 10.80853082927208 0.5568181552127314 -1.1259585794362414 0.6369260164089159
Ni 4.808534773753651 4.4007171707601325 0.9480680459919641 -0.425596506059867 0.3628304785762396 0.003793662714477338
Ni 7.1929612438834605 6.8402960642584425 8.771487502948426 0.20872344018476957 1.7873036481194702 -0.5166004453432651
Ni 8.385904396986954 1.5385111422401048 1.5625663027570804 -0.36244172777825323 -0.42626550710243366 -0.25927672765228893
Ni 2.777746707300311 5.21950158287592 12.972709351471536 1.9190814268861207 0.1136335037574559 -1.3737309059933567
P 8.760494661846527 5.950319394643179 11.875737107471801 -0.048785396933819204 -1.101609975388548 0.32558882061596184
P 8.131571571994304 3.9039597433666358 9.776530472065616 -0.601691361576338 -0.31909087159644406 -0.14210461461395527
P 7.5849042772075705 4.2056500179572085 3.03507173718322 -0.9871850860780482 -0.8723639897703943 1.0709570263893815
P 2.9415329700721915 3.224585085941596 1.022171712422713 -0.6630898192884774 -0.6230981093868883 -0.806324690852134
P 4.275345713943605 5.967424266415365 2.5216115815406845 -0.23213847667460022 -0.19095274646490984 1.7396770473804426
P 1.157181759892187 0.22506999766451719 3.523107791685467 -0.5363614300202763 1.2966913993098508 1.3110872630202066
P 7.983632334814905 1.796443059951324 5.87837242943588 -0.4451644008894656 0.6657110589614084 1.28008232999826
P 2.2897207522929377 7.381096470659547 11.113919355258162 0.3471431497479699 -0.9216602649023611 0.6312899011690611
Ni 5.859405578063373 6.69714031510551 6.68194241159263 -0.2751278357519326 -0.031715328825409894 -1.6511627072881174
Ni 1.5194690037239953 -0.046372289779804725 10.258009199987244 -0.8324247303732955 1.74360620723152 0.393031170529336
Ni 5.455232974583304 8.228535904139257 8.248728466935054 -0.9456887666064745 1.6861469366727864 0.9642937833021714
Ni 6.340159896761798 3.2895523820553816 12.451602960073833 -1.044859557971381 -0.9102124280767357 -0.8541166135244322
Ni 8.215948260983238 8.636206605389162 3.369311765615312 -0.8599661303266739 0.541125427067823 -1.0543201891636487
Ni 7.17978599375298 4.444824419280572 5.44943678266179 0.9668468887413285 -0.7836581024925536 -1.1650372906052582
Ni 6.5143119138175205 4.838860802451197 8.078833846036476 -0.18748252852812228 -0.9020545748562916 -0.37089551497256124
Ni 7.329873668932751 -0.12344520770337387 7.041015261646959 -0.18594063796229912 0.34675671294282867 -1.4649559601486255
Ni 2.6340125325318944 8.163880774230654 5.134816400225395 1.7477932487296737 0.44088865633224716 -0.9783793148609602
Ni 8.599279179587912 0.3679071536609842 9.026779779954062 -0.5060057005465544 -0.427164107657303 0.41748570402727453
Ni 3.204707443758675 1.4581558884826356 9.361529373809319 -1.3225705810694577 2.3613188839367782 -0.41467985914736327
Ni 1.793275491104623 9.1428339936818 7.071626830608656 -0.07674434404059041 -0.38506769270788527 2.2100104913363676
Ni 5.212946092567095 3.633164741730118 4.23890122762449 1.462485644231262 -0.14458058695827358 -0.3355065939503061
Ni 2.338932836404002 4.298464375845035 6.216818438414853 -0.7649440710228181 -3.3256962280916915 0.13322839517024798
Ni 8.730122726354102 6.012871993346292 3.985382789173008 -0.4085084402293287 -0.5417468627019056 -0.8417164400878664
Ni 0.2470198725683086 8.667166147856047 13.499392500311227 -0.42542809880280275 -0.5454466801509961 0.2936438922782491
Ni 8.238011066602432 6.334219557504361 6.294636882687268 0.3625222033072015 0.19238382248448158 1.5279559580199298
Ni 3.998178849177782 2.3124078903224974 2.69018959556211 -0.8974492148737964 -0.6313816895519191 -0.6073611582676055
Ni 3.683708122892695 5.967938422518017 5.607720656999387 0.6248166347398916 0.8963420978525467 -1.0024471544434415
Ni 0.6149417164036544 2.157435732167524 8.300436962551677 -0.3593070388040135 -1.0554555883196726 -0.8984573444233365
Ni 3.961884937145872 3.2157617999657124 11.755576071874122 -1.2462029036419957 2.9800486890526416 1.7369912730181634
Ni 0.07500711215398156 4.182898610414817 1.8398965957126758 0.044380325887588085 -0.25435486487063935 -1.554505169263368
Ni 1.8546345131408626 4.05077885475097 8.654309490882033 0.6500075321832225 0.6300470299008956 -0.39684360229689075
Ni 3.0862495502510345 4.153655982076432 3.872223457930385 -0.6021359053129243 2.3082664841964893 -0.9351814393172475
P 3.5271200455579548 7.607472057570444 7.257284008597136 0.4069315826605121 0.5245276706101417 -0.27064768849339194
P 1.0039265158657151 6.8823650510862215 0.9763613218122359 2.4237722652759937 -1.306080039613602 -0.39709094242100645
P 3.463006615828932 4.458027213487981 10.115527362583146 0.27512603597971974 1.0350461714253851 -1.0871536907539021
P 5.373711688235891 1.2466816471896973 9.301072879360413 0.8983817539903947 0.02860686510341525 -0.5996434779083737
P 7.042901112780617 7.705593240946366 4.944805421810523 -0.1750461025369824 -0.45383570341121837 0.353859642536197
P 8.29204336417587 -0.18469129902420928 11.436265851272815 0.41761914428134533 1.4714407965420206 0.8316667691613483
P 4.428334698559775 8.796274417775784 0.3709691368794618 1.1098022813913533 0.6257684571301997 1.0170373935527905
P 8.263590332709414 3.0705586077611446 0.08287278238867353 0.1925044072227459 -0.3735391232429954 -0.8484121069404873
