# total energy = -381160.71289627475 ev
CRYSTAL
PRIMVEC
9.33663159791232 0.00000000000000 0.00000000000000
0.00000000000000 9.33663159791232 0.00000000000000
0.00000000000000 0.00000000000000 13.66510410473548
PRIMCOORD
 96 1
Ni 7.385415755777803 7.302338406555713 4.381538425093658 0.2398487008346643 -0.7278695347680239 0.15934334708974493
Ni 1.5397506233941156 5.007030196237756 10.53451132189246 -0.6857990879605351 -0.6126226637768611 -0.5021685861886513
Ni 0.7733700129573217 2.521441431059585 8.35433871953889 -1.957529960670306 1.6500010828798488 -0.47810845991565404
Ni 2.4917696153900186 4.502721369436012 12.537856522059913 1.1164786649702643 2.029732708086801 0.8934580914365322
Ni 0.1440931713058468 7.752709511795759 12.344276401542801 -0.9563444465481078 0.07080226752454258 -0.027594878899133125
Ni 1.1450725264828823 4.730675233366929 1.0742345678086955 1.2355937606675818 0.09985984701213124 1.99432424668052
Ni 2.400793475715931 6.159842790433058 8.625168263746012 0.6515977594884779 -0.2631866042296564 -0.9092243531318533
Ni 3.54651956642061 8.117697119773947 1.9578543293408874 1.3289564299911436 -3.4458662474160846 1.029279444144937
Ni 9.020259973443325 0.1507679293367382 3.373053351660875 0.5156841041765828 0.6795477077341846 -0.7650816250419469
Ni 1.749470045536908 9.247616292942887 1.5038998248390496 -1.4576884799529348 0.47591119515401903 0.49219604835697167
Ni 7.520049985467905 6.375631023206819 0.2785892188461974 0.40059972690521334 -0.4344819814749549 0.2780750913057146
Ni 1.7405815721204743 7.251042951776419 0.4552149497867315 0.3366098543168138 -1.0996001440473708 -1.1605561149054529
Ni 5.322309576832442 4.445637202977947 7.122662398025738 1.0946047477153085 -1.3767712354815773 -0.38281334945606976
Ni 0.4434619977524804 1.6354510987286193 1.3238839629137389 -1.3657008366000287 0.5354623152447746 -1.153222300248201
Ni 4.857177256811533 3.9790670416690865 12.635848206823402 -1.5489379595882355 0.5474683385667152 1.389503595446581
Ni 6.59345464169989 7.8775122682636916 2.0683636362781286 0.8981218154607886 0.0841969436638937 -2.017795847439899
Ni 1.367863233061607 0.2650660414340515 12.888447977558268 1.4028869587320227 0.5753812629268993 1.0688299527440497
Ni 4.856887821227595 1.598496710301891 12.970028664712443 -0.7701168734730091 -0.12834612737728218 0.7035906076160011
Ni 6.495522711379537 9.503570715461919 5.864857512588332 -0.18357599438486447 -2.15586023054621 0.30827218371438525
Ni 5.3881328305991 6.175509658492697 4.875928014334878 0.524963986816612 -1.9077814284922694 2.1050943128472523
Ni 5.36668658749243 8.80315527559423 13.377153425396207 0.5467972806416196 -3.200732129812765 1.6011663207653326
Ni 2.3489751695591994 7.062116208518499 11.462330698081582 -0.4838906138150698 1.388713752555434 0.013890899049479303
Ni 6.432220348182665 5.525437336966829 11.996595174157786 0.6555253766776581 2.143682714643411 2.4170927963732884
Ni 3.484571014826031 5.369226151325698 6.312841241092471 -1.3763526598869198 0.9824282881193531 -0.23596659217143878
P 4.1182668842800245 6.041706389027451 11.68054832243408 1.4355679939048116 -2.2914591828311632 -0.022236442800697188
Ni 8.727164429862766 0.9416179842375972 11.720901244814149 -0.31333288606674425 1.2118635069301773 1.9169903486850468
P 4.49514002446317 7.712095163726969 6.270985121002268 -0.4053133303307987 0.2849227103551673 0.19017755886178214
Ni 7.45738251322935 2.9080620147792406 7.732904648548973 -1.9788708882399273 -0.1128896836128959 1.744879931737621
P 6.915213644722102 5.82390144379786 9.179629741602081 0.6385324416640874 0.4471451787649202 0.5526874208738094
P 8.06868913977094 6.033032658141035 6.219262048489284 0.8960459067683665 -0.7010038207254314 -0.8301881277332929
P 3.5504036052244294 9.051901818410022 12.309034351377178 -1.539432848311278 0.8356203544924576 -0.6612843906486223
Ni 5.181410467244832 8.03205219682337 3.825805297994607 -0.9380387062603844 1.8865878251337898 0.008679272941552792
Ni 1.5305447044985232 5.394416383760087 4.289721988562974 -0.04538511300301861 -1.0875581252811721 -0.28960006122617865
Ni 3.927902299734152 0.7287157043346553 1.1807029805288853 0.2702280844574701 1.56483817575826 0.9232427788981324
Ni 5.105615690779905 0.7570103668225785 7.901532620741065 -0.009316649415235566 -1.8628228615037077 -1.3679801195525083
Ni 1.4623312730064373 -0.008732551666376718 10.599174032333842 0.8947788671304849 0.8973039475451836 -0.3101956259893432
Ni 6.984444769073842 1.5159422124572393 9.682491390484133 0.25908415202550866 0.19625256141126846 1.3050220306627331
Ni 0.32501748749945464 7.28956589433546 4.130031973935537 0.6027995070388522 -0.7592009978914538 1.335827446079364
Ni 8.835469358046204 8.314616019801266 6.148449298720795 0.10658970953679707 -0.158687715783617 0.9420100322033067
Ni 7.172484532316467 7.542541931329448 11.359254283672518 0.9741958729072319 1.1277899762180255 0.23419587342426118
Ni 2.8489051160749073 2.511936739948314 0.2634536051325619 -0.41472331079078895 0.21610996245682781 -0.5200953458704011
Ni 0.40007653738327337 9.516268534628253 8.210500438279542 0.3263760924039476 -0.6558138544523545 0.10684887673545468
Ni 6.402940671046178 3.8157320060103737 3.0825608610094135 -0.7720595990216769 -1.395747262363448 -0.2258341317231272
Ni 3.562877345229005 8.171308059224748 8.901940574055615 -0.18216574430089919 -1.035151329544682 -0.48924133660402197
Ni 4.331170097846141 0.4852901079474636 10.088140029689809 0.3286219510153308 1.3989680832935907 2.7155125127736266
Ni 6.555753322733965 7.102833259536428 7.2893222082470475 -0.49513713326316666 -0.5086251404472725 -1.5072130690456236
Ni 4.067475607614688 3.108855616978639 4.014589190786906 -0.049450541321643865 -3.440509096869229 1.5131381762808072
Ni 2.73455938715572 3.9351848724913143 8.899795016081773 0.6079314289487788 -1.8756940610394215 -1.1353145667298448
Ni 3.173035623559066 7.432995231124597 4.443208745062385 -2.4644262913519297 -0.249241454903474 0.56694084546903
Ni 3.3849865006877073 2.64781274165983 11.335449607388336 -1.5641082395707708 -0.614248115195426 -1.127392740779607
Ni 5.898818576879232 4.199579610103263 10.543037533997383 -0.015977092154546676 -0.9519607156581151 -3.2971371855070766
Ni 5.026609112996435 7.901684807838426 11.103758289771916 -2.16281095083243 -1.1510404621055337 1.044521457905672
Ni 7.033322036232488 1.2204378178877715 1.6575499723939107 -0.043582255466324944 1.1034819956002802 0.7080458151738773
Ni 8.975938982573775 2.936818840538291 3.0990820308732574 0.3655661323398478 0.38936760563481976 0.631859400519286
Ni 6.795405986235043 4.238942849518899 5.2951185042161795 0.6583808438485822 0.2701303825373413 -0.040479448171285126
Ni 8.835394664992284 5.89338465720658 11.14711760757225 -0.8479387668484946 -0.6228021754130242 -0.9513968727348453
P 7.417729838229775 9.749590961809643 7.967917006075295 0.3128500328930548 -1.182570671503331 -0.7749538898503363
Ni 5.290191563647008 6.050408129809085 2.262489949752028 0.7181417659572986 -0.9001941246087851 -0.44021477019367405
P 2.1815600258301275 6.278128577946505 2.369679150442542 0.2672479187832236 0.09299525868181403 0.45284351470127815
Ni 7.569888925695766 1.7964426398206046 4.542923038381895 -0.6503548882203122 1.0561978658023359 -0.4715086952109493
P 3.6332568752847596 2.551159929887851 7.076023121495157 -0.23489547059444707 -0.23300853798437937 0.06808666836559242
P 5.682918304524591 2.238522816075572 11.254811920039897 0.5207000693339355 0.0715507156547929 -1.4445596558804605
P 0.3055197994369137 5.160571105201259 12.956623128860222 -1.0352289768601526 0.8231276213420856 -1.1638337572154602
Ni 8.543391507325298 8.752653434512833 0.9979048023450694 1.1395556013943857 0.3331056978182973 -1.0065786601133115
Ni 0.8723943291912483 2.9822789004801153 12.783254015070582 -1.60919047662139 -1.2094901216019944 -0.679007004739366
Ni 8.10168479633993 5.194285682414225 2.8771194835298664 0.4632032606690474 0.9545690998152399 0.42272278405649777
Ni 4.735483598713005 5.489519314663235 8.937715745893588 -0.8643174653168341 1.4908171441861036 1.319552105958108
Ni 3.681219152532891 0.5713066288412895 5.5953136225718 1.381835537378362 -0.35073883751902823 1.1858943365599255
Ni 3.8050508992998693 5.094150307003244 3.7129590321328565 -1.1867551418983238 2.057538674555476 -1.1741978740586034
Ni 8.351449032015374 3.6817046573833685 0.9264683655763518 0.46621942178755194 0.7294790453469888 0.5260821595814553
Ni 1.9901217286341604 2.8731243388083416 2.3711001857933627 1.1545847278133665 0.09098054224463041 1.5744654144353787
Ni 1.0002146850375333 6.154259484652567 6.495269688659385 -0.9654327820026212 -0.8149479137447706 -0.7108161788301629
Ni 8.200923855103875 3.30151701293254 11.065468763006374 0.7726900335168241 0.03497574474423654 -0.3930023741739296
Ni 2.1348955403938494 7.987899265325138 7.039961315062769 0.5336427455375327 1.3878010109331775 -0.5962521928386376
Ni 4.488716421826084 3.5496099915265336 1.7408794106729788 -0.7200474676204438 -0.12394748408895429 -0.824406230944193
Ni 5.009952561972361 1.0470845763720904 3.3139655440314173 0.521192949809954 1.185075954423688 -0.1111215359688796
Ni 2.7310581502532383 0.601103555376171 3.5474065464359046 -1.043267530893913 0.41002564820480353 -0.7600425199561426
Ni 1.5385835444266216 1.2934409414624528 6.373718881026477 1.8978672547023507 -0.4753964603011296 -0.23525593925765936
Ni 2.550730444827813 1.21877589743806 8.724841475885865 1.3241885762888548 0.052818429352612266 -0.21169563543921607
Ni 9.51888279151544 5.156126868493043 8.367362387152948 -0.8608094521635756 -0.3979126669913534 1.1160765444358391
Ni 6.896334975343919 2.9023293228909104 13.11363539750464 0.7896130345244078 -2.6021960260359576 -2.0123258254642633
Ni -0.013267353702471202 6.923822019186336 2.0541654203911843 0.2687479003675178 -0.4470919569294816 -1.3362725040365826
Ni 8.740095664822599 1.4571027592320642 6.567653793549707 -1.6831641998953786 -0.04801483731638182 -1.074655044066259
Ni 6.037430211690553 8.194537598993747 9.17282427072683 1.1426182994801095 0.5145877857886105 0.067000120169633
Ni 4.8910132102371175 2.5369402397479046 9.166893642245613 -1.0086522548128887 2.5196062789581832 -0.6086076290801969
Ni 0.8049091549748781 7.501264682407122 9.406551907725735 -0.17890455705112415 -1.2961293561587937 0.02016130543922334
Ni 8.487707835628227 8.956920263719494 10.063091714057869 -1.066537814275763 -1.0258045982224593 -1.20207943096022
Ni 1.72982577235605 3.0931514023920403 4.866280472757985 0.04463872175529732 -0.018252004231652436 -0.2183213682858498
P 6.217524501322479 4.333504255781128 0.7367844214843214 -0.10496528655949665 2.4078417100886664 1.3538832751398102
Ni 4.1356703658432945 6.289192486558347 0.15812986346369 0.08416223377121634 0.06221735406900898 0.02967721534945857
P 7.224863036377596 9.739320666895695 13.35789942342208 0.9863309656078691 0.9432073949455175 -1.3733904919348023
Ni 5.648176697820232 2.2336024111486177 6.157126764259906 -0.615765580281217 1.5834786736775825 -0.6608190209764296
P 1.2932728820911337 -0.385893260107113 4.865460716491218 0.9634473761414762 1.0677076662141483 1.1450539055047957
P 6.836991344004788 9.303374657693878 3.5832909568652345 1.269646993597549 1.3632410622056266 0.5231091929960604
P 1.0774192928951931 2.6765789040506207 10.461252374608105 0.25117415314981256 0.07666695383543572 0.6951589319088802
Ni 8.82283689530205 3.808188007564493 6.370780643017914 2.2690283646314726 1.550084671598169 -1.502424903628361
