# total energy = -340884.3981539161 ev
CRYSTAL
PRIMVEC
9.14783255560651 0.00000000000000 0.00000000000000
0.00000000000000 9.14783255560651 0.00000000000000
0.00000000000000 0.00000000000000 13.38877762221790
PRIMCOORD
 96 1
Ni 6.929702609713 2.4419315352904962 11.251901576380817 -0.2562965619780425 -1.3183794258062456 2.35156077610875
Ni 4.479226998937803 0.6158860510442922 6.225902229934059 1.2003243959423264 -0.24163638886270639 -0.08695856556943088
Ni 2.7306371266150515 1.7490747074412631 5.014458441059714 0.1577261232012961 0.9401572952652842 -0.014417975197542912
Ni 3.6737420582752645 4.702104788133984 5.170745498903298 -0.9096167034742657 0.15056328690426973 -0.2279689186779429
Ni 3.934208290904671 3.0646336362744564 2.9396129548753662 1.836849577368398 -1.6198764955803262 1.0169859714895646
Ni 5.439511559891664 4.94654401835526 2.941287008209092 -0.7003682440239616 0.6572711557241713 0.5867077436833122
Ni 5.541445856600458 3.273167624228657 0.9455327663857374 -1.326190437210232 0.37387208110238196 -1.604379685496308
Ni 5.734821886226877 8.044430025493618 12.709216231250906 0.38114521772502746 0.19553548073958582 -0.1669998351937382
Ni 2.692444926241793 5.549944192923034 11.48486668039175 -0.8725025722307876 0.536614683681663 0.49345100380999535
Ni 1.0491100137980125 7.904898137519174 11.376618549743405 -0.16609943486665588 -1.3806566865789125 0.6820982420701802
Ni 0.7326709389113962 0.2172097922258164 5.232990095070905 -0.3517258840226459 -0.22692530790477694 -0.2553192856664377
Ni 8.63253502424724 3.0482407205693365 1.6509029142087621 0.38322549729282385 -0.5877796365912523 -0.42258523003736903
Ni 1.7842023839522354 1.3745715958051425 2.794599685712023 0.02219813336359403 0.5365684038247598 -0.5396611838174706
Ni 1.70147853533538 7.16591793858444 0.3178039314843864 0.8319696451137478 -0.8397927407025925 -1.0156446269703219
Ni 7.6782514413640035 4.586512777615065 4.142956338137609 1.339968207720615 -1.0731262661265584 -1.208817263904686
Ni 7.882705496056773 4.1397417898235584 12.804450655491825 0.41151894492087837 -0.3514026963552722 0.8001067349668801
Ni 7.909417166736993 0.012045865736887646 7.201127030803993 -0.2667339552612826 -0.14465617739121542 -0.7643910267328254
Ni 7.008191011917204 1.401932762587517 0.4140345546763591 0.5554870951061336 -0.7994613880733973 -0.3496453473445333
Ni 2.2085611823031477 6.9753045543502905 9.171539947244353 -1.4708509854768217 0.24787105691850858 1.6452360573910376
Ni 0.6491658654054687 5.254322840285381 1.7149816507775277 -0.3889549435774334 -1.46552880193296e-05 0.06342422989291657
Ni 6.587683451017104 2.1510579076812797 7.456959886310273 0.09838969022450797 -0.23655614612632161 -0.9696997848090911
Ni 3.41629461034602 5.0126554032888 0.8911406695715208 0.5567801028859444 -0.007448228747929108 0.17766528532738435
Ni 6.152292366761965 5.635750861067025 5.234075027996479 -1.6614957137830095 2.480967226429746 0.649104817863295
Ni 5.824836557286243 3.3834996311033545 9.525700109134355 -0.5251570766640246 -0.6366586216801423 -1.756179673021156
P 0.22537606223137502 5.90391042076563 12.777820400520186 0.30589854127588606 0.028684255308569953 0.2715887122504226
P 4.128169781806272 6.3460709010150715 12.825966357354798 0.414955224295937 1.6729083264953255 -0.9050270272210543
P 2.383266485950687 8.789072732699262 1.4700612445707117 1.8234690422964337 1.3925644937600918 1.3700256892276277
P 6.2089814842980315 8.132477912581667 5.963120680917954 0.4369885499468926 -0.6796551798463263 0.244380784377063
P 5.047819671129472 1.7610309244203883 12.755194151800854 0.27818950539639187 -1.0744267301055368 0.4201408822619344
P 4.1743937790484456 6.282301361182261 8.52116656795882 0.49593957455980403 0.33912053655380947 -0.8326288759643015
P 4.927287831101197 1.1114707874374135 3.931119067894839 -0.5235115706408016 0.22254903321395222 0.23989112403682555
P 0.26164721779543904 5.95929139826496 3.9318819971190617 1.0109909302483944 0.29051331706906747 -0.3629505490938717
Ni 0.12441875402554314 8.666308821559353 2.7321410302656775 0.03928799896634524 -0.41819275739662815 -0.02024563762291352
Ni 2.1204584082205495 6.679985080182655 5.129468649436421 -1.6250809225994014 -0.0756973908333148 -1.1460831181002584
Ni 6.3331724572961985 5.928307689842391 9.548862420833778 -1.014515398461885 0.5076823169180289 -1.4321422560527144
Ni 0.07955503946492795 2.550607784496317 10.394256610015695 -0.25292404596138374 1.12599586043208 0.23283216030751513
Ni 2.415960839036681 5.652500542236709 7.253035491114894 -0.09946801089035127 -1.5134114845468516 -0.20156626031469801
Ni 0.26311910403257854 0.19114029938181396 9.582842959158688 1.8418076927046216 0.8461459366141298 0.0890874389869756
Ni 1.800659334484329 1.6062678954587652 11.750138269393869 -0.0675873601316707 -0.7679828578491419 0.6668698551561999
Ni 4.313898223525614 7.300226414244361 1.683317343622559 -0.9057567062982272 0.2881558725804844 -2.662275250716041
Ni 5.976123409926467 7.986304698266868 8.324271367198607 -1.0798515006655338 0.1883765010973014 -0.39980319914584694
Ni 7.3002630055740605 1.8071085563437654 5.189155511658072 -1.3399610086317633 -0.8442114385955783 -1.6405872457651165
Ni 0.5690701890442391 7.659690489374222 7.1964543180014395 1.3519865723377296 0.14106408916458288 -0.12846645500523035
Ni 5.233493225854265 4.816727128415881 7.307260182595739 -0.11509466168401468 -0.583280463169318 0.5974019901723647
Ni 8.360057687644161 7.429741425713723 9.57336397520018 -0.011023604804013274 -0.6530979981830881 -0.7865040565817809
Ni 4.9879745514068725 0.46710570448844424 10.515384888718062 -1.817432863404683 0.4470708738835591 1.1755176213112917
Ni 8.180815059113954 7.311716091769825 5.1099206463280105 -0.5438065734444119 0.7007963327003156 -0.15473824421756577
Ni 7.6071910790886825 6.51018301471477 7.426419847760303 -0.8238770979136004 -0.3020511425053379 -0.6296248547618125
Ni 1.9665918668365503 7.023166013596491 2.65838205742506 0.07325330016819642 -0.5817650549660561 0.9587715679323616
Ni 3.7837264475178225 4.326394162617799 9.50793318899904 -1.5780119941360566 0.8613043895221231 -1.0002102946931226
Ni 0.8134161113747818 3.637736189851518 3.7268461402840787 0.17764831604651987 -0.395608444338209 0.693345018628593
Ni 0.8477378638491354 0.6130666890909897 0.4665010327651694 -0.4286381210996683 0.43856232219191565 -0.34138722110079917
Ni 1.3210110369583343 3.662856137689833 8.409785304705006 -0.27113516965277173 -0.06793343061717978 0.10033241577317559
Ni 5.248916471322364 3.0636548182050105 4.98316919503416 -0.3716478197575535 -0.5096381550928191 0.46316983632795067
Ni 4.15215539842392 6.960768648627392 6.204574058635795 1.9636494433044827 1.0083383231168956 0.5672912868299133
Ni 8.475402706687612 7.9211538357379245 0.40550328615705367 -0.2490887313756936 -0.9684142332284483 -0.18514796685767468
P 0.3649774737322466 5.7328551022555585 8.261223591344109 0.4814766050569385 0.408249015920355 0.19805670449954274
P 8.514125481341505 1.792691572442387 8.523510242626037 1.4537166397893801 1.1230617175044209 -1.9463528610075642
P 1.9368888549534442 3.7006915725985263 10.828816156303429 -0.056878458354598815 -1.0278393692643009 -1.1048274538845813
P 3.8431599147813094 6.267463576989346 3.5678284544617127 -0.7543099883477397 0.3811115362736146 1.3883566263263316
P 7.369036409743199 4.445883149749654 10.571845310443512 1.2932003554374567 -1.2637334563265912 0.1768546165006309
P 6.624796207164243 8.050732882034259 10.644653823495199 -1.0066323961693826 0.18410101365039905 -0.15680463982829126
P 2.519230719279485 8.508883773362133 6.414710746830808 -1.0713357498850389 0.7266953119542646 -0.9629449825837612
P 7.044260915167924 4.682876044377196 1.6260537422102188 2.971439607227392 -1.4757468801165423 0.8970157268808036
Ni 3.1374778258726006 2.3278031779595345 0.6314593209641567 -0.08556194233222038 -0.7454283695873937 -0.3812976841424917
Ni 1.4187007394220517 1.1519133545871556 7.582694098638491 0.9656412984690015 -0.7164504942978048 -0.27019877388143143
Ni 6.936645814523372 0.7936888107508464 9.456734600484296 0.5420818774438212 -0.19163511724391513 -0.08652044959074777
Ni 2.855267195569606 1.823327663232816 9.554967684194043 -0.13474714580761957 -0.6756128914561527 -1.1772934822647918
Ni 6.583008908648066 2.7796512127467676 2.8809973038306507 0.3558867002685548 -0.513464985038077 0.8712100786716093
Ni 4.316761495074556 7.18403064678541 10.490656468107526 0.8615620140588839 0.1445376495354801 0.9669949842834183
Ni 7.49362073953563 6.31743818552566 11.689125886253871 0.3488323645249347 1.0635813027506005 1.005313934468275
Ni 7.816145867334421 4.0789269998639375 8.052265143965402 0.9189732049885012 0.5234141258309888 1.2102779076106123
Ni 3.5551038195589095 8.988989462509362 12.74886110741321 -0.7130101011576883 0.44822941296803454 0.21312748278973614
Ni 0.20632936033983967 5.4389443942813305 10.42340434847062 1.3144150418418588 -1.284917289493058 0.3584511185616214
Ni 9.030319369404305 2.3302822405466372 6.320011470786736 0.7626928130947962 1.2998533419776002 1.2040103294343456
Ni 3.90722218525171 2.8790698555387593 11.350067880913862 1.0048567923261984 0.30119882180737156 1.1090409777452963
Ni 1.3574925926681671 3.820976421151333 13.185777135333554 -0.4791132470310846 0.06164014140930029 -0.4692893189621273
Ni 3.545251604037473 8.743809257861685 8.26936424741888 0.4460858842624705 0.5696865265349673 1.0378044508968125
Ni 5.506162666938265 7.71903247831346 3.5030261243481506 1.0709377431156717 0.13520403083938004 2.2334964902734504
Ni 3.070021709572624 8.759561825297075 4.151472055341793 0.9047097530909516 -0.3974362415755671 -0.6964174869063297
Ni 3.5406045051657093 2.883954798053567 7.132175243902572 -0.23569199835381344 0.370397235179904 0.376797482279293
Ni 5.465079751518791 4.774006750992381 11.544446512974032 -1.182396607819312 -0.09874707356392672 0.5875587788296978
Ni 6.9722034391583065 0.45660673721457884 3.2533790331274757 -0.9025186589769036 -1.870882498583391 -1.3493727888639664
Ni 4.954283084586582 0.8131471651014947 1.5871992387694105 -0.5275104073875496 -0.8355103112771546 0.4210219993153072
Ni 6.046580015261758 5.780936109479953 0.25359438091194714 -0.32547157831180723 1.3132503321097964 0.15814932678164376
Ni 8.250073298401603 -0.01475545370109339 11.75090119861809 -0.8826131783022284 0.5079761940093639 -0.02022892545236516
Ni 0.09392628420418257 5.126966717268257 6.16415253150063 0.28973992923815267 -0.8848942610269213 -1.1720589733387299
Ni 7.699474412589383 6.661607084841367 2.6213616943854103 -0.4555362310420929 -0.20039743681757746 -0.2467716532067427
P 8.74541927636844 1.496466462864702 3.4711614796630803 1.462018474786856 1.3511815599379309 0.38008000968530675
P 2.3040096658228055 3.78466867425757 2.136983052712586 -3.536768885234928 -0.6492032911143722 -1.2437693544998385
P 4.879417224022572 1.6023526231809797 8.43675037034339 -2.018167371846705 -1.2368232621993087 0.9654934600372274
P 8.826606289137938 1.9207063393940926 12.615280799214299 -0.31637835776128737 1.6387049411407388 -0.09949732146638993
P 6.587317537720114 8.13064834609672 1.3406185009775056 -0.7734744770913324 0.9041022014139396 1.1559733806307768
P 1.691772685132739 3.4127635470300737 5.826180373869436 0.9897351061934117 1.0376985214465677 1.2139075339433996
P 6.888555659466553 3.8562779064783754 6.12928831256349 1.2211323338266131 0.3030302185891555 -0.3798902622720038
P 2.778370516207305 8.759369720816155 10.595932468001074 -0.17626043456005772 1.5523027622954104 -0.7103862903815958
