# total energy = -340856.87235312245 ev
CRYSTAL
PRIMVEC
9.45382339324924 0.00000000000000 0.00000000000000
0.00000000000000 9.45382339324924 0.00000000000000
0.00000000000000 0.00000000000000 13.83662614312968
PRIMCOORD
 96 1
Ni 5.148684536056629 4.231890565338601 8.714182658308928 -0.10678639892863545 -1.1159047947446654 -0.8202901518932906
Ni 2.485627589951079 1.5156936783259611 7.59001245529137 0.43996151653228743 -0.38888320979923346 -0.09801790870738603
Ni 0.3634456200345967 6.224378369213079 12.327258091824177 2.1033531617864294 -1.4558673675837959 0.944023977309542
Ni 8.94097231680535 6.350473464715441 6.415877850621424 -1.1146313273488804 -1.773970421345674 -0.3104424518928266
Ni 6.960954105895905 2.254122364380391 12.512391368605792 0.15077386025317904 0.3151403715891282 0.5948159746127434
Ni 5.3450971694467215 1.1727089681126093 0.20033124315810463 -1.4913609325047155 0.39976334704684696 -0.7359451126873068
Ni 9.279457007116232 8.217036341907399 11.587717636146783 -2.015354584988258 1.4974238508693436 -0.48787685215632753
Ni 8.479521746512518 2.50232304194217 0.39026517142390915 -0.8705472482766297 -0.1264558523331048 0.26643622151520563
Ni 2.7229563706896673 4.806654661999052 13.141737114230322 -1.0003203379084256 -0.14265123114604464 1.2520729892695277
Ni 3.054435777917086 7.591656475167502 6.023595233300063 3.155995963247655 -3.541707974407758 -0.6723717588110356
Ni 0.5232038896308865 7.964865058549324 5.603778355546057 0.5607159476052408 2.146637683506677 -0.5640540108395382
Ni 3.7434398756309593 5.831638186842813 9.627856867329866 -1.9131450067970277 0.7303794456740711 0.46640402699453226
Ni 7.519930317604418 4.66744711354559 0.8355449769201602 0.7641496001459808 -1.3939060953896512 1.6328536245662848
Ni 1.2180495047769764 9.139625506323352 10.00649572682929 0.6406332900571741 1.09249670023337 -0.582060731829604
Ni 0.6036133839175366 1.360565891394018 13.020444560976813 0.5353579284564264 -1.632619911288924 -1.0939966818176643
Ni 2.8338875335795093 5.633731849367446 7.2875714117875265 0.596586693359921 -1.091606841429249 0.012125836729256536
Ni 5.0001555178051955 2.203081172251342 3.855879868723394 2.1423133450997103 -1.5209386461618322 2.853950991389904
Ni 1.9370316762528814 9.220086996638289 2.308917669751604 -0.9438691968992325 2.3956335980582484 -0.617083270651376
Ni 5.193684735081313 7.632667160749243 1.837351508501543 -0.41160893353152334 0.31980640960622986 -0.03294457324682068
Ni 4.022497832523951 9.059201831301717 7.95372183699672 0.8039171098519058 0.5337000811380291 -0.9641135489705652
Ni 3.8681641667512667 1.5660731028222938 2.2817152385176485 -2.6284842703085247 -1.1062274195559012 -2.9657659538813825
Ni 2.84756721593008 0.9129509915366123 12.040590752537284 0.43877160998924436 -0.0018627642403516308 0.10940558171903739
Ni 8.62281334664217 0.939766761396595 9.187477923845043 -1.1399348391106756 0.024171197929564823 0.12423776163586346
Ni 7.5365879543022105 8.091026330814957 2.688940568985735 -0.22243590467485563 0.5111561343992422 1.5312886219375885
P 7.069691981774459 3.6156903610468074 3.4136479758669656 0.5794204659932795 1.4510971998886621 3.2635614064341603
P 4.353797617108204 2.771634106987588 7.192762799195309 0.15554788460305471 -0.3839662321135903 0.09317317902057502
P 7.81608078706813 5.519794370660408 8.01518397857638 -0.35855216291585995 0.12670190690563984 1.715074418340414
P 2.7805017932659815 1.3546667056395216 0.3925340890217925 1.3486392531320515 -1.2624095953088452 -1.130354137400776
P 4.962482031857009 9.767879335353902 11.666129537564963 0.361447482185784 1.3980252597643472 -0.2801666837274207
P 6.77700161164752 8.495725599690735 4.719908269937981 -0.35910726408838156 0.5973333417179584 1.0796275575801857
P 6.250697813348526 8.692109871610855 8.554452750182612 0.37110351721830925 0.297100740478598 -0.21001464819236734
P 1.6161972740888648 4.784920322175996 5.771242436534158 -1.9208752855617497 -0.6745597676012899 -0.18491939578663635
Ni 6.232915171675115 6.216030643217533 9.741717770067975 0.6997115842765692 0.12062381903236002 1.0784394508093558
Ni 5.305419472953739 5.818478464775089 0.1754998308139373 0.0632023436900976 0.8602278686284928 -0.3135807404114922
Ni 8.367919362166635 0.7425930952288778 4.671992511800016 0.6503312340712284 -1.397481471445735 -0.2637833572733908
Ni 6.461593704071774 4.630936447866318 6.545055837909909 -0.10452434236733611 -0.5581898387492774 0.3639242258610506
Ni 1.1888939136441765 4.218258152104653 3.435191348458867 -0.7568013873110256 0.4674391531272659 0.11865409690049888
Ni 4.971255179902158 0.265633527772182 5.9200002373100435 1.2767905466208656 0.8191778926657182 0.32578962377285825
Ni 8.381343791287444 8.109877254524037 9.266166822286632 0.024618569879628568 -0.9098938683950524 -1.3862827745164383
Ni 6.823202446234418 2.201625283459367 5.396422921657839 -0.20034447209245496 0.9132514720133756 1.1512759751551076
Ni 7.809236218981182 9.081191424354534 6.697881618862334 -1.5743893097818047 -0.7287879328172352 0.4462591766155411
Ni 6.412509453370899 5.694217410997684 2.5136997729308894 -0.2588126435316768 0.1867551634437945 0.2971081966777657
Ni 0.6256918429096056 2.522365147390139 5.970905294383219 -0.5018358854395809 0.8451010402893833 0.03493537842460435
Ni 8.559699622127717 4.099934099375041 5.057950521317276 -0.22210500369799813 0.2643801103171253 -0.32483805849286634
Ni 5.044011804207614 6.813124670570486 7.98138088789725 -0.7593323812629955 1.2542095759965561 -0.011068599109335777
Ni 1.1772751647783493 2.351648005796073 1.0917710051021188 0.8729185767222838 1.1389441930626318 3.3516751686539568
Ni 2.782184573817745 7.307039670159697 2.1870862485685976 1.3091406808167971 -1.611881650300308 -0.2702892767127087
Ni 4.7051962300803725 8.274430503310521 13.186622921992779 -0.111580220772853 -0.7896089207593499 0.09271783665071127
Ni 6.634844470316809 2.469423736772863 1.8732713102230323 -0.8926834180540367 -1.6136389993110467 -1.9195575951915909
Ni 6.068919698464779 1.6560640470483385 8.211400917823656 0.11629408130875456 -0.731748558107456 -1.5970414999636817
Ni 2.8150271560471047 2.7913453286191983 5.483967216407499 1.7078704443928072 0.508308380537802 -0.3637473339635542
Ni 4.249512492015494 8.979685723319232 3.9402694226296644 -0.27276473483639474 -0.20436079234069965 -1.5546967164488839
Ni 0.6645981074193086 7.208285031711828 3.425174077264213 0.400499196771607 0.15077900245950163 -0.29313352830073386
Ni 1.3795869839229395 0.9500430673503413 4.351286681633213 0.41075866971608616 -0.5283113060222902 -0.16743383740736326
Ni 3.1938229490137147 4.996336173182093 1.9201915807649257 1.1537493763962645 -0.6359394841259306 -0.6803599192228347
Ni 1.0513785995658023 5.657252961798835 0.9516265827571972 -0.7043493401588965 0.38923827914580705 0.43830032677978065
P 3.1433678939307854 3.431302990925495 3.389502911096158 0.5374281807218938 -0.5404934499107789 -0.10762097901478884
P 8.354296402756011 2.626045227790079 7.267065123614324 -0.9241910017440149 -1.064945272977663 0.3795318504913206
P 6.718038115572528 7.341801378523932 12.677435270822818 -1.0370963690861945 2.5570873066227766 1.1184969809518737
P 8.496822243196377 1.0409888477321618 11.416309420067694 -0.2694744941208972 -0.6462470366995257 -0.05445442229413847
P 6.588738173963156 4.442162503722432 11.128230624958453 0.27150823672147434 -0.3872482452989718 0.8730923832959866
P 5.760450897209226 0.26909079096195665 2.211356103807289 -0.214674772672198 -0.036181592126879616 -0.1845455573869854
P 5.0982767500903226 3.8517617832832354 0.8493693027675963 0.12323503140296196 -0.581367048196689 0.0013518860422041233
P 5.0705581401028486 6.279560335958265 6.05670630411184 -0.6250984276463686 -1.0158521149954376 -2.988448225970247
Ni 6.725336467179053 8.611336405126211 10.900438861189635 -0.28427196414504596 0.4059180537943332 -0.07780183877082729
Ni -0.019166681408118794 3.0774463838889523 11.743863599850776 -1.2801414653709695 1.304023928415522 -2.3600675280281807
Ni 4.012514595093264 6.167381268389587 11.933951625436771 1.2567577963397067 0.09004003270823203 -0.30018760693403784
Ni 0.9623992144354805 8.64174935476117 13.58453623648622 -1.574218074311263 1.4219673724022415 1.2831242021483773
Ni 0.003654848097256943 3.01364253027181 9.24556410511552 3.0944913189749546 0.6834892088804359 -0.35401545138777096
Ni 7.400604159602407 3.640147401987324 9.361404638457781 -0.3769288656508347 0.5231403033443119 -1.063762051302839
Ni 3.933943869443232 1.283800845998968 9.671164831979462 -0.23514152516698214 0.6546275474537372 -0.12812938338078578
Ni 9.164999568126348 2.3106467740376573 3.061892953755463 -1.1440313777775521 -0.0360725773528411 -0.3788903602525797
Ni 0.39857602750848903 0.5150641477484803 7.158765905138026 0.07679422344191936 -0.5463208552258333 0.19558895968534054
Ni 7.3758067810222085 9.416849421491388 0.5314306066878781 0.060782421394695314 0.772006120075922 0.02108793101855078
Ni 2.5525512052653108 3.5585514528734477 8.930061659306528 0.7840856769482754 -0.06917681610597763 -2.0436230929156483
Ni 0.507558757411149 5.559727320383153 8.407217014961972 1.3237345194705719 -0.0968287734952913 0.9856658212200443
Ni 7.604655482238709 5.608348333741127 12.777031299546568 0.9817865407702963 -1.7279098795421854 -2.070775999181356
Ni 8.475938747472528 5.898145833930765 10.350252814408252 0.632625332151033 -0.874158619776972 0.07816693541972988
Ni 5.971516956752315 2.0093723323320596 10.483222730232201 -0.07708398676819628 0.24933812838233832 0.5956443840513097
Ni 5.008909758203695 4.364206276588493 4.156813027406977 0.678540863736225 2.0246033572800357 1.0935850482015423
Ni 4.459245562469828 3.2169659085121234 12.681322682973857 0.25554785673747604 -0.21637684296496928 -0.8959338066705345
Ni 8.587701846814927 7.4671590758069835 0.7753543745776472 0.6355826150071441 -1.4385497022409548 -1.7988252756058247
Ni 1.838390483684907 4.501248899500641 10.84939577829592 -1.0221058092146331 1.038750873970482 0.915645940387481
Ni 4.03640440663431 8.42932194465935 10.12881118376651 0.5775183638745602 -1.2274197094972217 0.6832045877604815
Ni 2.9425119635781702 5.710856140048827 4.316294299979859 0.16190390872806956 0.864561205896524 0.33894004511188724
Ni 2.4381788506853455 7.898745018217676 11.794132414614213 -0.2100061635519351 0.9539306949002927 0.21308428825662656
Ni 2.2071179548109097 7.6800686308983535 8.341257689626842 -0.623829588236274 -0.33091486081456556 0.3925246632065627
Ni 6.962929954970727 6.152519858123451 4.746516055684824 -0.07009469993455669 1.1182275293405708 0.3276271912022293
P 3.968393601637759 3.8578689531508714 10.566311438049018 0.27355354928627723 0.033395030520677965 1.0685299050051273
P 2.4074066557640537 7.332196294026228 -0.02307394658814025 2.560401458597674 -3.089504407283324 1.663589877307877
P 0.6124801248135978 3.864013938311805 13.533382543859611 0.5611687188719432 1.7361194119361714 0.42845300167205563
P 1.951656740935904 1.9141061546909361 10.168383942820592 -2.0653833674108752 -0.5561866922763196 0.1979870276038719
P 1.6792637294866948 6.68857054827002 10.282467010406828 -1.3105735566085817 -0.7552294148382155 -0.9786752488348242
P 8.719299067492155 6.0421559246330805 2.412194071895587 -0.9410993474635792 -0.8337447347362995 -0.4083780852990515
P 2.186376266436927 -0.2039945996963536 6.005787066303676 -1.0937020333953809 5.1211330468412575 0.6760924021957324
P 9.258015735816237 0.20322411309540578 1.918420879656244 -0.44633682393101193 0.08674670666894092 -0.07878142907527723
