# total energy = -340860.32515990606 ev
CRYSTAL
PRIMVEC
9.36515311303088 0.00000000000000 0.00000000000000

0.00000000000000 9.36515311303088 0.00000000000000

0.00000000000000 0.00000000000000 13.70684822510654

PRIMCOORD
 96 1
Ni 8.610855301661653 2.343076945173108 10.894956133567165 1.107264602571164 -0.5750313357866483 -0.9083830881774806
Ni 0.9698271289186724 7.9093304354233505 9.308799869983005 1.416877873694476 3.4978873776783823 0.5993334028671227
Ni 6.75963618175201 8.104931016886654 9.97725544515528 0.13444247008300717 -1.372179759456153 -1.838805672653504
Ni 2.2093051025214834 6.8611918987580465 4.941291557730073 -0.6411860772368505 -0.11627248404219975 -0.13034130343044004
Ni 8.987933814159904 3.2561418829470385 3.3759146951873187 0.009491484430203008 0.9550763784689617 0.3554359858843814
Ni 0.18509288001727206 7.576343062326096 4.150803358945926 -1.105535021474567 -0.2881242480116005 0.6026771225283749
Ni 4.1340874977061555 9.11469115736137 10.359457632752573 -0.09493772712016553 -1.4601796218059044 0.7399838015330547
Ni 4.666037542123331 6.418941287897105 9.103032478635733 -0.4854553871990284 0.884883976614276 -0.9751466668562755
Ni 6.474813789525472 -0.10373217851767416 3.5694689907629593 -0.5873515479148981 -0.07171218093332166 -0.25315724501811243
Ni 1.5906243779869242 5.372600860570159 0.5113822958291407 -0.9793771599978554 -2.6920064592318864 -0.1602380909898724
Ni 8.87395990453583 0.43538314430980435 3.6778762535603655 -3.16748699460639 -1.1440180080411135 -0.6387540707565902
Ni 4.113605908523916 4.043601391314389 8.458920681662047 -2.1655368344040253 -1.517815012931186 1.8630966839903846
Ni 4.430672521854455 3.247685149965071 3.646802676556859 2.7788858348239494 -0.26224583758294195 1.1018418888936958
Ni 6.733320102372909 3.3352961544460253 9.019969192356376 -0.9288904641022132 0.5807116740008773 0.7529223639715936
Ni 0.6625517828446639 5.379418691811435 6.303601002478935 -1.2828182408721842 0.0562487951903999 -0.6105930349413419
Ni 6.881926347065992 8.04050813074828 0.2644765977599561 -0.5547342761005092 2.27082967950627 -2.02662270170291
Ni 3.3558245693922846 2.0772939085970012 10.24745883385485 -2.0720854620213993 -0.11879113669899542 0.40042000679423945
Ni 2.012243557220763 0.37399831374103226 0.6879238548211258 0.551038829526793 0.8117525467359246 0.6278711052954993
Ni 5.509940826440089 0.527156022696834 6.071708580869763 0.257697298980311 1.4032903648180284 0.32708006044950766
Ni 1.6553094884038084 3.7570464458191197 11.211817650051296 -2.5986923837580727 -0.1744830309446608 0.1318312577124052
Ni 8.749394007090489 9.360311019950572 10.732599035012043 0.2219275975798694 -1.3885229767008669 0.9499961357325768
Ni 5.502486164808145 5.037712361453703 7.205223596556999 -1.077418465744009 -0.3181259365800134 -3.5968295979722504
Ni 8.528142272097165 6.649979607570557 8.870043397633218 -1.126931227762156 -0.0672366616604713 -0.1402863304582939
Ni 1.8036722391239877 1.2964087374980242 12.055762141040391 0.17691606586618566 -0.7926852456918284 -1.2993054398939299
P 8.776356282013062 3.4333586694561884 8.296631948722395 1.5808587195562323 1.0982166334362828 1.1183072335385709
P 3.949003982841687 6.334776659648004 5.8630632780658365 2.5169122770657877 0.13231231111388178 1.2210078924336067
P 6.47777317781152 4.160909295336668 3.0512679271772627 0.5944660474724923 0.9062416163544457 -1.2481553993826764
P 3.561661262870306 4.706663574986868 0.39818943994891604 1.0193989518064313 0.2521195477822174 -0.43410711463403945
P 9.030779388237978 3.532657384636473 12.534240909008133 0.861556100521613 0.930991569605616 1.192022046724218
P 1.2937583992545063 7.8302604502995985 11.5139580828429 -1.576417653065743 1.4753571008772912 0.4151339159656463
P 0.9863472584648406 0.9453466194891466 9.80722173084676 1.2149028079771336 0.9981708956655905 -0.6128550915026413
P 6.637973481675893 5.666217131279606 8.753741311022083 1.4046052269747098 -0.13726297025093778 1.2953701093952656
Ni 8.365197978461234 5.308992742725729 4.299851638851354 -0.8421743535608914 0.8101553774521338 0.35322535138630784
Ni 1.1607919597440213 3.1695142195104986 5.336747309575516 -1.0773400470975898 0.158031827367173 0.8690302974114711
Ni 2.5361489353793463 6.38540467570616 12.249754725767259 -0.9397040097779493 -1.2215611938339155 1.7924183436382162
Ni 9.370865547160625 7.087660023863171 -0.3062985606365565 0.9902529263700945 0.8676478152416476 1.9963641599286843
Ni 8.524733356476526 1.302505451973396 8.353762190372331 -0.4270329813960774 -0.6436641064636979 0.3296874161653677
Ni 8.478609978917072 4.665381981427055 10.68659834095432 1.1251180858128171 -0.2387768079267243 -0.7996272242273003
Ni 6.021999286301675 4.077812294507218 0.057127432104096314 -2.376802324284358 0.6858571948919802 -0.2040080369869712
Ni 6.856921389079445 2.2140438698402822 3.86833255658846 -0.011314396571554707 -0.06113491963810762 1.256658808867997
Ni 6.705159087891431 1.210146315020839 10.260452983370332 1.4794230434165487 -1.836362353319334 0.24015260522832832
Ni 4.899295403011319 1.2430741922795276 8.890439763924942 0.9156220291280812 0.5457367005875892 -3.648422125337562
Ni 1.1838021401833267 5.83497718480679 9.790472155056895 -2.5217541785391213 -2.1150989894684478 0.16716490001669276
Ni 1.3897605806478002 2.7301480757131746 0.10577097228309412 -0.46281682386390616 1.4281825000740176 -0.34006618829653046
Ni 9.626440567180426 1.7986056914570507 1.816650467879702 -1.0626176532857505 -1.0697313815123966 -1.4199819665410964
Ni 2.7977270183464795 3.5948794598659175 2.24805997785479 -1.6476300115445106 -1.8944713416469245 -2.64910503188267
Ni 7.34802063696579 2.309081440494769 13.216375226365859 0.22354327880642144 -1.1853186665621134 -0.35223650511047727
Ni 5.884312809777999 6.465045935150952 3.1061224366958404 -0.011838130285508645 -0.5853702558188112 0.24947028308482844
Ni 3.758994397602341 4.061713596837228 11.488052197156613 2.749842396403748 0.41565533568675517 1.401829721112102
Ni 4.525672631897725 6.856499957203267 11.392638147359406 1.5782516209506885 1.3991290343514873 1.0289541995950344
Ni 5.008633561997438 1.2059413614118653 12.317151984436165 0.12193456742398355 1.2411414299586883 0.3368949896574004
Ni 2.247786515392915 8.693362297864454 3.4888312790598266 0.39525028966784187 -0.14787365588724855 -0.5413113178263838
Ni 2.2487979518957415 7.41648926911547 0.7733284293014694 -0.33595859388606014 1.2868049934340742 1.3806083498394803
Ni 3.5766361422038226 2.4018901047819154 6.525802363966578 0.08967647872122621 0.15099111847030772 0.20909522170189151
Ni 8.051381073153667 4.013323852299217 1.1030492371007055 1.5136768223930965 -2.10565095668167 1.0174595686918735
Ni 4.258512917859438 8.264569411582789 7.52338686928088 -0.5796886320530016 -0.5367234413453853 0.2651522125964595
P 0.4633184586087074 7.581962154008466 7.301089983234635 -0.4090941375294696 -0.4274677549406509 -1.9793845946515523
P 3.564320966266628 1.4173971465722572 1.9594484448037741 -0.15594871958589915 -0.09933277086406764 0.5405178753908111
P 3.9272955586421308 7.591205559825965 2.510833990834988 0.3753664062597213 0.29166979927101383 0.6911822066493194
P 3.248687221315094 0.23285703234797894 6.257944009529116 -0.6444236103375418 0.4842204863506629 -0.8814896062207465
P 5.468134784323255 3.1847794185809377 5.715165975440013 -0.9413808832597401 -0.616295741753074 -0.2785818557388041
P 7.264577125482594 0.724579062895787 1.1563716076205568 0.9237945376365445 -1.0035118482625298 0.15325137525939414
P 0.6463275921271004 8.380659845740556 2.091144033078763 -0.6926911870946779 -0.03211590669793824 -0.7197844437670443
P 3.033419818963494 5.713454962022731 10.287482687393094 2.8755338597670024 -1.414366420126532 -0.3405456990361103
Ni 4.707375326599967 8.084702286830122 4.750807159243567 -0.8009513423553625 -0.9935735061028954 -0.4351723226737602
Ni 1.3375873143769934 2.1215910813596857 7.71736634279382 -0.13825181652676835 0.8220109912391392 0.5807227297444708
Ni 0.8925599357096812 0.5803959798720106 5.869162802087049 1.6657979407027892 -1.5335676477797524 1.064983582414766
Ni 3.6407968040636853 1.0287994961251468 4.1309698383377205 0.9561241030071858 0.45646542772458165 0.648499065958496
Ni 7.47206208585411 6.090346171464904 0.9279620863391738 -0.5981159855202538 -1.736260822610042 0.5992567839929163
Ni 7.998168274921622 9.069326357179037 6.10544092475431 -0.5960796718165153 -2.4433872112934436 0.7044056473181288
Ni 3.0072816774876694 4.509508378158108 5.1438513842419935 -0.007517648533283827 -0.8239148931300714 1.806380205134947
Ni 7.448855237205922 3.2592885742891657 6.657155187648944 -0.12536981835777763 0.08926767331858175 -1.4828768062931041
Ni 3.613263254820072 8.638604249419757 12.856283228023413 -0.47511698138749786 0.3952181508783258 -0.6989978460389962
Ni 2.390595730500352 6.363153072643973 7.416624127315847 1.0644662764587152 0.5316411417264715 1.6945845259171786
Ni 0.013600074901896502 6.022617386386735 2.0823857421765086 1.5515103483011021 -0.32714896601423016 1.264220680375655
Ni 5.6626396429084975 2.0632368142382718 1.4072134794132416 0.5368036597640173 1.096569841861479 1.1975882279580858
Ni 7.608222042470743 5.7725022504516375 6.777460877083768 2.6028963945370913 -0.1359149408634756 -1.7861854753546271
Ni 6.364258160674839 5.567883026838128 10.868104367447678 0.1782738654456607 -0.5969996125276235 0.12930540596675794
Ni 9.241158180825915 0.5787645702535625 13.393989095353895 -1.237486092594288 -0.3356001821053769 0.010700674246955765
Ni 2.696358604396522 0.3393753438248283 8.498752549567808 -0.7401524659004349 -0.04601220506405624 -0.04847043679656168
Ni 4.9414573209347035 9.171481443964524 1.1529420886637503 -0.5517178578716885 0.09075608493865016 0.4833164864791547
Ni 1.2291950358240737 1.5435832154526823 3.840220240901562 3.971289176146986 1.3766812468709324 -0.9674012185829017
Ni 3.485457014504563 5.4984404187968385 3.2378180249708293 1.1885225182113917 2.585044453957335 -1.3655702245594354
Ni 8.581195862731542 6.91807583688924 11.424356046875827 -0.9019095646379951 0.09972794941995727 -1.9823537045822055
Ni 4.487472173610413 6.853587394681238 0.5612601631476992 1.3848635255714086 -1.5540238587515751 -0.671926700853817
Ni 7.842322767111086 7.6979589366381935 2.415050954017307 0.5471847458880255 1.6745934275072323 0.40984515676288125
Ni 6.369858522051603 7.5403153194893004 7.451673211684631 0.07939489428956004 -1.501423716057356 -0.663860893126547
Ni 3.774531186104095 2.5848570951126906 0.0843659790343855 -0.6232734586224878 -0.04247051045938492 -0.4620938296549526
P 5.366728909762083 2.6453372519206013 10.68536495033004 -1.5197435974124667 2.1672625588458803 0.06443775875909548
P 7.27224718562903 7.385649820932062 4.708315587941484 0.0222176737476198 -0.5392960871685679 -0.23368190990232013
P 6.277452559335025 6.0341552546412025 12.984222453508735 -0.6865544780693208 0.8732767313926508 -1.7219593183857054
P 1.4187550937288298 4.75204710547481 3.3209225179225226 -1.9009826604028808 0.3821386919865484 1.316590966447255
P 6.7386207788599455 9.435953359148078 7.949971452531372 -0.5948560838220593 2.218061900885935 1.380205715084423
P 8.443284622540572 1.5969552212823948 5.533467963314172 -0.056097871434832414 2.897643032961216 -0.9467794285674921
P 2.1398063035633688 4.114870204152449 7.401683899047705 0.4676906070164398 -0.5451435470882805 -0.6184148449786059
P 5.999185774071252 8.897166753184019 11.664925282557858 -0.2823220395075267 -0.8894152888257262 1.7853773776310349
