# total energy = -381178.9560261248 ev
CRYSTAL
PRIMVEC
9.09520704042511 0.00000000000000 0.00000000000000
0.00000000000000 9.09520704042511 0.00000000000000
0.00000000000000 0.00000000000000 13.31175486128798
PRIMCOORD
 96 1
Ni 4.540108954446831 1.5658580899811483 10.343858647960202 1.6194026412677012 -1.7679776940973484 0.4230593414603101
Ni 2.994151176965341 2.4408624611098833 12.110155996093193 0.4911758346225735 -0.009136415083629426 0.42076643166107536
Ni 0.9397531484071036 0.17679262996726103 2.2588719204508694 1.4769244453644113 0.33677851868419423 -0.5496275510015631
Ni 4.822205888856984 3.668424333803642 11.03983751584989 -0.4450708127343948 1.2849923657053677 -0.05966193463700693
Ni 8.66926917961026 2.0958812668173525 9.157635399737282 -1.1966531177383262 1.0354809449699585 0.25025035578396254
Ni 5.9923315305473865 6.627286108347285 4.728894524113382 -0.5782657835635461 -1.929945623294134 -0.251966824254437
Ni 3.6056037403689327 3.4050271445942646 4.306006516850867 0.278941553071068 -0.7172516500428615 0.4809819248087071
Ni 6.68573190730652 1.3653178750337185 7.170735629475992 0.815390400598828 -0.18047395842077305 0.8558004289847583
Ni 0.5527739271500279 7.882615647431106 11.91059897300189 -0.870637493997591 -0.3851322273972335 1.5939242944909389
Ni 7.910228695305404 8.22083910306402 8.247297969194163 -0.9430600707343758 -0.8993718858178059 -1.9315615616310022
Ni 5.697073831883573 3.9558328689906697 3.6603332378257183 1.294648657848209 0.4089936073958633 -0.8238357031527037
Ni 7.5303400972771835 1.838150391450428 0.5050550151021715 0.7069728938246728 0.35937003083146496 -0.47272071324117937
Ni 6.06939521784611 8.411911207722532 6.299867758404315 0.1459144752783487 -1.5023979070451674 0.5086937889016787
Ni 4.9202340278521035 1.719730798787925 2.7329832229450246 -0.7129273116358947 -0.03841279545024352 0.8394422993417092
Ni 0.11368735655940801 0.8219129204183792 7.399511913964186 1.3885785125291503 -0.3131901898412929 -1.6990507892186482
Ni 5.619546289037554 0.1279204456959327 0.9600036263689364 0.43842142573867715 1.598927918353117 0.5904399570322347
Ni 2.102975528128931 5.94640983136513 5.780589658893111 -0.6946243995616488 0.8232196668352597 -1.1912118921180967
Ni 1.0645848618704565 7.443544538692064 7.774902932225001 0.09572371335657062 -0.48909169840003514 0.19272346521208744
Ni 1.7262429668636814 3.92666454075191 0.2954268695104736 -0.07981424121516577 0.22986433592844283 -0.24805900455959862
Ni 4.634799152542785 8.055360910368044 10.855495864230564 0.15824111516450165 0.35866940522001456 -0.8167695403345419
Ni 6.423662618291361 4.123966862075081 12.60402208777805 1.7588111971067322 2.797691140455911 0.6775077944860203
Ni 4.56896804565406 2.3705019412299193 7.641612676428613 0.3296007699888323 -0.4929900050131768 0.38522350155945917
Ni 4.028276191230058 4.942426332467811 13.021917736022711 0.21711474957225832 -1.1668460616792227 -0.4883532775721139
Ni 7.62464829668713 6.812455423786294 13.257389002243539 0.020734918554506224 -2.405443642170135 -0.20703062586337895
P 8.368408833551662 0.9944517221607361 11.762625415331899 0.43116037330088974 -0.8947863233296527 -0.5180340924659982
Ni 1.5990464996298022 4.761831906054089 2.627394238528988 -0.43553561955044984 0.05934157518311071 0.15823905828197263
P 4.931193752057812 4.7477070498786 5.626772430847874 -0.45944199385440226 0.15056097291142456 -0.6821460645889801
Ni 6.553260220123005 8.465300071695566 12.08823109055769 1.5878289802264784 1.3937939952918188 -0.2512104057043867
P 6.7954928630861735 3.468984638880188 1.6938012736941053 -1.22540884971478 -0.11305911931122464 0.9901277136461397
P 0.27276343318202306 6.1226476537169985 4.42899372237321 0.11631387880309646 -0.2859295543531269 -0.43624010181664225
P 0.3100719715154784 5.319486321178211 12.493800005013144 -0.3495175635174174 0.959999783912508 0.5912969057158913
Ni 3.0907786541117646 4.012632435517347 6.758097920288026 0.03407842974094776 -0.26572428304984563 0.29602884757065795
Ni 3.0633202247532316 0.9512312994009652 8.852503035040161 -2.4774183327362236 -1.3341071209541475 -1.5260877944629396
Ni 2.450958140668668 9.047893543891929 11.347152730181344 1.1906616760415818 0.48674428121378116 -0.9089800983315314
Ni 8.499443478059241 4.487520468673052 1.0223985641249507 0.11267062562355434 1.0364885602988665 -0.21666146408492365
Ni 2.377568916921069 5.421907445062423 8.551670884122673 -0.9059361692988849 -0.844152817443501 0.9577009605760022
Ni 1.9514766682994904 7.055761301153009 3.3421692608116356 -1.1933250818063577 0.6038654864095213 0.5772489122632575
Ni 3.055625679792212 1.4205348755755047 1.180338649417032 -0.08228995644916795 -0.1867111975797365 0.2947021583394344
Ni 8.658245788956885 2.6974291500051635 5.8247978211124165 0.3409557899903354 -0.7017478979803075 1.0401793788868925
Ni 6.432675968239789 2.057263018703298 11.6769376529362 0.9528163787901914 -1.5535839430006793 -1.3919949944098673
Ni 3.6924629654017216 7.549530983645685 4.842722856378342 1.368802615453804 -0.2203635955268592 1.7628115765153771
Ni 7.728979414001383 4.831992331384238 5.084357944254111 -0.4732989543421526 0.17339519719712074 0.6258011101403481
Ni 8.421424794045498 8.237265046562365 3.569281122453651 0.834793487715788 -1.5567533418675965 0.2477674414611088
Ni 1.1404661722839178 8.325115649137413 5.579728383145297 -0.33764857999397335 -0.8696370777575346 0.4264408563380333
Ni 5.155999978773564 2.582320212621397 0.27365749201141815 -0.9408520073394634 -1.2573566062659698 0.5033633778277008
Ni 0.5885408279292363 6.897613845145666 1.3285050254713926 -0.0021761817157123814 -0.41450245302923455 -0.5678926678593381
Ni 5.560572968083354 5.5451020213000275 1.5106447275220858 -1.1331239868364291 -3.7232219440572716 -2.0040941815830906
Ni 5.171325402247936 8.897231443088984 8.500114704321799 -0.5993004927466582 0.46237613678206174 -1.0113768528329032
Ni 4.050714066429628 5.865644394894852 10.336390573648744 0.49213357055015244 -1.6049101040784812 -0.5171738013482318
Ni 2.3965506135329466 1.8864186539895913 5.902818324167522 -0.9597717270621019 -0.3241361473298353 1.566771645335547
Ni 3.2273704699800807 7.592251170030921 8.873722152527229 -0.2519362281268177 0.7765204630065078 0.2968739691797726
Ni 2.965937845441602 6.3938394351623025 1.3327861393167262 -0.05868800075951183 -0.44991579953152194 -1.1743140879214937
Ni 0.13005781929621596 4.641756985752218 9.646868393073273 -0.013786769371447223 0.4850923474326549 -1.0375648240821806
Ni 0.407178766060774 1.1350363338185174 4.425505710561684 -0.013682382583099015 0.9160496035838029 -1.1947505013989745
Ni 3.908865221025296 5.616854107821878 3.2450733805145116 0.16776730948738203 0.29320114831387567 1.2639034062455523
Ni 1.8951227669064894 4.60452120907324 11.191111724071131 0.530234491186932 -0.5585305099181478 0.010999693544613314
P 6.440816178334486 2.5440839631933505 8.987630522612113 -1.3398046855595571 -0.28472087875700636 1.3314483431750617
Ni 4.007511834083477 6.204713704761066 7.067889759433765 0.2883947280641678 1.4380689059497944 -0.14907153285009164
P 5.976596822766577 6.097181074649793 11.56875289649667 0.10746208483942138 0.37214455688831394 -0.29422599003396427
Ni 2.8088363382173758 6.609714168790913 12.02164599102444 -1.7505674690407014 1.698418812061604 0.7642465307351612
P 2.998444114579527 8.661347254478997 6.848898098431464 0.009209948634042201 -0.2886364117613287 -0.04556380467272798
P 2.2492082632155457 2.2750204601415205 3.0580159001418052 -0.05921224869409803 -0.286903488230622 0.15665191630051084
P 1.4706403698902308 6.8868815011102 10.112953175557855 0.0929939731302334 -0.47539903140429096 -0.13895424191043165
Ni 6.9403249363240915 0.22632512625297477 9.81395825641593 0.12326228509647158 1.7928325483574994 2.140610503475991
Ni 4.851292360234456 7.292545915237157 -0.013073450268285882 -0.7114088181088394 -0.8896181488651518 -0.622999893246127
Ni 0.39942783081753397 2.603621186969752 2.0343421880221326 1.2527584453723264 -1.1580881129809344 -1.1820351107148352
Ni 3.6663961026850753 3.5724971875815665 1.7340421067030132 -0.18659832615095603 1.7816935010215442 1.040074734988228
Ni 3.9165415755726967 8.347526238716554 2.588736881025652 -0.15738056693641927 0.32706617649243674 -0.5016289116350975
Ni 0.9782258732122024 1.4871663606634846 13.153890096352374 -0.6231302481764042 -0.7137050703421838 0.0030416150398012132
Ni 5.005456115659144 4.507484447620379 8.552708647219662 -1.1324943236722302 -0.6809391887650724 -0.12286813498184644
Ni 7.152752586571821 1.2415684911807217 2.8592046840089025 2.065708354850462 0.6981511817679847 -2.138358988437653
Ni 8.135707967325075 8.760930673838578 1.0516123683977585 -0.23223129349872262 0.029446587395891222 0.044068451074124104
Ni 2.5790368429630894 0.3062938226067224 4.245052259853512 1.064172142257064 1.618348231861258 -2.100585112122989
Ni 3.0545251597682364 3.132725747918175 9.590972890103481 -1.2015981204484274 1.4866756112139041 -1.076908615987126
Ni 5.968802230530651 6.693053548788342 9.103296996173315 -0.3743665042402972 1.177625925903546 0.515740411335815
Ni 0.5270699631850894 8.92423511210703 9.703563364721639 -0.0842697058833581 -0.42208823579629245 -0.09685525585785254
Ni 8.122665440759942 7.039753737167908 6.095479361455695 0.7757144221654447 0.4706746293454281 -0.8502494172595421
Ni 2.421207719194087 8.5513589185291 0.29712403510116664 -0.024772578958989596 -1.2614868263842598 0.368585635892462
Ni 0.3707088057951745 4.774128625660825 6.852278786802636 0.6595085296951223 0.3612541352280553 1.2011301796730731
Ni 7.288753213997505 5.850928350276731 2.869735114453192 2.343602954714254 0.5110342641093972 0.6035497549413155
Ni 1.4134588046775456 3.7860799290941287 4.860946922262969 -1.4250210716269005 0.15703398223027795 -0.8160154357773366
Ni 6.839650092147345 4.601155982553645 9.947088436572468 0.733976161886394 -0.532396017614625 0.8545385315531991
Ni 8.80445123842307 3.262459777851965 11.828812144806882 -0.35946387609685193 0.6218328695212194 0.023994048921752227
Ni 8.17462635726385 3.167542199585768 3.645170618553241 -0.6223123802607992 1.1267448227829626 -0.32830467688522813
Ni 6.234400459787979 8.704331201861715 3.930854702529147 -2.7608685723109225 0.18813224629697922 0.016360443635894402
Ni 1.2114724518473714 1.7969309141887948 10.616989527497337 0.8738158917255726 1.2165010057021888 0.8043868503994728
Ni 7.52887576898082 3.6478327855864445 7.495010675945522 -1.0947597852359339 1.4198798937455934 0.9600298658194949
Ni 6.229043382977057 5.803178514525721 7.009690440579073 0.9569219163181327 -0.4234514346924062 -0.9708200144564635
P 5.769662677431917 7.396376796176876 2.101340209944544 1.2562926837778299 1.8936609299304872 1.3917296565636226
Ni 6.494332375202855 2.006775525702564 4.9311264475274195 -0.3142435708064717 -0.0366580175426659 0.11630796526582549
P 1.2883815206303304 2.799986701991522 7.746895152375161 0.04638732901528785 0.31804083306537484 0.22945424497421774
Ni 8.05127716251048 6.957942351914513 10.29487186408307 0.09043881080854747 -0.683611593390913 0.4524773896111111
P 4.46452778585809 0.4948183598378362 12.404518726406929 -0.43747114601026593 0.6956721240998728 0.3482703213738776
P 8.05679795304398 6.045538490384225 8.068933687490183 0.7422692551331217 -0.7867413694035676 1.6516753852584782
P 7.918450762261388 0.23233160083011123 5.567441668266052 -0.018251232900704052 -0.07432622151740102 0.34656336598509996
Ni 4.503637175139869 0.8610241287415202 5.832332290433585 -0.5352869660091749 0.02321089089882454 -0.5801905113900846
