# total energy = -340860.2180956278 ev
CRYSTAL
PRIMVEC
9.34845032919377 0.00000000000000 0.00000000000000
0.00000000000000 9.34845032919377 0.00000000000000
0.00000000000000 0.00000000000000 13.68240201261748
PRIMCOORD
 96 1
Ni 8.260197274553764 6.94867512487012 12.462876345764835 0.9762080182412542 -0.9766163094232663 1.4718933106984071
Ni 7.199007929245453 4.57954408637513 12.830248009564224 0.46732731013975 1.3539874048178422 0.8989890485570905
Ni 1.4864783986150194 0.11695939759579625 2.5943613838999497 -1.0997412976109253 -0.29480037448019547 -0.46815340558547114
Ni 5.995656698951867 2.2559960919511743 2.7029445699519306 -0.14404605461104222 -0.21435158500482437 -0.4958174471596429
Ni 1.0298346427213043 5.596842457131863 12.386391064105366 -0.32401633392251944 -0.1785777698393247 0.38240274428121235
Ni 1.4450460665143592 0.7375029901520573 0.20333720945131958 1.232562944261058 0.6800896962805836 -0.9123837246964417
Ni 3.339434749172746 1.889013323687746 11.699904437387362 -0.9817158354333609 0.074522139578291 -0.07724416649514439
Ni 7.972629592300062 4.9989155705889425 2.7823437635960047 1.151318655467585 -0.7983499001767735 0.634992803941945
Ni 5.789691640097684 8.572566395675484 6.594808232495055 1.9958093158664791 1.6008917269477072 0.8079678828825118
Ni 5.559168202085459 7.145067370531372 3.2618846790145724 1.5903579172959192 0.3854556721749232 0.4528268025307299
Ni 1.4780928386208199 6.940878517250095 7.071557700629043 -0.825625705173591 0.1166686910393539 1.2564844880736619
Ni 7.718725679878148 0.35500459878676405 2.8303003792194645 0.5690854026158586 -0.27377646393036076 -0.6697885714648917
Ni 6.763725382478545 0.774421890407456 13.440921508205351 -0.16372476398689223 -1.3427267443023585 -0.22234077385788803
Ni 2.1953900881134985 5.443640052243411 4.539205522969366 -0.18734317473678058 0.46631583815610017 0.8689091984525746
Ni 6.2016965454091215 5.651615027930095 1.503531841805007 2.3312796572622108 -0.029667959378077938 -0.7180672039656214
Ni 3.6651347605416538 8.528628678871986 3.175959332157621 0.42132178994391317 0.0989159950416232 1.7292957041461186
Ni 4.67676797036585 4.099398326216736 1.275651210716261 -0.3146158665442259 -1.870629244922004 0.664180738359811
Ni 0.3410772774050936 2.117293133607877 11.801810960175287 1.1492656295932981 -0.24761806036743805 -0.15088030392405627
Ni 0.7421659972034582 4.699101418332564 6.585764541593842 0.7814873200934799 0.5586978887339475 0.629530238165477
Ni 7.469720355457302 6.214214120472926 10.547517219205679 -0.8262222011070094 0.409930517387836 0.4453482347654975
Ni 2.5930357736355383 8.036432766168971 5.407668150011883 1.0060017045639191 0.7927646927795121 -1.1493746443673367
Ni 1.7970619657134472 3.7869170236904126 10.825269963401512 -0.5388556571970397 0.1010160721037615 -0.2953541901011365
Ni 4.569045776594209 1.6334827808990628 0.07813341346211806 -0.3517510808336265 0.635500596816299 0.43569168551233994
Ni 8.255149111346554 7.505702540984252 7.069286962030836 0.31050518680996203 0.41868460943138214 -1.4145929343150412
P 5.113761283552979 8.018810937195655 8.989461475382647 -2.257807813325305 4.177411945484115 -0.16901403741028956
P 2.228979070342215 8.298086543958993 11.59765576131539 0.5568184123230474 0.5459125640438212 1.0674294728520972
P 0.4947891728394582 4.108438277737796 4.641029779393914 -0.8748800713240288 -1.1505457818573024 -1.0141017079632342
P 1.7195446151316163 7.422548074821036 3.0542677489775842 0.03931576688048713 -1.5690190466088267 0.2610055374179376
P 4.675552671815965 6.79356563610339 0.8613606092860027 -1.6669855332529873 0.29446201730417026 0.26929528823055554
P 7.664429880049484 7.038887671073047 4.186294977068556 -1.2068259445062697 -0.20654802980000556 1.7438625462167001
P 2.4288208941950606 2.86812327462697 0.21880328576615085 -0.07371584162691176 0.0005317041337539229 -0.4224011390510209
P 4.0885260784204664 2.3896882808887963 8.07709104657786 -1.722894428605465 1.0640412731061544 -3.514645828083644
Ni 8.125205651012806 9.131248487507534 5.495564150209723 0.29758745030702943 0.9681627793392745 -0.227711294141182
Ni 3.541351929010778 5.991636865286867 2.720950620236019 0.20314620320730817 -0.20436284922322867 -0.7710170166897754
Ni 7.081769012983184 8.527413380322102 8.936620294433691 1.046862704444339 0.7623737391924805 1.0484660443757168
Ni 0.13347997911391146 9.312365365241783 7.955262976022221 0.34510143672759275 0.09557433226289991 0.9280412287280404
Ni 1.9962400495890484 2.9670672734882935 7.9506382976173935 -0.05070241145087397 0.8150217044054996 0.7527513856113681
Ni 5.135832974908949 7.098110104253932 11.046542174914002 -1.312947199047081 3.262838669335523 -1.7992628773638755
Ni 7.702880056477737 5.857925979448477 8.310759303299168 0.6935543064259218 -1.7305964252354131 -0.4827217903179492
Ni 1.8043444085623672 3.653654863470442 2.3186746472389217 1.2617117979108723 -0.6438757082538717 1.3682405723027469
Ni 3.0172030128961995 6.154776672933216 10.566494573484636 0.9675724540534433 -2.348835663868103 1.3420844827326692
Ni 4.392481594196834 9.059910462629345 12.373899664702636 -0.17365462150609448 -0.23381972103176504 -0.31093224704505157
Ni 0.08677979522202343 2.0907528829684874 6.213466244442229 -0.027714949416765174 -0.2990946309801752 -1.1748982425597378
Ni 8.912719111337626 3.3292542867048716 7.987567481168213 -1.545895830327802 0.45083959689737196 2.313944765528189
Ni 8.716897121149783 9.076831157823882 12.563373122234893 0.7980251698475032 2.432934905611868 0.22473987021768393
Ni 3.959302448766264 0.4690538237781073 6.774075051898365 -1.3966749163840397 1.4910971373203676 -0.5488348798969386
Ni 0.33980121392771545 7.561671713431601 4.9310963024351855 0.5724808014506527 -0.7830520934774385 -0.8624292471551858
Ni 3.1255328559427813 6.842112138946063 12.967345838976637 0.028876316714718013 -0.033457251217181086 -0.10335089088452523
Ni 7.44719059003253 3.3454271058687124 4.531063957530182 1.0155690365373802 -0.06642573572340173 -0.963006946169948
Ni 3.8876091827734927 7.4565016466147185 7.329512296602227 -1.578219225050856 -0.2016837597291688 0.5345238625909052
Ni 3.328712076582616 4.942591157027012 6.96566967282269 -2.0565344016606777 0.7295417802641242 1.696294823740066
Ni 4.022937350528266 3.609118845842386 10.06214754497286 0.08088073480646717 0.16808046985242667 -0.6877523550321638
Ni 4.984537653898776 1.427003557273774 9.458261021310317 2.5076961577841583 -2.7420272712347034 2.6912274149740165
Ni 1.7456641855037385 7.652856498474435 9.64309671260721 -1.3221851727055811 1.0898060407750845 -1.5479023192348698
Ni 7.803357201201991 5.280032822077876 5.7931842211610425 0.3380015924580179 0.5531862148870988 -0.25831102130491
Ni 7.228287275847274 7.975125628552516 0.8767724645886084 -0.5368154868385594 0.23383463343010052 -0.19658963303571303
P 8.971361940594722 7.408114067428569 9.249878453186902 -0.4160096337023803 2.3698153514435636 -0.34133168527251534
P 6.709251962092592 8.52358986411516 11.750104681102915 -0.10047588332957534 -0.2677189448823712 0.5714374477878029
P 8.612820823027795 2.3579596402864405 2.7283256127437383 0.34800704041016195 0.43656200393243527 -0.8868506134223436
P 4.4640252849834665 6.74184066013025 5.151137323032142 -0.9398065967940846 0.65108225330464 -0.9137878041328198
P 1.2938442300080242 0.27218574199232404 6.297325583764376 1.208746044347118 -0.38304731984374674 -1.517403122204748
P 1.353879978372293 1.9320629377047902 9.635995629695735 -0.5033471798777847 -0.789199344025757 1.5310844763465825
P 3.964930215897265 3.419205076297054 3.3507660058828566 -1.1438961377512686 -0.8777321960608431 0.21758423300950916
P 5.215257409369059 5.03901107428473 11.04243727035051 0.5163998992966848 -0.8775334497864758 1.027875621818875
Ni 7.364746606098477 2.5156399529086952 11.873794028129954 -0.46296337674409943 -1.2811087143802453 -0.9381191817893326
Ni 5.61549261564739 4.675141339999082 3.616519079166141 0.7928569953830022 0.17372815505650724 -1.5397064136876386
Ni 8.770557226352352 7.234017875932495 2.458768654999317 2.038679632867444 1.4803237008539474 0.1542746743175859
Ni 4.9656724810244235 4.655556336445182 5.66381662537093 0.709974399655158 -0.4060185839279395 3.213878951607368e-05
Ni 5.252426848094741 2.5073946196702517 5.718040442131639 -1.5884025933417611 -1.334450106115863 0.6665456390475617
Ni 3.4328818592084405 8.527357289619799 1.047931372974115 -0.11133905129632438 1.0652797734989459 -1.7393510314995915
Ni 2.693148328794827 2.8636079730916313 5.826705894546995 0.5806335124647742 -0.33921721003267385 -1.5202269648067883
Ni 0.1508596832222908 3.976036174953128 0.7329932976869494 -0.9955681679354209 -0.2477882673967152 -0.3284422309043569
Ni 7.0449080731201645 4.089750725420734 9.651593519160977 -1.0395481730607967 -1.9765676940280472 0.7200873197194437
Ni 2.754810707525864 0.3327020007063162 8.891686967664327 -0.19473072545010334 0.6197492475193134 -0.08445919618634486
Ni 0.15235263074857133 0.1499108155083429 10.348096075620102 0.010900706072903808 -0.04140710219187708 -0.12957228647489943
Ni 1.5971827480590666 5.611584963386994 1.2811995160190004 0.8384192573938334 2.5874008700046534 -0.4276729289729215
Ni 3.759105383798837 4.509617677504883 12.95226772335273 -0.8109290223933646 -0.5666770502846821 -1.7737562484523388
Ni 8.844092137070717 1.8715410699205677 0.2925130125066912 -1.2843704158506526 -0.6772298582342853 1.135757053583902
Ni 5.951279604980335 6.546186942049312 12.891723419287587 0.042468196466539765 -0.43813860439093577 1.6050250323897908
Ni 5.9010503810685915 6.400930719987025 6.679296722528028 1.1793467652493945 0.058019513937577503 0.6443855580107548
Ni 5.288773623186656 6.095675769607319 9.008575317037206 -0.0559160944413295 -4.915450964585973 -0.8170983844288703
Ni 3.787244219453843 1.2723334456750777 4.082103693006848 0.1058587449080435 0.5688635164130397 1.9652887786801188
Ni 3.198226406126611 1.6218626570720953 1.9731802270275187 -0.407365327763821 0.3022362619329505 -0.7898269503074269
Ni 5.996526104837553 9.295276397940338 4.4308130453052135 -1.2003161684122101 0.6453281244296821 -0.7180949718797633
Ni 7.420164219973187 1.1738568693329403 7.701112264510176 -0.14635259125703182 0.3583361902503119 0.26968866701423233
Ni 0.345118612505977 5.582025163273662 9.84046587133356 0.6191496662621014 -1.9948073569645257 0.5797040586719694
Ni 0.937556088983575 7.847285569555106 0.38272181932946425 -0.1538607267086189 -0.6882596336858856 -0.16963367327215945
Ni 1.1621152156509842 1.964801210948588 3.972945577256269 -0.31001359188552413 0.40363080042205324 0.2039483873936294
P 8.665321720382783 4.097584726842294 11.260370215385937 1.7609524118194513 1.3613513013820813 -0.1788546776497952
P 7.063221687421878 1.6322487854484116 5.627010841365175 1.298221719911448 -1.6386406635617068 0.13218915527245623
P 8.804146208581068 6.057879984705927 0.6847552937069389 -0.2913764364003111 -0.7694964662801909 -0.6469206657277826
P 6.299135443758665 4.43566208651925 7.55679088748626 -0.15759731093291568 -0.6242047121875056 -0.9635602475702566
P 5.7356482484293805 0.17649593870957425 1.6792135304861588 -0.5022644883365672 -0.12600668061082815 0.5566530903897768
P 7.265344533168351 1.7701758224098598 9.869909750662133 -0.18261517313349193 -0.701234962899631 -1.4674242191834599
P 6.382607757234928 2.8354971827877766 0.1352187908852839 -0.5475411007861796 0.9221896550432699 1.2086668543697507
P 2.200606523427616 5.533123419316406 8.69995492451936 0.32237031367866414 -0.43059550193635515 -0.5896740254004877
