# total energy = -381158.71228472015 ev
CRYSTAL
PRIMVEC
9.33418408448251 0.00000000000000 0.00000000000000

0.00000000000000 9.33418408448251 0.00000000000000

0.00000000000000 0.00000000000000 13.66152192143151

PRIMCOORD
 96 1
Ni 0.8730197232162898 4.187697776455929 5.770517809462933 -1.568149756629996 -0.8467465463126063 -1.7702446357546546
Ni 6.1250263953271 0.7427779829062315 1.1275246587952266 -0.028824123320543904 -1.9707163774535934 -1.7218662444512671
Ni 1.3107154929391605 6.707283477487545 10.016641979097257 0.10092454083121974 -0.17261229628450916 1.0341478279808318
Ni 6.750640763539506 7.531230593607823 8.378680252365395 0.03516857748133298 0.1666663631137194 -1.540640495466134
Ni 5.609779422223065 2.391072651653059 12.879386831308308 0.4190162817391881 -0.2638509772865327 -0.09574196818901576
Ni 1.054678817717355 8.872403529902753 1.0863627728895349 -1.7138857973489516 -1.6280988834901187 1.0683085330229407
Ni 3.2095966066977315 8.636538026943228 6.822113546107529 3.161065407350762 -0.8096642967483282 2.6305627501041084
Ni 5.151769667218195 2.413932068992403 7.917125374165148 0.430525053709736 -0.7404147184228862 0.9499778809001316
Ni 8.92823128617332 6.8764749020252935 8.518956240792969 -0.16425852500317517 -0.16550113916102466 -0.6448830664724635
Ni 5.482937191833378 8.320911919179824 9.988567552992095 -1.1714917879813502 0.16122359483159332 1.3418212017689535
Ni 7.0632986006969825 5.210873722176434 9.253331590996515 -0.7050443093433921 3.873237328877871 -0.005660026499254768
Ni 0.06247182865200514 0.7962413902947819 12.89776117309373 -0.40742317758495 -0.16436445445342016 1.6141856158431362
Ni 8.940515072706017 2.391894059871051 1.5232053981678095 0.4252596915457386 -1.3353085974614163 0.082543981441503
Ni 7.44741895281976 1.394051090328161 7.195564925580706 0.3132621807298089 0.4065842266234223 1.1404901973935133
Ni 8.419751596683422 7.413330511773093 10.885350242587519 -2.744490130952899 -1.7482434488932148 -0.726822067340116
Ni 8.084729053954256 3.835061627961412 7.518605175929915 2.0311007920789215 0.5879449585245229 -0.5080381575955508
Ni 8.498728130006489 8.685299805702202 6.711919766827052 -1.3886934408404599 -0.34654922491771284 -0.6392942595307765
Ni 8.680025991575322 9.40185713150433 9.27397413956571 -0.25433018228029103 -0.0731532842552224 -0.2887135448561673
Ni 3.681812990200143 6.672270952195639 9.100363912182537 -0.09459782728224353 0.007275450615490696 0.018842329517483675
Ni 9.396163279084158 4.580900289898093 10.11734102611249 -0.7975091494430331 -0.5616592853551166 -2.1255494953778107
Ni 5.069871534210681 2.563381693745459 1.8402484351072486 1.4088575744931608 -0.27368930353319315 0.20651743367238626
Ni 2.6742344664371895 6.270901027495031 2.0107438451910595 1.1612248588377034 0.28676619132180936 -0.011406184954412613
Ni 1.887260054310844 8.383348277931507 8.554612824801255 -1.8412158247568937 0.09060079030770848 1.336889054574659
Ni 6.953789950543785 3.752920806162218 0.8289623733421767 -0.33629000908354983 0.4922379573385006 -1.8240249147999037
P 1.6775769382998105 3.301454314348398 1.482931193188607 -0.29893856501828514 0.5564044647140804 1.2956855837531556
Ni 1.089345978190333 5.27893859405822 7.484369254771383 -0.8768377092710318 1.4990762988711022 3.6439291225632147
P 2.4749963026526673 5.916743406960371 5.437531985747015 0.010935673075897297 0.40957390537936555 -1.0110755195424006
Ni 2.780588162298555 2.276103503687074 7.432714812299274 -0.0036455671723872704 0.5902581800387319 -0.7767991705891911
P 2.9229064702499534 3.281367149744777 11.940648850142086 -2.652518942660225 -0.30045603010407607 0.32800771447009963
P 8.925263015567394 3.5807984477557255 4.153690542812633 -0.9489460972015077 -0.428121843584882 -0.6080162753531013
P 4.210417181030842 8.345059453951928 0.666820124784286 0.46665650932497055 -0.7517823368298795 0.014543445031813663
Ni 2.013066190243746 1.2408864602255505 11.519094685321186 0.8942785304552985 0.9943278677704165 0.004306597795153874
Ni 3.9671123331879117 0.9982350052832951 13.544279447035601 -0.1859637778907507 -0.4180855423948026 0.9756953402708938
Ni 6.573057907320226 3.7996010618233282 3.0270106276961366 2.585582585848992 -0.564329375988112 -1.1795365126626975
Ni 3.13691131358974 8.240413913816614 4.791779114917363 -2.7761861765045994 -1.3775302251347887 -1.24616742241837
Ni 1.3099127530897594 4.837207656464464 3.3282340890917945 -0.3477964670612526 -0.5436083413906767 -0.03937078848813865
Ni 4.6358039619234175 6.253072735490889 6.618761807304041 -1.7092264442000693 -0.06017101306294154 0.3126646563551261
Ni 6.256843745946215 7.998798553331144 12.341258972241048 -0.09676989523289786 0.964512327070881 0.3334751653425741
Ni 5.425214596150853 6.1895442771766485 11.081639737553136 0.7990821503571076 -0.5748035360465584 -0.06417910578107011
Ni 2.1977616948960925 5.302880776775827 -0.1246869672358878 -3.03259509569079 -0.5297783774861199 -0.3072432282292386
Ni 4.335625929168841 2.327908226526338 10.657079965389128 0.6356468925861761 -3.8223955636356557 0.5687491023223624
Ni 1.3995582590624251 2.0214949586624584 9.14357465154106 -2.223765636138931 -1.5397390666977868 0.7071119905056984
Ni 3.449690495143057 0.5970013596734007 9.0688741080437 1.2378612165455198 0.356946766101953 0.032619842917550275
Ni 2.3398559824244027 2.7461356880643706 5.075570053723 1.0882304687578481 -1.72603143157255 -0.9968532052954316
Ni 3.0926112749239474 8.723607298050371 2.396777705094385 -0.290320484331971 0.17744802711025567 0.38790850459079
Ni 4.483227385431415 4.26294063606085 9.988129779748641 2.1057980237824956 3.455758823939448 -2.4221740675509382
Ni 4.432514762154708 3.7518100382310697 6.370982151509914 -0.3181022824309296 1.3419070766145407 -0.9607122365985001
Ni 0.09093922391600306 5.497573192808507 12.037700097934692 -0.24329526462236806 0.8725696780232972 1.8514830110108564
Ni 0.8690610956566264 3.2824125783858578 13.042122733987382 1.3545643603672348 -0.2126042632964145 -0.41365244632411335
Ni -0.38663311453508775 2.5573518106906548 11.386059223651525 -0.5285216222608834 -0.04761271678195671 -2.005399787768391
Ni 4.4956418505442475 6.620484897724965 3.8905010821652906 -3.2697935033868015 2.1371438850836286 -0.4013587165584249
Ni 4.136107739855458 1.1988079574220543 5.749506560614071 0.13848912934855503 0.46940141905995925 1.0576914196287268
Ni 1.333070864326555 0.24794673769301462 6.303863765915676 -0.5249632154856636 2.6326407156790594 0.05826196896568676
Ni 8.103388088360687 5.421200896903847 3.4013506215142315 1.0615470459293912 1.1169725738875473 -0.16241118738179125
Ni 8.536494239665528 7.571731619265403 13.500520791058939 0.5976971528152802 0.06095262842397245 -0.009875093021866864
Ni 9.466543028671197 1.6281150957186823 4.921085569961026 -2.17795834799683 0.9440373470459806 1.5193571606073253
P 4.819239351695891 0.34907982427798356 11.788090008600244 1.3978506818596956 0.24462529628770127 -1.9729249550691377
Ni 7.404836404064313 1.2885654736062644 2.7961314459871933 0.2301528137031391 0.374961971732451 1.812913121157458
P 6.375789256422026 5.11740120064267 6.984289397728883 0.5128144959382717 -0.31594178444450105 0.022585084389367554
Ni 9.115717711929978 4.573106246011465 0.9977122909627548 0.6250809441448719 2.3537788668059916 0.14772710300705524
P 8.32583103430348 7.417017514569761 4.453792968674417 0.10721628737720243 1.0043536274375349 0.45476284321117805
P 0.33593449253482394 2.2804438993844176 7.127024943718285 0.30792328501539873 -0.5616016926443038 0.2736633353912642
P 7.053077668893561 6.060797873190707 12.856270723900842 0.26876486964838225 -1.4935286295799957 -0.8667906094476748
Ni 6.977228087309442 4.022660063929616 11.604507138715903 0.22299794782591273 1.110013626071211 0.5235079710963758
Ni 3.651719580031893 4.385134442671446 4.040845855192273 -0.7145944149256725 0.5657277989975354 -0.5445393378453783
Ni 7.0727074584667085 3.1955393251489146 9.334467121147098 -0.2805464356643426 -3.9173386900724605 1.648520127458948
Ni 0.9445727797692536 0.8563274014408924 3.1153325463357198 0.9026230457652519 -0.6847691040341238 -1.520414398227246
Ni 3.022576890155839 5.934515693858741 11.389966513197564 -0.42700032838592916 -0.34835876732262583 -0.6956366428762472
Ni 1.9444692698571233 1.387255804161137 0.5419128707990276 -0.26539183941109135 1.424340243509792 0.7587235440344029
Ni 6.079624922914454 6.8776510092465095 1.0782532335737236 0.6219285145588193 0.7332863349082209 -1.135082653224697
Ni 6.8198257375367355 0.7407870013960306 5.057468270119003 0.3459419303510171 -0.3058836288775506 -0.16575644970494036
Ni 8.152625910518726 8.433752873126465 2.2052290423323826 0.7866755491626387 0.4564410022445494 -0.37840107932098704
Ni 5.279265290508558 2.7202893317505104 4.258050456908508 -2.8000444711794357 -3.178258631300597 0.42020284584812145
Ni 1.0113402000339848 7.421525925584422 6.562353464770304 1.1643117252931434 -1.8884788715089154 -1.0407964436456012
Ni 5.850638713780611 5.162475976604977 4.623209347053685 1.877559139272618 -0.5344392732968989 3.044796008632356
Ni 6.285313008047072 1.04786486318174 9.362705828895859 0.05762767781579752 -0.8399534346501729 -0.09152227368071336
Ni 6.499793894785922 7.393887405885852 3.309366902375577 0.19238022294005577 0.3589108318068593 0.2661811680816061
Ni 5.9081559574086375 7.7879019933617135 5.540526308680478 1.2075507384874364 0.9016799651256923 1.1120381127004073
Ni 3.2279756155753008 8.377654425511334 11.169509881672823 -0.3045805937954109 -0.07475302464217448 -0.9492104066064878
Ni 4.8427334935673185 -0.03455981735358132 4.0554641212172395 1.4278099472259476 0.7928091728642024 -2.6960515758355377
Ni 8.305650527856905 5.969350869649036 6.0889404388412265 -0.5062854365705022 0.021749732972265765 0.4221026339739956
Ni 4.547325228987672 4.341282444851831 12.392516711880607 1.6654683252775127 1.0519797139559302 -0.0609243462891983
Ni 3.618004506357042 3.797099500432171 0.8004800433833063 0.13259410402035873 -0.028981474834014608 0.40328087328180223
Ni 7.256768238586971 0.8918449061031778 11.57999837101157 -0.6615240174632542 -1.3459017995962304 -0.9186052801261212
Ni 3.2821045503041106 1.7742044141254079 2.8119370202545313 -1.426643694831988 -0.05056151499763551 0.8089865539550131
Ni 1.9360965065441829 7.719855789848518 13.045359829101015 0.1495376738532328 -0.7846238088399325 -0.498768816478483
Ni 4.067174788834202 6.378141470864456 13.428005380105123 1.9206050626194988 1.7598036429269883 0.504723234289705
Ni 0.8791532157167729 7.4899361622851375 3.248163589369312 0.24593373068647972 0.5499923905401496 1.5270995235569054
P 5.270528494008099 9.133658014145666 7.6370774432619495 0.09319271940460079 0.3954364375367189 0.28761774068882723
Ni 0.5978377025862652 8.776102750527494 11.28781880077969 1.8044621621766277 0.07216083843496605 -0.9155220132151073
P 0.5691910909837963 6.593126403555257 1.3925324185433055 0.14076584119787372 -2.699658319350189e-05 -1.2828627209568746
Ni 2.322223708290462 3.876850771051752 9.915970001216479 -0.9703525879017416 0.9755698704366231 -0.1641716217163237
P 3.071945390894014 4.989980250826669 7.778993447870219 2.2912210986784283 -0.9931397609995863 1.1463206880323613
P 7.646087731362265 1.9434705121375195 13.353577394789188 0.1803045227224443 1.0106098927598919 1.158196870644657
P 5.3272429977867235 5.392292928141108 2.395438249648 -0.5100616157834829 -0.47410165274910615 -0.8078316144149637
Ni 6.9753145795288924 3.092499264712403 5.580895722339493 1.2453053315283908 1.0075651923962972 -0.046202723808307526
