# total energy = -340893.16772605316 ev
CRYSTAL
PRIMVEC
9.06656508068648 0.00000000000000 0.00000000000000
0.00000000000000 9.06656508068648 0.00000000000000
0.00000000000000 0.00000000000000 13.26983445803107
PRIMCOORD
 96 1
Ni 6.374067257552499 2.0001839918010815 11.26926078969579 0.6666248290249294 -0.3270831457733012 1.2699663246101804
Ni 4.470541916211237 0.3926257880529414 6.179549543414503 -0.24074035941099828 -0.8098509588378375 0.10419549827300766
Ni 2.6101190253235895 1.585832900471541 4.894711190880327 0.9518624995173542 -0.5556783851813333 -0.10780378444955628
Ni 3.456773006867432 4.200140678868242 4.815264507593654 -0.36368357060515427 1.047196947855306 -0.4048757285727479
Ni 4.902445877561433 4.471802168759208 2.2009875555182705 0.48888498170586764 0.4555017782597317 0.9479775626406513
Ni 7.165605589894085 6.111182202671861 2.706051443919435 0.24687269756098132 -0.4180420907513768 -0.45872079941766164
Ni 5.285100257324748 4.762403713130106 11.588095617767266 -0.410762269260512 -0.18613244225813105 -0.48405285042454693
Ni 6.004006336703796 8.04315842527594 12.370524772159602 -1.128458720150276 -0.18604091098558928 0.1863031635080404
Ni 1.7620959924506572 6.60708704701576 0.48572671837014497 1.4572246529426387 -0.16507459314656733 -1.020652107487242
Ni 2.7289182277412825 1.448682970304981 0.4647729797829871 0.246900208364807 -0.43221349715575247 0.07867987050040644
Ni 0.7077723374444592 9.07209569802086 4.7063723408534255 -0.4492074606105877 -0.14603248891345172 0.19978628559613978
Ni 8.56291740238035 2.303478727302619 1.2847748865785236 0.06048571608988293 0.4962637906684422 1.0618980015109065
Ni 6.638348563457506 0.615317853218409 4.919525472884217 0.5337083086681453 0.3329630015928459 -1.591519541704188
Ni 1.0646867389078558 7.484957212175882 2.5244263853441335 -1.4715516110882723 -0.8391378807274129 1.1035933243671638
Ni 7.721268164768016 3.737754925674324 3.753439176629248 -0.38608816355259956 0.13119208146650954 -0.08124171769031169
Ni 7.818634007305115 3.841712161034262 12.446216084184625 -0.5172241949701931 0.2953984130755106 0.08254372433118688
Ni 7.538649410658487 -0.16761358888009478 6.890892294192709 1.569805547065864 -0.4071269865007698 1.2813964208239932
Ni 6.824095282524229 0.8224779857225206 0.4684703250280405 -0.23759410047253274 -0.3012898388592811 -0.27335660278412277
Ni 2.1382768447373457 6.219400723625656 9.505978890530926 -1.3101333837473694 0.09585612516937686 -1.2399744062337805
Ni 0.17851250677876748 5.1471434028648835 1.5106647292524031 -1.277730799046948 -1.4713382095258853 -0.1922385551558689
Ni 6.440724644118542 1.9319218232135207 6.931975620600043 -0.5497746181023886 1.5268115600028416 0.2718278248444222
Ni 3.347638762839212 4.145133828447106 0.3996487493742224 -0.09731599754435498 0.055848988648819944 0.2672998550670816
Ni 5.9248098906137 5.661299242741624 4.794125811078592 0.3368777632662198 -0.8678879562769118 -0.051279109889950394
Ni 5.423990967989224 2.855115747275119 9.2838154061104 -1.128741027277385 0.9498740083324156 -0.6903352852679917
P 9.480091127219987 5.533977469136215 12.51034843237218 -1.1643780597547042 0.034738689032765974 -1.2246866268367746
P 4.096845302760117 6.391112399927929 12.727469999944315 0.5600880842132548 -1.9491900733460432 -0.5692247564072003
P 2.570724799993141 8.456285530317883 1.4196599887847738 -0.6824137164280699 1.7985828205777155 -0.48796992609076606
P 6.219545788667149 7.60136284140894 5.911631638250568 -0.9532843195655455 0.2928712757782827 -1.640012604208569
P 4.728657957852792 1.1317702540332857 12.848424324884688 0.8969213673947843 -0.7497339389412829 -0.6151096918647729
P 4.111125142782086 6.0648883213054 8.23283096702807 -1.636111212271634 -0.7230877971086643 -0.12507311305296526
P 4.654611320735697 1.0301703255976096 3.99382192360479 -0.18030580827402495 0.553640271705382 -0.182559380194892
P 0.0074536231632133885 5.580842544103555 3.6798313612626696 0.8591372066674752 0.453636957136851 0.02772034873340387
Ni 1.4754293373302572 1.0289916721354788 2.6761272458289525 -0.5275741707459495 0.23978673724847735 -0.6525920050809471
Ni 1.7652511571031306 6.600649785799507 4.773557401507901 -0.1746231560669509 -0.31569058766564345 -0.7354092947884947
Ni 6.076783654707827 5.687438149905647 9.197892475377571 -0.6393482526971633 0.5376436391668096 0.6231608443040235
Ni 8.757667220584732 2.195087941612051 10.140090826531267 -0.41228924742799966 1.0606101359374185 0.17032530002254537
Ni 2.38238504330973 5.339272983757298 6.669352589450602 -0.12458203234915964 0.1253803598807389 2.4904443126822464
Ni 0.6360630608084207 9.202744901015514 9.29932739232855 0.17644066889166388 -0.5681870591713054 -0.5693039463845679
Ni 1.5212064244863992 1.146340224138241 11.460864509812792 0.01783342863699509 -0.21301409714032346 0.7600705449806007
Ni 4.147309804069502 6.9000730980061995 1.591053428652271 0.26919630075884604 -0.20789554496683552 -0.369123510673803
Ni 5.354858409152706 7.79440814537578 8.051326493768508 0.35726532578363634 1.0006504675543348 0.06718781070040686
Ni 5.337767933951809 2.9879499924572617 4.795094120230559 0.8766155659578968 -0.5090804828171361 0.25460066233285833
Ni 0.5406882359658141 7.6636592101650995 7.1658694269383 0.547056190729961 -0.3576396784039196 -0.7613635527604113
Ni 5.1588302052701644 4.413848684682745 7.075011564825183 0.2077471923144293 1.542339994655744 0.1719731200386135
Ni 8.216248219472398 7.198780151570521 9.159158295985916 0.31673548399039 0.38777660699861605 0.25490250984399326
Ni 4.739510636269489 0.321157682048385 10.504082588706503 -0.6835493726944099 -0.7115103766837101 0.9208118008591367
Ni 8.255642444802847 7.299065428067666 4.834054963749548 -1.0953789068771718 -0.2853903940202052 0.012825433899442427
Ni 7.287850087047237 6.213253592492389 7.076921890090344 -0.20617187740750942 -0.06874152834077193 -0.28136533202121217
Ni 2.3182753615349077 5.013266502697009 2.4957769463057704 0.16565052025469537 0.07809905829627194 0.629252044803426
Ni 2.5865459560809736 5.05474603799892 11.61432972386477 -0.7834850672497989 0.10480382128096791 -0.5104192562332177
Ni 1.1284156249487596 3.295088951558365 3.988487156703884 -0.4158162867446516 0.5517343129319208 -1.5557017606746304
Ni 3.425411758209659 2.667854911837813 2.815805841000038 0.5789126731189256 -0.3130359236516157 -0.19436717146309754
Ni 1.136058739322423 3.299930497318194 8.203663827122877 -0.9748265645126953 0.12448433042903077 -0.36625827331086597
Ni 3.774891576296538 2.689116006981634 6.978380114060642 -1.3076592111752638 -1.4217701687897708 -0.16882763243109633
Ni 4.095449051735746 6.867415330540083 5.780047672394793 -0.0973764184686452 0.5502137625223363 0.6170837848720082
Ni 0.6542814167069257 7.476235176556115 11.364923024651853 0.656016971602096 -0.8312384233746781 0.36673624138854904
P 0.2825957673935021 5.658425141607043 7.9875649680932685 0.7829654473009031 -0.12247578463943423 1.1869271486998139
P 8.390008939485758 1.5513527534216682 8.018098439358022 1.2955053494215494 0.5603732195538413 -0.5161553873860465
P 1.8841500917368494 3.176371348226512 10.401201554623142 -0.8041004295073055 0.9653281381039569 0.052152513633839215
P 3.8667268141267153 6.0811356059526185 3.651818395093857 0.5625033785229667 -0.5789116446776611 0.5538505879439751
P 6.960102825489031 3.94391954933119 10.312399989473187 0.5302373194004094 0.39516184371909363 1.2216725226007994
P 6.375898703701347 7.836957535358702 10.159067147271571 -0.639881242382498 -0.4530042086488585 0.095812416415635
P 2.415097210166407 8.393662765218364 5.850935518233377 -0.23528576405433027 0.8227998056890217 0.5180382062310562
P 6.99082034802518 3.9752354651634962 1.5135705633648102 -0.21207744425866704 0.7411503110373301 -0.06796479807574747
Ni 5.5222181342101875 3.105443609501517 0.03394340639634872 0.1252813724090294 0.10136985589875444 1.1114372458916149
Ni 1.5477170608192492 1.0658472592398 7.035732484871419 -0.514560532095101 0.176512916890496 0.4255527973061251
Ni 6.625700705152333 0.8363144707114271 9.109980340263274 1.2880126405889303 -1.369524581221493 0.3389379882293582
Ni 2.901146698253874 1.477360515695133 9.51237444554775 -0.7324795227362094 -0.27638561941843365 -1.4146073324927444
Ni 6.111390733669007 2.170136754475251 2.553806589529017 1.04942815117867 0.26274745980970876 0.27366384961189644
Ni 4.153311870161276 6.783622135947676 10.495682416147547 0.9079747969954686 1.0788765383467742 0.3801496865809776
Ni 8.259559200923158 7.181109416203652 0.4570065601240544 -0.8388236919211038 -0.2690294361636786 -0.2925917968646509
Ni 7.575432465242062 4.178371856079195 8.22421863684593 1.2432319939391296 -1.717411808224339 -0.5148811486593132
Ni 3.1211559668082303 8.322725959928277 12.51596154282145 0.5797007162378597 0.5882285512032128 -0.16048208867987845
Ni 9.073183685832056 4.801643806853969 10.156704400408255 0.826979390988008 -0.21488097514573315 0.3913766656450486
Ni 8.751139293717547 2.470756853274261 5.738818374289457 -0.4140003165818354 -0.5853921101956822 1.495751091152611
Ni 3.5995714070871263 2.6157130959861647 11.647623964200438 0.8484154493745968 0.4822564206457565 -0.09975983109915723
Ni 1.0578142825671237 3.3939417107707666 12.824631844766815 0.7183965622805821 0.02709891309932107 -1.1635650769351058
Ni 2.7798451238704267 8.139273081830162 8.051511451696411 1.0458977694279084 0.19149062124625085 0.351260257240137
Ni 5.549363430099569 7.83637727519273 3.562910751132312 0.2848314361929417 -0.3382368483972755 1.785749930479105
Ni 3.168664767897195 8.231362183482952 3.4850171704461235 -0.12550634393564192 0.6942860423856236 1.5241653806292461
Ni 3.3431145468576484 4.008736423183292 8.924202794875232 0.2729570533528589 1.1214306096589008 0.5547103648411091
Ni 7.414781998353632 6.207405658007202 11.333473830312675 0.15495010311805574 -0.24913269723975162 0.7520067941358597
Ni 0.4965694235652391 -0.0371629436609845 0.3677679865366026 0.8740586038639979 0.7181934451308406 -0.1024638602938816
Ni 4.736582135744348 0.3482077790042871 1.930601731335934 -1.0429140042092362 0.2495157916107832 -1.6261978098126637
Ni 6.157122487999682 5.846311570035787 0.40814049424062027 -0.3063086322301112 -0.09892705078521673 -0.053641696584856007
Ni 7.967225942619437 8.978873275731406 11.145705267230143 0.09915407919435826 0.6757180495754492 0.47819536320250544
Ni 9.071733035417127 5.059986512622856 5.892934567715136 -0.06484245039668188 -1.1362923572620818 -0.4605090016663359
Ni 8.18534029906929 8.832167185956493 2.517274678798527 -0.8710059330806033 0.32830339133364744 0.2547942664009031
P 8.443438207580659 1.547853059295649 3.7580440850401424 -0.21024681880783144 0.28467639867231614 -0.5490099720222222
P 1.628200959152597 2.9799623486100524 1.5547073825061941 0.7532866892895479 1.0557803186489432 1.2897435072371077
P 4.601553781809623 1.037369178281701 8.343116664823139 0.5008128434917052 -0.29281856816347634 -1.4680171155724524
P 8.702243308169304 1.6440402483706165 12.421016473164267 -1.5049039612964727 -0.32809564619821563 0.17802061178427406
P 6.312741011261323 7.912110293417181 1.5936673193686735 1.4714724211109045 -0.5567397365663121 -1.6972957542007543
P 1.7963222756779174 3.3869513890838214 6.016238039671186 0.15634158414894364 -1.0733355539238871 0.8548226384525214
P 6.978816215841632 3.9790252893725016 6.076084622539133 0.4093826153041659 0.07977104668205617 -1.4204673908179473
P 2.410237531276391 8.433283654676146 10.426082022552214 0.31847586372026443 -0.4262405674017691 -1.0783265793805752
