# total energy = -381165.9106914171 ev
CRYSTAL
PRIMVEC
9.28233282748321 0.00000000000000 0.00000000000000

0.00000000000000 9.28233282748321 0.00000000000000

0.00000000000000 0.00000000000000 13.58563236559923

PRIMCOORD
 96 1
Ni 6.582928363332909 5.456535834636438 10.427000452246668 0.9102772198764001 0.9247998389726073 -0.7740131232036218
Ni 2.700286324891846 2.526864499945113 9.69352536086033 0.4285825852713845 1.6600936912291604 -1.7334004703431112
Ni 1.5070331525572374 5.012088454650647 2.8803032473403007 -0.6880678293900536 -1.5100811346220382 -0.2955773618555361
Ni 1.6194236389060597 8.780390716840904 1.2424875940923548 1.9740241016705875 -0.4393904745201658 -0.775419259522529
Ni 1.5753696871211644 1.4857487632941182 11.165406318851744 2.055914508688492 1.131984216805031 2.2473074280146133
Ni 8.72879022843546 7.344664445364905 4.852869527223103 -1.642151762038759 -1.7151649211716913 -1.1695783730087213
Ni 6.483384625671466 9.042254609340624 11.570624703676701 1.5232271850856929 -0.8746936663448356 -1.108534213312207
Ni 4.1109317329622845 8.035149340312861 4.365172045478665 0.3945933728101333 0.9056718598939046 -1.4251421705857972
Ni 3.966248010570552 7.000865400651685 11.137528688553477 -0.7703981521588538 -0.11703044525414684 0.10771431005954353
Ni 5.530061193272797 1.225518561378919 13.143406476394656 -0.1962970414959587 1.617762791671433 1.3287283731407376
Ni -0.06369165519747923 8.727676348491467 7.256290138841844 -0.11044379317556463 2.7125408317398123 -0.7535386573993539
Ni 1.6514569696287045 7.307117408919498 3.902785628994878 -0.20994291441416743 1.3168501336459126 2.2799141583060414
Ni 7.87773025722815 8.297718690110443 9.146187033981398 -0.27167741530948697 -0.2788433369303069 0.7826954814689682
Ni 8.766996310514395 1.9194007901560501 6.227952461615014 -1.07953628341796 -0.305782327412996 -0.3910632481696878
Ni 1.7344781547875967 1.5601652258856697 6.302144291751193 0.6854334770910002 0.27157945627904195 1.5138470294223736
Ni 8.498755455335319 1.4200576935971727 1.5187381743020232 -2.7816641689000354 -1.9865407460803595 -1.991270547455861
Ni 5.562688593298904 3.772785628964824 8.658015225027476 1.2247460193198003 -1.0844969698573452 0.936070012569788
Ni 0.8357896054084626 4.841395635566696 7.49573719746872 -1.2541036465463111 1.1283437918389665 0.8754097185752535
Ni 1.3809326605644434 6.79867762615135 6.346120271940009 0.36224889504115676 0.9979646931920554 0.8223861151903707
Ni 3.9657560469286217 5.729835561227814 3.8232146869625017 1.4933807911482215 0.10877720410641911 -0.23824458957233807
Ni 4.179537455179343 0.40640373873202085 11.395968328458707 -0.6766719288482863 1.937336773551883 -1.2474259774158196
Ni 4.747393450626613 8.350479470124212 12.981927300914093 -0.949708686399145 -1.0023309405805512 1.817409466365915
Ni 6.096144263142545 3.773815967913017 12.854738919509334 -0.4751864011728526 0.7357846758500425 1.1455203036182529
Ni 3.507858566619124 7.795052518385321 7.750576220454997 0.2987524171494081 -2.218427254645154 1.3004737491704186
P 1.33810397671794 2.946658003837208 8.063575556483544 0.7602780330057165 -1.4506876231550692 -0.41792279156469314
Ni 6.952866457398484 5.213431536860121 5.329887685004515 -0.34801449660932965 -0.2619313916663166 0.46549565624764994
P 7.531081536324882 8.695893640756221 3.226940829444128 -2.165652276935967 0.1951215331306188 0.5782786390793525
Ni 0.3206424089109077 6.712556141815012 2.1263828895819845 -1.7497238900934833 1.416404019381851 -0.46120782750557343
P 3.630543160117009 4.870235843783229 12.896596671337992 0.16295086193534516 -0.7787190133197234 -0.19030354291668516
P 4.763980979459231 2.012419047812273 9.792850035466122 1.0853078957944147 -0.634216845007869 0.2693058297535168
P 5.000578361896061 9.745706923303223 6.240206997465502 -0.3498304667721459 0.20128446740822112 -0.31042008329532345
Ni 0.0966309416079046 2.937422082634938 0.016066789958802147 0.41078463785801506 0.3724623452390488 0.5924019658546119
Ni 9.362346575912543 0.02962363711047499 10.952519727489365 -2.344459646287595 -1.3855057871410978 0.49686697147007974
Ni 9.072440755822816 7.968492907997788 13.703691801155925 -0.30437207732903065 0.21525378510411963 -1.3122167486389593
Ni 2.55375541825966 8.641109312177534 5.8321083047520395 -0.0246692206119059 2.0079755189153676 -0.2612338513786598
Ni 3.6754974981899644 2.0930825204230485 4.877377670690794 0.4734645333857394 -2.052030600253053 -0.14201642577552318
Ni 1.4414441885218248 1.8237927616300451 1.9554348063442009 1.288310374335007 -0.3924243901832725 0.7510043210132744
Ni 3.6569513971224925 6.422956638709883 5.899614998757692 0.13871127266169014 -1.3328418810884788 1.0814687245539825
Ni 4.387860851704501 2.7420011287943575 7.018202013746637 -0.7946356845499799 -0.5298303137699779 -0.2147015121450754
Ni 3.305995673769121 4.626583888367782 7.846680853789364 -0.24435173091134044 0.7942618461503288 1.6975292103677992
Ni 8.882013697064465 3.3142198206889306 2.428934031735884 0.3923814527604791 2.0170350580144745 0.5509467840336189
Ni 6.814782473674906 5.200297035853878 1.5060083830087643 0.044387267866123556 -0.5379935663070605 -0.5938263570059643
Ni 6.183110439769744 3.5665507573346513 3.2981706671625752 -0.3332679344277744 -0.31279089752034517 -0.05395665672211353
Ni 0.789325031778111 5.2166617886976985 5.034522924955939 -2.6160866679751207 -0.7355072538189397 -1.4500595026527672
Ni 5.402327010695481 7.024043385819591 1.2957459071477728 -0.27680419501309106 -1.1733995465270244 -0.998583557722977
Ni 1.2264375123327125 3.9050681546467754 11.833439107061961 1.1893897513076934 1.0118594488962767 0.12042738675083775
Ni 8.41381282727304 6.788773376982686 7.154995753201757 -2.331507971222933 -3.0213730017227256 -0.05601611035430353
Ni 4.378838424158164 4.718738889067411 1.5864620748967544 1.0683720392710248 0.21256466830773071 -0.7184929786491303
Ni 6.667611086074924 0.2900107104511197 7.64744764584047 -0.2841716911217558 0.6233086827357975 -1.1937305447748927
Ni 6.264033817700784 2.4465630383161354 5.700327953278171 0.7411605954499753 0.18302372142582027 -0.31469634207317415
Ni 2.53547850484532 8.755653299751406 10.005234452620419 -0.3521858543781999 -1.2468778182218332 -1.1926044015902493
Ni 6.026127626329764 6.6219884200355725 12.357708980300814 0.3325045738991887 0.0382209911544116 0.500006545540326
Ni 2.4797380959813724 3.5661052053570548 0.9475526060555025 0.09335058513870374 0.2565485300878485 -1.072128420989663
Ni 6.083176844127902 7.177452501105929 3.42894574198699 0.8236467270703492 -1.003020510448408 -0.12523226433864884
Ni 7.557396950001699 1.3412785345583178 9.552166570101415 -0.7107133347037116 -1.6400159466426787 0.2688198912560338
Ni 6.844467374182301 8.817677847966044 0.5853884657657089 0.346881411446151 -0.32591740759997423 0.565189152885246
P 0.8978958381523262 0.936076857932522 13.138461777676618 -1.4796904381453226 -0.08788570536939058 1.4208782531031205
Ni 6.43394692082394 7.718881694881982 5.671240835007386 -0.5576198251784202 0.3681835153580369 1.0329592069893694
P 1.3120020566970538 7.5839258573344495 8.319515464147798 0.40933813521947565 -0.43145399328190853 1.9459119168154035
Ni 9.176115131609897 2.7612898164911575 10.274582690110483 0.2575175788693371 0.624329410690828 0.961151381018448
P 8.460632914252182 3.5545858302696005 4.781449401680891 -0.6679954841202108 0.3836330171438877 0.003594402219477681
P 8.233846957655352 7.512832469909141 11.18161420027012 -0.5801252053697881 -1.4656614708560822 1.2386034940281831
P 4.295715133337739 6.185681645973792 9.145956832126306 -0.04996707594674621 0.4237203720830767 -0.46006908591543993
Ni 5.52084383673626 5.452015338530404 7.232148647522384 -0.005451767143190611 1.6315436475056093 -0.9521481490785731
Ni 1.122976630201562 6.612427617182973 11.76519818052656 -0.5972901471848487 0.0995726547890156 0.27862607871317824
Ni 7.861114881396931 1.6482081531253938 3.88024719656148 0.5726535795830912 -0.4352669392700955 -0.1736340526808042
Ni 3.085280362867049 1.1090716955673914 13.581216988380826 0.37608862913772645 1.1873922612616905 0.7915575598452883
Ni 0.14074615678971933 9.130139736921617 2.8171304745500643 1.3470500542680608 -0.6193419847785656 0.9819055828466637
Ni 2.217131616852323 8.791306740292027 12.278409082388142 -0.3831519637424111 -2.89005647886321 0.3859881476396255
Ni 5.016729621083949 8.81706521399685 9.496126341885875 0.6747114626878058 0.04933818411349567 -1.1219414878570484
Ni 2.3460817850351643 4.01652112537607 5.89570249545442 1.7801063590400825 -1.2754934250759968 -0.2613176693417177
Ni 7.719290117528113 1.631202919313778 12.450294681245452 0.9199479101969447 0.14174183195789783 -0.29351173757575905
Ni 0.9553098516321221 0.7149939666489319 8.879420213261538 -0.3424637419944296 1.8568949260550471 -0.6939078331105984
Ni 4.260832126425046 1.928627429025453 2.011501953325053 -0.9178542608927095 0.3480494636123232 0.8874568795477747
Ni 4.393996473729326 4.545094288131879 10.566008028090472 -0.6676748675559985 0.28914240486346976 0.8332279430008811
Ni 6.642920080649761 3.1445944698846384 10.682912512912322 -0.15668534064160758 -0.8512590894709792 -0.0711496235616323
Ni 3.843090018096471 2.753984620525141 11.901611344334148 -0.24662972831223973 0.10544299752686356 0.693233175641077
Ni 3.1578589235510126 3.6935052239511728 3.4364310152106183 0.4113150564401884 -1.1167036364968768 -0.9995883448384074
Ni 8.121725658959662 5.269533956705866 3.379236064786474 0.44987646165315426 1.144598563134932 0.017382714252821674
Ni 3.3296377755803577 0.6755477648990184 7.929091261445635 0.8261841487802223 1.7588083688932548 0.200086590445378
Ni 2.9220134100763784 6.7889404589742846 13.640518100132402 0.2078703481558549 -0.028578840078957234 -1.5294312570138757
Ni 2.806708271207443 6.7048703702014665 2.2487212520639446 1.4313285019021673 0.8563354755526219 -2.233588535766624
Ni 2.0576332912054935 5.240749442486532 10.03449793521567 0.3739417579980528 0.199336856763547 -0.7677527441162068
Ni 0.31928440361252375 -0.022457676137457916 5.1070021646782315 1.045021537470542 2.238856211923467 -0.25404427560875603
Ni 0.9189240350283274 5.288414221756536 0.49661501892938326 0.2552300683867411 0.0763933884590749 -0.7681720910418125
Ni 8.472532864987167 2.9826456083610258 8.184705359226271 -1.5547828484047868 1.301074615979211 -0.5812739742622506
Ni 9.02349501461722 6.132930148292891 9.568374451519789 0.46259853720551297 -0.07453216688062003 -0.053707259715468796
Ni 5.724442525832318 0.595717845779664 4.107317192544029 -0.05429321412592585 -0.5157974898259956 -0.3773896073373372
P 7.431305740341773 5.118148389984447 8.335234166624103 0.5579435270664262 -0.42937577059664117 -0.2887379703361995
Ni 8.052330938448941 5.7544708726557765 12.969374802178587 0.5153220928514738 0.9077020029500561 0.22763441815665958
P 4.693296014680054 4.234646665408362 5.220618847198732 0.5830169250952862 -0.43380423868164003 0.6075833015807407
Ni 1.147676917959591 2.618852418653143 4.313886228157399 -0.3772595095173761 -0.15994549945011807 -0.7951751019932176
P 6.068612863860202 2.561004920228477 1.238590870754955 1.5485702918361717 1.2535390322920927 -0.37837793939253545
P 8.260125242000703 3.979224711918062 11.958318044049511 0.16219907137098516 -1.4460850913860512 -0.4970330647342988
P 2.844700859630447 0.3313969197701533 3.2252022484982135 -0.24735066563866434 0.05159766957163371 0.2136095646324773
Ni 4.170580003963071 8.85017529533202 1.6319603576756927 -0.6483108612070899 0.3170648423053507 0.7179021391426669
