# total energy = -340864.72904482856 ev
CRYSTAL
PRIMVEC
9.25314572698589 0.00000000000000 0.00000000000000
0.00000000000000 9.25314572698589 0.00000000000000
0.00000000000000 0.00000000000000 13.54291409374767
PRIMCOORD
 96 1
Ni 3.7943448718184865 8.597911824501965 9.037823020490407 -0.6677921098601531 -1.4653927905757278 -0.7918815188436105
Ni 9.193758880239857 0.5624644824704191 3.1218993517500087 -2.4287946581912494 0.6406325187262257 0.2702306555606314
Ni 1.6788629725116586 0.25725872903906527 8.148608685761499 0.12439099938427609 0.11214457791675526 0.0508870166578543
Ni 3.6608219812650535 4.521457050591097 4.658099176515671 -0.24076118534660473 -0.5429190286331359 -0.3256947500662068
Ni 3.1299505137091588 8.684271432092762 4.0682509350498375 -0.17770488031606815 2.0702838900362863 0.14893037928653707
Ni 6.157718540905389 3.9496774264768706 4.487200980381959 0.48881761880304203 -0.9121821502085967 3.1552387733666563
Ni 7.132916805515013 6.934409073634015 5.765502683749773 1.1838053152413806 1.9503943780667894 0.31214246530306894
Ni 0.365258668170909 4.711599938878173 10.056005847523933 1.0043723964906122 1.1649619572826324 1.0883268851263965
Ni 6.8008306642071705 1.7692384452791836 12.03235097286092 -0.7111799899274849 -1.3684416325699593 0.5512375758011604
Ni 5.980067399135787 8.278743074407748 10.464081596183954 -0.5393773340284647 0.7078002748219746 -0.8093267109032514
Ni 0.4990184392508957 6.002978187563389 12.61189306079256 -0.9878893112339243 0.6468203927044924 -2.309877537437351
Ni 8.848005842927343 4.381706793070065 0.474021066497597 -0.028332528396106043 -1.0564205233361033 0.4968685141319765
Ni 8.681541754150055 7.938477152417353 7.344579734450745 0.9965899243317159 -0.1721991200064905 -1.0631007635697562
Ni 5.627281971191214 6.8602821244847725 8.749412651580435 -0.247721932935154 -1.9813188355597877 -0.04401625767995
Ni 6.747948937283202 4.0766120773855326 12.109044744590864 -0.6730942387993569 2.310375303009376 1.5983458205974022
Ni 0.3357170756289207 6.4425026020670675 5.89555564471502 1.052617347539929 -1.2987976470195761 -0.7016887626075979
Ni 2.117989501755891 1.2037324538603988 2.4253595659357168 1.855642798815501 1.2812364982073612 0.5982072596824795
Ni 6.958929909390536 3.422266635363594 8.510691674373298 1.4201166923467479 0.0653903524803519 -2.179140541230389
Ni 0.42424376991185947 2.309788703099728 12.3957617878618 -2.3824950037937613 1.063896262887858 1.2591970019088186
Ni 3.159597592110628 3.2650001732813947 10.245538953518045 -0.557233388373279 3.7131671309244307 1.3543082784923708
Ni 4.193923456902957 0.30089656354010413 13.257009415424479 0.651343991606459 0.927384568980648 -2.4953391788807022
Ni 6.90596490415645 5.876247105857234 0.1433599096073038 0.09053137052235377 0.8600473771865704 -0.2427224228380336
Ni 5.038245230591738 4.123044361848258 2.6445786135426848 -3.157773109752736 2.4746081169809386 -1.5564034147273453
Ni 1.3177312072643002 7.15184874134816 9.761041475607794 1.1792164103191176 -1.1979828922933433 -0.5122126006882146
P 0.28134281632475316 7.840569619157071 0.4775095023769209 0.03391799290368352 0.43922849502100486 -0.46762144434140107
P 6.484067731960762 2.6024101785579234 6.231934320252089 0.6039953271191663 0.2944779581437702 0.13608874743717853
P 1.732013040657114 7.296188559071168 7.548617146123478 0.20794439592689992 -0.7016530242736561 0.9877766969154601
P 9.031875098518977 7.879719678057388 4.289054121178133 -0.008040353805973248 -0.37126343983494126 -0.04262580509032659
P 8.10081433827109 5.469293763754671 7.0649589285162895 0.3388567413694616 -0.07304529792244839 1.8287814556482827
P 7.02305420818023 8.876672087898552 8.049826730244993 -2.1270479343002076 -0.635032656040945 0.030408951309160527
P 0.34407729265005915 3.0850357451196673 6.847486874792654 0.2716159659439322 -0.19764892753816285 -0.914143901920658
P 7.593566151351572 2.455627530404832 0.5625903252501507 -0.12272492453576282 0.34558763233539197 -0.9000010347613726
Ni 8.596755181305904 3.0006100449526873 4.6746484273649305 -0.4858261402748859 -0.3820990969978645 0.29463788076040226
Ni 3.385577913184498 6.9072695976816085 5.393722398582187 -0.53832832393866 0.014946594007503292 1.9285382014236465
Ni 6.05437015805083 4.9462134447674515 6.657641937792884 0.08689428799039875 -0.6119693464635784 0.802289858661128
Ni 7.951709150580306 6.650059910314057 9.176001168579353 -0.21200751025268003 -1.8659796619651348 0.42445725024910125
Ni 3.762865670594455 4.9230528214095 0.42633868206856745 -0.9576855339570347 0.6614756807238221 -0.09765229783785118
Ni 8.228961151249226 0.337669489343874 -0.1635521238668812 3.4795543836971494 -0.3091823542334804 -0.5110905712686294
Ni 2.4690538446247237 3.6580367844489357 2.39463079481729 -0.43605755349219094 0.641092746192096 0.8803148691863549
Ni 5.719748654857219 3.0835737481198446 10.287834156597093 -1.436114353326585 -0.1943931396050265 1.1519719727808677
Ni 2.972258406930808 5.707673299890329 8.832377280062149 -0.18690480164778134 1.4853396660113 -0.49343943384576955
Ni 1.086532112089797 4.95213545793129 7.866008366953987 -1.5335380800933975 -0.26098316882043443 -1.2444712656628696
Ni 1.9277448288675623 1.4346261952311414 10.981352790383271 2.191410359736677 -1.1234134444168848 -0.31484623738747713
Ni 5.3600418740274085 3.353312194587144 0.3975142083081379 1.261355185902402 -1.7206997349469915 -0.5500870071364848
Ni 6.344289715003025 0.49007990063172613 0.8004590877504275 -3.639434834237287 2.205969488497775 0.12245084493876975
Ni 7.027967628477103 3.344716022354009 2.6546006955079253 3.539320448012188 -1.5100158286017413 -2.63662746824095
Ni 4.7471135115700696 7.503107400273931 2.970421657535461 0.8968447485205782 -0.38348440738116535 -0.9568974908381006
Ni 1.7436072320544425 0.7927743503557895 13.447828708652612 -0.6122693942025004 -2.551912704400373 1.0362191086875638
Ni 1.3219321353523983 8.564517222145255 5.918727371847653 0.5500317284185172 1.1956077071929474 -1.350841660100009
Ni 0.5384766278986437 2.362189266454134 8.90116146296014 1.9216607575775226 1.8036661486378938 2.016115631523999
Ni 0.37378914307050776 2.270943998003171 1.5678363294643594 -1.1131691409810571 1.6149536043574122 -0.6148068159123734
Ni 5.068799117258919 1.692270780440413 7.650351780390891 0.5818121061539075 -0.1152828664354208 0.7925034686983254
Ni 4.6454769606456825 4.1727152472599585 8.475223442094688 0.44304684032583047 -1.1919775666395278 -0.2743778449597855
Ni 1.6674538440257 6.133891691066506 0.9856099040032978 -0.14956647020863917 -0.841079577834816 1.2977512080329328
Ni 7.926577607216264 7.832593407677025 11.728583158250911 -0.65480135402744 -0.8737076482824825 0.10903482864317997
Ni 2.8878974787828073 5.750950261714196 11.508673825984532 -2.045060082472491 -1.108116151938182 -0.6321419647567112
P 5.954806311733786 8.202034497644895 12.510348116009302 -0.6164412661920029 -0.030622352871547263 2.4734691182804887
P 7.949553167662845 5.729131344463677 11.213803836153192 0.3229588391922825 -1.1807397889421796 0.02371945510412689
P 4.07243890873414 2.315525653352197 12.032824733914026 1.7376214504029945 0.6039045671775728 1.103959449457331
P 6.803088431725884 5.986896220565339 2.2423545541401815 -2.846610748974749 -0.2366877866081795 1.3357909364144736
P 6.582761782594368 1.1963484436967369 3.062256351359138 2.2316596941750277 -0.9632781975534638 -0.014615435920329668
P 3.5268549397243327 2.1670404264145016 4.214284078411881 -2.085393234873899 1.2586053910714068 1.2895661011189792
P 5.382443739448743 8.118432327433512 4.966267787158058 -0.199738720187656 1.5519188965934305 0.07127689316811595
P 1.6277948621191156 4.029707882498814 12.37072092532433 0.7663970014192608 1.2235509705704348 0.16763618322615645
Ni 7.40852174627274 8.27336699683245 1.896035224318875 0.5299167028361971 -1.1372457223142864 1.4976056278628467
Ni 4.560588603200277 7.255289655658405 0.683854648554437 1.3443658225676782 0.24557814711927378 -0.06406880545545095
Ni 0.8377788744572956 8.345004849823765 11.678217361607016 0.7460572614206441 1.6390283859184287 0.7371018519995692
Ni 5.061183778456045 8.161468707472599 7.073355232805145 0.5740944257946757 1.2444506968375795 -1.0273536878771337
Ni 2.950448742825857 2.601956774425067 0.26932483086038733 0.13000448891631158 1.0843280483796487 0.2385335815676666
Ni 8.262309487878095 5.48390448060733 4.065393563698286 -1.5815107513179345 -0.04059489070322686 1.644942437410019
Ni 3.426883955002275 0.6319259956240235 6.337583035094977 -1.0916834603034553 -0.7849102297320998 -0.03721363293581978
Ni 3.1398791389041576 3.0063099826228825 6.525964124465809 -0.37538131865805674 0.197249378106899 0.7162031541736892
Ni 2.6402555439330824 7.530635508340214 12.968965471079018 0.17127480842000825 0.7896176625100981 -0.08501686846202779
Ni 1.449061102317999 8.358940087049923 2.5059674182411342 -0.17454216631737035 -2.6572675130888044 -1.693329827574471
Ni 4.993145399090876 6.091503031217214 12.193159539066741 1.6858769708408516 0.4231873823977422 0.13204954437079836
Ni 8.11381500779483 3.2297179292287095 10.70603932371095 0.8282592861416961 -1.7309620361049478 -1.7231376549645228
Ni 8.507332782531934 0.6127220173111618 5.358132024782072 -0.7474297162881386 -0.7891227251515506 -0.43653834978335143
Ni 4.2587972604837 1.0937865782154998 10.297503693716177 1.5548414695568642 -0.38222071017739334 0.8400686200717985
Ni 8.643492819572389 1.1286616838631707 7.546165987862382 -1.3763068942506491 -0.28985511465977826 -0.9092325806619697
Ni 5.426118586532057 6.093214863147386 4.695734495486425 -0.44682687619355305 -2.0132668492212944 -1.5934895209463653
Ni 8.968953708653187 8.655882781488609 9.496643019448074 -1.0323835369915575 1.6021235424722795 0.2528993633710354
Ni 1.3777471094215812 4.2458058441055275 5.281384584807831 -0.4836265615204058 -0.031789119486138794 -0.48139792930020325
Ni 8.774767195752677 6.412661207608659 2.067272085580394 2.684411420493448 0.4249311045617263 -1.2082608771805836
Ni 4.64308964908901 1.750112193389097 2.496825310419458 -0.5153861133201898 -0.11661289810075401 -1.9000454933005924
Ni 6.98946528976658 1.0566814644858211 9.524203513523847 0.18015771273193487 1.2990606708729757 0.935820358452827
Ni 1.4533082961339399 1.5588681807793705 4.821101663535784 0.7187811993135105 0.3126646563551261 0.33685899421314247
Ni 5.2547040648756225 1.028783230596798 4.854565664484259 1.1508831105920632 0.296094924921903 0.21456652922910788
Ni 1.7122668280139381 6.35639282940662 3.835448269748314 -0.6847940437347884 -0.5088506261945172 -0.38729375382492653
P 3.2331878588168963 5.908549837036863 2.3526483480584557 1.8695784350599867 -0.703652056981556 0.5005498196383057
P 9.21321824537041 1.0461883974111437 10.68993699979265 -2.8468172085586 0.7678329625348389 0.2969163923819338
P 3.850261630488923 5.266187218526129 6.804921479863004 -0.35861386939173073 -0.5642779539248863 -0.9882114704600335
P 0.29997032366869747 4.295125109985625 2.98919166332116 1.2357904500594201 -1.223643530284241 -0.9719687833489261
P 3.502167547347579 9.067092570552681 1.5492689675666103 -0.4689255078648053 -0.7334537137240207 1.8628514007487984
P 4.59372411748107 5.551359911801684 10.169008037150109 0.9937550259860821 -0.663221202660019 0.5197299921111823
P 3.042554553814691 1.948693950434643 8.748979604367829 -0.6348413659657454 -1.6051839265651582 -3.2759623512016747
P 2.968103744570552 8.532223744111196 11.067851195157596 -0.2864118933061841 -0.2495636141295831 -0.0851636784525372
