# total energy = -340862.6948736103 ev
CRYSTAL
PRIMVEC
9.35274070551462 0.00000000000000 0.00000000000000
0.00000000000000 9.35274070551462 0.00000000000000
0.00000000000000 0.00000000000000 13.68868141204249
PRIMCOORD
 96 1
Ni 4.054497148186502 2.4755394516951026 10.061372312829244 -0.10031441805104659 -1.6567779965923661 -0.43154526744413424
Ni 1.1455517052733097 6.94786092555439 4.254811336751708 -0.8246389157802895 -1.507917551311816 -0.8434131110639992
Ni 1.7716147964720075 0.8890509286148218 2.865438365011847 0.03944637892108045 -0.2955529363755039 0.42985682399811775
Ni 5.184972235897369 2.781523707385457 13.124296597702276 -1.7972065090554792 1.1430127067050508 0.4329555175280995
Ni 6.324444659895501 5.472353890885678 6.899094801712995 -0.2050940709622984 0.3528823662245923 -1.4545633040603918
Ni 0.5534708611288159 8.505559843063512 8.50136888007981 1.9054342684163312 2.178707310347712 3.1396848847924574
Ni 8.673778232317904 2.5790462299603294 11.0133512848345 0.23354075633876553 -2.52465052625031 -0.111912150190975
Ni 3.3654714084578043 8.090849979951702 8.659966105260699 -0.5689311364261814 -1.8029017596680434 3.2926709222056063
Ni 2.5424770149050264 0.7483763599071983 9.651177017519785 0.7366966461413506 -0.32672936197830826 0.40902266086158595
Ni 7.458483141707665 4.089289342561368 12.403204052158076 -0.47640433274035365 0.3433587430048732 0.3319150199443058
Ni 8.792370980885996 0.8841388693444778 12.904812097091327 0.42168200149680923 -0.1348633596705097 -0.7298361715760914
Ni 0.3795529118604334 4.671113971557615 5.371465879938991 -0.9012775874809511 1.2249367951743677 0.1964237968818101
Ni 6.328176403324418 2.7205812507869007 6.06756229142774 -1.3422431197977207 -1.411373656046795 1.1095850231742244
Ni 6.898001466357506 2.904456127509983 2.6833096449258047 0.5734084554712447 0.6896721977626961 -0.3899067659677414
Ni 1.1916513628200072 8.871551281310087 11.942416042802543 0.5486412758288938 -0.9814638673235548 -0.6530905419839204
Ni 2.842092054367078 5.512551969225241 3.3069391530663466 0.5278107122367878 -1.3409683668503551 1.8178537529921857
Ni 8.06513929652791 1.0567848459152847 6.316546270607981 -0.9462572375154348 -1.2855104429923667 0.35297698282092754
Ni 4.720646084839682 4.208892187095181 1.745772239408246 -0.5601281934225708 -0.24060871892914049 0.6528216045932499
Ni 3.4122444633149835 1.2096647408753816 1.26900226721729 2.639419686274106 0.39580333395783446 -0.40089437532749667
Ni 4.770112728938786 9.342751696578937 11.09089766150663 -0.9705911862751091 -1.1817633451106873 -2.208361128658403
Ni 7.769396291601126 8.744279189629125 11.549399861102698 -0.8009094333738336 2.891741322764801 -0.6958418169085178
Ni 6.272088019005581 7.974193248651243 3.45565240216784 0.4822980725169694 2.4612579209262773 1.2447461165908111
Ni 7.472624485227773 8.007180364124403 0.7301113931344361 -1.434711302331471 0.28154633768376675 -0.5258155361836299
Ni 9.408015119253081 7.666834140118658 6.73310610577553 -1.7625184707549904 -2.5069219986222957 -2.760894797563168
P 8.291363381887926 5.635213159877489 7.81868710418027 0.24539071369881607 3.1692983367835157 0.43867802183417354
P 0.5329790068612538 0.8296572858303732 10.145817270837638 -0.30466955396479145 -0.2109101634234432 1.125261553369217
P 2.5131935846395144 7.289600707883215 10.763287064135362 0.6890191375597294 0.6170547314062858 0.05031623175604883
P 7.406350966587907 8.377679823255033 5.443317372967343 0.5816766090173079 -0.21823703610215964 -0.7776715458918155
P 2.975387310880678 4.261473293755261 0.30326354350120094 -0.22571406120549511 0.5953870166248649 0.699261384113028
P 5.830994075159499 1.212854025359744 1.4916414471730353 -0.09096408718439818 0.04679124932192587 1.3085053612256432
P 6.5341892166295725 8.221339414338296 10.025001375870916 -3.2880179968146277 -0.1661904519185654 -1.4601713942757886
P 2.449061843556596 8.677435153823435 1.4310151132007891 0.02350425376952726 0.2876069420555499 0.06612491665353129
Ni 1.1768927384319592 6.3685147727703315 9.330273270306101 0.8094740351143931 -0.12656666687935622 -0.44382871279717756
Ni 5.360766344894676 0.3567238077610757 13.292845138693613 1.2193531304390033 0.19053725619404605 -0.0607004032038503
Ni 1.0024641295364618 2.719038048617048 4.568447069382405 1.5195962732013248 -1.0899255970720843 -0.5679338055099187
Ni 6.516690239297483 5.511925335616876 9.262528565597643 0.4354471736017016 0.8819197517796296 1.0309357488014372
Ni 4.175306496234927 4.054590675590735 6.241832839010083 0.2191508061656806 9.847325107724975e-05 -2.1222340578513323
Ni 6.47833465082132 5.975194627006725 2.794119978187626 -1.6297724145377996 -2.3188820549288067 -4.20449800306763
Ni 5.47727343234836 3.7479704335515933 8.164860085469764 -0.06980750771144106 -1.8949426248563879 1.2875398147175696
Ni 7.13036094943524 6.386780674817135 11.619992475270067 -0.3287484492908661 -0.27865744617174587 0.41549952683518115
Ni 3.4075119766607678 8.313435849287034 4.521139037773011 -0.857757295600813 -0.7230325183906966 -1.0216802916414405
Ni 3.2318488060293875 3.367426131206285 7.992478791452938 -2.52480993464631 -1.7084779960698189 1.6517064956067298
Ni 5.385410815910206 -0.1418782664001088 5.511993610621967 2.4284056502829467 1.0276848459643075 -1.181302860534501
Ni 7.306351465981437 6.168805706510517 4.73236880968631 0.062463665751860166 1.4519718891841316 4.182850085780551
Ni 5.0498999587033335 1.5858880771451018 3.513952709596799 -1.5838782231088466 0.20826115583637034 -0.03128801148000419
Ni 3.6562948719219057 8.944577478535612 6.777662561152375 -1.7296325186602468 -1.3905418069031084 -0.23795636890795793
Ni 8.262641116047813 7.289619413364062 9.388094717425385 0.7793152521428256 -1.9022823530509112 0.43897498424930204
Ni 3.6722412943437197 7.958686405029328 13.238570250742864 -1.0177130794635763 1.2711297487906625 -1.9861643365775472
Ni 7.2196422095165484 2.0629994243615104 0.022868385609135716 -0.6960853003778915 0.12169442638871945 1.1102064588083074
Ni 8.002719106942465 0.5875382181208723 9.253849222484773 -0.3595474369495937 -0.0029361998101884914 -0.3240021928551323
Ni 6.9831488151716945 7.96871254276316 7.592824034600596 -0.8032748482822165 0.18407581683941845 -0.6897393035552056
Ni 3.248459273021259 6.51539956111906 1.2517530080545034 0.26154032687548506 -0.8988190986381296 0.4194754807637937
Ni 2.325315735015238 6.175651912500409 12.69348692722571 0.01989725314455928 -1.5899254577441908 -1.3010777013030044
Ni 1.041605348208186 5.147355513914651 1.9240813003053923 0.053297682981875955 0.8690117854687097 -0.6704596293899872
Ni 9.116284439967913 -0.05770453786399146 1.4714919032049678 1.6915331406853642 1.4340453866126979 0.9035291025192891
Ni 0.7183531278741991 4.557263062384162 7.687563553992972 1.3362923015309243 0.2610929549254213 -0.2420230827781638
P 1.3148363069359643 8.63631115418196 5.384483959334252 2.4433095639779725 1.9255788616850067 0.8220840105689197
P 0.28585248192909063 2.355553144803932 6.62413078018477 0.8920609539786895 1.6852192826521943 0.6531270516488107
P 4.539287095290481 6.721524607309294 7.236822258400203 0.1263110992251244 0.889992501485435 -0.6943644610320429
P 4.421077809079747 6.977452996253873 3.0683039811645436 -0.33802936037215975 -0.5459961248965629 0.2617285316268912
P 3.461935573184247 3.2052870232270703 4.1795105530552235 -0.17056595527844173 0.3322729175043568 -0.26465547546569906
P 2.011493882850116 4.2461441522013885 9.873714252604916 0.9531400806781972 0.059011702647517726 0.24582240191959598
P 0.43843308919564006 3.1790432335991476 12.849455097073598 -0.6323427679136078 -0.2958067042575228 -0.1863846674782532
P 6.7007147598673376 4.430636309792412 0.9880515565440777 1.040598468702182 0.14843904147241532 -1.0850762393995828
Ni 9.267415372468845 4.619477491680294 10.391680240538607 -0.4217023132117834 1.2133377774828586 -0.3606550681914757
Ni 4.682673958720876 6.789378739080706 11.000196655429056 0.07607817121150123 0.16030545389269812 -0.1744740320835963
Ni 3.263376893996504 1.2488994869513392 5.164411171350675 -0.9199042014432027 1.0718116610801929 0.17147689712848532
Ni 9.194632346494327 9.311794125777645 3.9873482130430102 0.7743129138322278 -1.4388754610114898 0.9104836794602514
Ni 1.082261710828493 7.28157605659998 0.5559764602882317 0.29811118402098336 1.7223172159457565 -0.4898756277539112
Ni 5.465114869798004 4.2530464746338215 4.262436626018866 0.1349885723944643 -1.201591435580208 -1.1673811082470862
Ni 8.785356425568484 5.764206155796348 0.20697240447258997 -1.6026074240872334 -1.9310154593195457 -0.4807104163148754
Ni 4.738004771065421 5.291621534944842 13.193999766255384 1.0216090720838729 0.5487520903751453 -0.8608246216722271
Ni 4.98871433085377 8.34970577664879 1.4855911593931694 0.014852491631800227 0.8704585452175655 1.229697706898121
Ni 4.5673920802626515 6.078504997723061 5.087083648804451 -0.25510022767709617 2.108463486429801 0.6659324309435951
Ni 5.130567344854736 4.2452275836399 10.7390307318474 -0.3099238603851953 1.7581697068679913 1.758565142534197
Ni 7.178621090019731 0.7699325560349378 3.728098665974099 -0.7360189033480357 0.7586132437087839 0.2743130531601211
Ni 8.876592408398272 3.2234313396483714 1.1999603374121124 0.815612543911963 0.38981343492298676 0.10463695668580043
Ni 5.7506446821824895 0.6921589077705197 8.552167354415197 -0.5194754528982151 -0.3391202794434934 1.3176338058894728
Ni 6.211229737070837 1.7804905471337678 11.262444691077693 0.7183790787790854 -0.7974055339856331 0.4425102510960702
Ni 7.894096379665665 3.6387958945898164 7.9816230656435545 -0.46637163109470003 -2.621534064242937 0.45525083859119014
Ni 1.5379833406966976 1.2985625385993333 13.589876015976692 0.9044546996573519 0.6891158110385938 0.25679561310164806
Ni 2.4482200969184946 5.776140252576544 6.556823783728125 -0.06721583572486489 0.7138547085461706 -0.9788678244616046
Ni 2.959908525480032 3.410214918643116 11.951450790051501 -0.7427595645059789 0.6156167134081784 0.29981659674786426
Ni 2.3512789424304605 3.237525919466362 2.2317340848872718 0.12953577681000916 -0.2795745586693766 0.04032492487129184
Ni 1.6937812906688798 0.8274107575806843 7.406424853237251 0.012383461266017382 0.3356420910869058 -1.4687156843013738
Ni 0.9655675685663417 2.642018231230752 8.864652699973822 -0.5007462519198278 -1.302492065152028 0.5916661161298519
Ni 8.461078209610054 5.064995281746622 3.309621519019763 2.4058722450671213 -1.3940588189174312 -1.786644931489549
Ni 3.5396661988427183 5.593210002636221 8.67881561830992 0.09202723834158989 -0.4108617709528537 1.835666355693574
P 9.07923823515102 1.944762079929506 3.017710331844426 -0.4917602463711337 -0.21431764644309542 -0.8068039444813976
P 8.804267666704499 7.511962111448387 12.645946012379774 2.2929931029771864 -1.5325618322230574 1.1285636211592562
P 6.853669476750821 3.321130066110697 10.090406024925453 1.0715951741940126 1.2211894123167935 -1.696623153613762
P 3.6072865121035464 1.2588695082426313 12.382739320837743 -1.1907313529372525 0.9190099717637076 -0.19282065291158404
P 7.501384162029577 3.823643456316927 4.881000689946121 1.7868557619487744 1.4674183056461887 -0.9628079427852644
P 8.880904021733437 7.1299120178949185 2.0198196923749827 0.21727775751268388 -1.3124610034392816 2.4783722120090608
P 4.64073627066257 1.3756104142068994 6.976244622191176 -0.28656255995143554 2.9217149863087553 -0.6433437470098017
P 5.760249946597271 7.509923214036097 13.294488415185997 -0.8526587980319832 -1.7706948359181958 -1.6540099469289258
