# total energy = -381177.47423987644 ev
CRYSTAL
PRIMVEC
9.08425025594191 0.00000000000000 0.00000000000000
0.00000000000000 9.08425025594191 0.00000000000000
0.00000000000000 0.00000000000000 13.29571849965882
PRIMCOORD
 96 1
Ni 5.12260868530849 4.7546965523859965 10.482570659728065 -0.02731617131644973 -0.22103491056227093 1.087181972888676
Ni 3.5674758943207965 6.512144679480278 9.742716620496301 1.0174857939441186 0.5289761932997986 0.029502637444807255
Ni 3.1134541537940486 7.937935916182775 -0.24424005918438124 -0.039667493792951036 0.7479933021010924 1.946408653946164
Ni 5.238560054805347 2.7314432645679574 4.981520287095341 -0.4006814879857422 -0.6355875001031506 0.08235731935199364
Ni 3.4035324310404946 5.482853711065882 12.49627367531545 1.3978612233826568 0.43814477503852284 -3.0573337360880504
Ni 1.5795512555135123 3.5432754517996723 1.1885505922938386 -0.11497870493144069 -2.23800723365961 1.5394562453500455
Ni 6.242733071428862 7.550410887087946 2.5063627974711524 -0.6805715210130086 0.8562321172055383 1.2333635857854823
Ni 4.686837203424737 6.520111566901835 1.0512130809864602 -0.4837594875538443 -0.15926878509806763 -1.026815555985477
Ni 2.871913025342785 6.527706000065372 4.84634210205946 0.01618226618681729 -0.2545844643829422 1.8455787297112798
Ni 8.806008696375557 6.985188839916649 12.66901160121013 2.452928060904343 0.040131835023879264 1.8126390415604652
Ni 6.052617883334987 8.423352825385576 7.607145663259653 0.5402615364056309 -0.6877798658359897 0.06660082784868529
Ni 8.916573105506412 4.540108394265129 7.533380643246223 -0.9330813622551092 -0.723055144098516 0.3836728692428876
Ni 5.934068418282184 4.706613616100595 12.708021188400147 -1.935545743089731 -1.1231018267137367 2.29753881336634
Ni 1.8900963484506832 1.3058609656199598 7.7714534049727995 -0.14112091054444728 -0.5387415002166787 1.3263945828012382
Ni 6.518149368859582 5.264995222874592 1.766814897470983 0.5062854365705022 -0.1369564947541125 0.33297277178485885
Ni 0.6653858982531905 2.624412628763197 6.261006949122366 -0.00473571491277249 0.5158393988075245 0.31085871349463884
Ni 7.172133624692254 5.135453815085092 9.280464549292324 0.3458650543664947 -2.55357055171877 1.1467947994553025
Ni 5.744816233956892 0.45182516882944745 12.764448008490223 1.232363169545426 0.4067863153318994 -0.6236812355838678
Ni 7.455634904797073 1.5830032705878467 11.392861584279954 0.7379945390171677 -1.6046535079829847 1.0220890970440848
Ni 7.58020722772957 8.139497259523129 5.418284677525475 1.0833343170078116 -1.5960256571046578 0.04950350604676636
Ni 1.8027785355704116 6.802622663735332 11.607600540954069 -0.8011686005724913 -0.08404293458453269 -1.6597440211992254
Ni 6.144087198554656 3.1015356175373987 2.7983496756836974 -0.2746796924709205 -0.6120446797862039 -0.4039223635205431
Ni 7.823483447968196 0.06024856414737182 9.166201033481814 -0.31305494981500925 1.0641829408903414 1.8025196937382761
Ni 3.906736302126313 7.031091556155102 7.213286186503418 1.110103614681856 -1.5178227262406698 -0.5695916528283159
P 7.393871087717072 3.875540986954564 11.36310612276421 0.2597912053948622 -0.6966131478569035 -0.3175664645321176
Ni 8.026734461844933 6.784971965605247 8.09936576743395 1.1037720160368734 1.7254519049199961 -1.6311201868149454
P 5.965345491705693 6.035439566215075 7.770655807805624 -1.1797799961320714 0.2944201083226413 -1.0118386229606702
Ni 1.1850586065186437 7.792124616292926 1.2629851215466863 -0.7952532635293207 -0.6409626483721348 -0.942954398394447
P 4.829532605497491 8.652157835062585 1.0745768640645679 -0.22945450208453386 0.5353725837444457 1.4431118676903403
P 4.162884904892129 4.477799522173392 0.7312739649220016 -0.055030863622898774 -3.411978850640021 2.63746024855489
P 3.22763409450276 8.351287468583745 10.885696980108847 -0.9317636718849502 0.10020231795321452 -1.2533842518817835
Ni 0.8963366078264036 2.416610405538455 3.957577216771104 -0.2276662998358595 2.2578471512036726 -2.6639140718710443
Ni 7.608586425340678 2.9675247586516553 4.70148555686517 0.3388837379526551 0.15805008219961814 0.4552752640712224
Ni 0.9466242916342813 7.685648119750098 4.09777990059018 0.4550842311063389 -0.6328366768308907 -0.7784978984478528
Ni 7.918522873514743 6.267414979210354 3.8520354895734044 0.1601434743935371 0.5971821608520748 -1.7005374010665035
Ni 4.327900309695513 1.9905954083647954 0.7842333267124102 0.10573841728009532 0.9123253606546804 0.01676564949411306
Ni 5.541174597321744 7.090638816187372 5.287042698099355 -0.6151809114223405 0.054477305112273916 -0.9117437771195974
Ni 1.8602182495572988 3.356012718267221 8.483359748477744 0.10689284259951269 1.530981632220131 1.0527582439931675
Ni 2.6191165108991523 3.135319944014899 12.419144757454584 0.6441515876230778 1.0401199864038668 -0.8019497017128899
Ni 5.158337041327853 0.22180922860136346 10.404883968905185 2.0300774930207295 -1.1051544982066968 -0.013652043565795843
Ni 8.356056699936445 8.57089921706279 2.797552078516522 0.3402543930479366 0.47618836007480575 -0.35992204668019306
Ni 8.325769809784259 4.696530098383461 13.430803196239287 0.1255351402910483 -0.2088316836278597 0.16354195855212478
Ni 4.556559971369391 4.931085438434295 5.9040831252364905 0.0351768050114491 0.0019103296488354197 -0.7711735968722977
Ni 6.700424849034639 0.9225056073649178 1.8185887646108636 -0.8711332026870868 -0.5412092450308807 -0.029159652283091714
Ni 6.981246275331751 1.0271016641172532 6.113996528206694 0.6002980807732371 2.608614785078107 3.7711071977743247
Ni 7.352701265830535 5.556281705397056 5.9640073816518795 -0.9439437588909099 -0.3677153174723667 0.5955793351413291
Ni 4.288447411095949 1.9556392136120608 9.58132038097085 -1.8807534778401997 3.0334764698544787 -1.9052324368181703
Ni 3.816048232423467 8.973776628988213 8.38265810978427 -0.6318120922211183 0.59435728980877 1.203142839227728
Ni 4.137112887087163 5.368210473597194 3.168382981026867 1.6767420984191188 -2.376489678139946 0.2897216744057075
Ni 1.8169863028763569 1.850843303355422 10.360382952471916 0.4849709913634422 -0.13118693926018696 -0.11875565547536968
Ni 6.3786334543552945 7.3561169439040865 9.795753198413372 -1.2736694844933807 0.3325667945956918 -1.1459630475826263
Ni 6.404487230412021 3.5639330367445057 7.129190557167532 0.7933092524290725 -0.9415356636700494 0.2200010699811179
Ni 4.458186626001054 4.386257532952158 8.323372476157633 -0.6593637765871417 0.5779508234262885 -0.30275279655805276
Ni 0.33043324189043555 0.619919226024127 5.02001116359919 -0.9208346836772723 -0.9481086889018769 0.6917391075940539
Ni 6.5567756006913465 0.6347438139183545 4.116739639173453 -0.6216369514603294 0.22344660532755709 -2.3248660404263832
Ni 2.3420923011838086 8.799958585745275 6.373781556325816 -1.0389051401601592 -1.5173131335941028 -1.9035828170298894
P 8.329458015363677 2.22552320267365 7.853128990056573 -0.26263407416029605 -0.09459088530370806 0.6049353224349323
Ni 3.5046855569686906 1.1309618966037436 11.840555236120435 -1.021131618226822 -1.273945878083219 0.8330178838726041
P 0.11489214592404787 1.895992026827639 1.9921906026991458 -0.05526791933436933 -0.6015666630730155 -1.1984384917735231
Ni 2.759486344921828 1.580268911278966 4.803477159086421 0.7465316299539013 -0.15603742264496354 0.43641622238319033
P 3.428704888332549 8.576295261678986 4.315630212956294 -0.6783076646794963 -0.7765556871198174 -0.08305743074281179
P 8.616683838048699 6.403406204638743 1.5781086765824481 -0.6332431682406902 -0.15562836013200293 0.516246404437956
P 1.8597004472961485 7.317009246811955 7.8148506850073005 -0.9115085211803398 -0.23536906779675593 0.5327004362289214
Ni 6.90607410496302 6.155969397810523 11.544911947204154 0.9434737612330266 -0.7733358946309391 -0.22857672746527088
Ni 4.433831751226605 0.7796330624133496 2.943951129394029 0.6997830609444529 -1.1717499267387432 -0.3627633727837301
Ni 1.238855536177088 8.537687198347612 9.552109066041824 0.7956227310535976 -0.15586053074746703 -0.7205267212497075
Ni 4.975380242388123 7.400429916358307 11.796254073191468 0.0507314649165965 -1.2614366898726146 0.12506308575063624
Ni 1.9139061682133958 5.290467460423103 7.0232636577615395 1.9286772981046718 -0.83280962451654 -1.6119235592818366
Ni 2.0475718255917057 0.8790556386792812 0.5919124826710394 -0.46332795917236974 1.713426598324346 -0.17116476520470522
Ni 1.4771445030583206 5.6309542420050285 9.300754222104235 -1.135359046814535 -0.0523142360226841 0.4184933193561825
Ni 1.101937717228747 0.040172371215058 11.838813785357935 -0.5221494001859524 0.1637111371401374 0.35790784446364166
Ni 6.626224693436839 2.459687919966072 9.508326613799028 -0.6906844410772944 0.5500939491150204 -1.7281261093180496
Ni 3.0110564855890525 7.084516031555527 2.5971062811001917 -0.05692756642497938 3.770224023838423 -1.2091607632870336
Ni 3.7685739409011725 2.918297206841606 2.993770065891813 -1.5273756600364277 1.6181888234652586 -0.024713186475963888
Ni 9.095423823357722 -0.16030067895185957 7.3454992722754495 0.23121982151507275 -0.04795981570873031 -1.0201761962920881
Ni 8.4562559795941 0.422701062702299 0.3058803304617216 0.43557572875976597 0.22653424311394535 0.15042367600261192
Ni 4.490744578702146 0.25677450760429377 6.0462016774218235 1.5370607485346754 0.24323561502902624 -0.9000611985753466
Ni 0.4292489902432998 4.850871509206995 11.37852936274633 0.34081540775772917 -0.7401192986696544 0.08690534373399228
Ni 6.775424418649655 7.44345292528475 0.19135609667059622 -0.65294578887594 0.30158885815693864 1.22023064794795
Ni 1.8753071891322186 0.18241628605308943 2.7529711206815315 0.2006532615821254 2.333451468102549 1.4192857118050202
Ni 5.241003718107968 2.4616137810075425 11.722156569620878 1.0257377495402658 2.2526419528536494 0.18490859715335897
Ni 0.25571346718144566 4.661537566629943 4.78559481257635 1.1948883125284198 -0.42876204827204223 1.319713571236637
Ni 0.35462096646128566 2.4967789135147767 12.451094973817588 -0.09222701305722182 0.03182254382723552 0.31107520038081904
Ni 8.922932080643344 2.93727420550025 9.974780150718477 -0.29969318379612253 0.32807147782849955 -1.0981595549461023
Ni 0.4034097489868865 6.799670282421756 6.01414517533153 -0.2373601300848557 -0.30401032311423776 1.4098808735513526
Ni 1.552743633186246 5.530119064833678 0.3697062723361274 -1.305783591419106 1.4702971698558807 0.5674172708848164
Ni 8.709779234053384 6.859626333712829 10.43917337969356 1.158504631693063 0.8877633550446 -2.677237528452828
Ni 3.4227365359540287 2.916116986794658 6.72224885170459 -0.2698714724489997 -0.1529209885031689 -0.4573311181589865
P 6.145431667583607 4.96885775074767 3.980019856879376 0.23486770268030516 -0.37673500447247377 1.2985767892580216
Ni 8.461206895950713 3.983788912285537 2.5404132924793843 0.44435501761429275 -0.289254762071618 -0.29494795580165334
P 3.0340487228341595 4.1592057835629035 10.22737226953271 -0.465779763146972 -0.31874402977998656 0.3012826397704295
Ni 6.94530898155789 2.758750520655983 0.4960654672821028 0.3537719679183972 -0.16029568370068523 -0.6849076864945173
P 2.6004847137479414 4.113975301838926 4.746531628310176 -0.014102500839653134 -0.07968517183646921 0.0496369463008371
P 5.1397870024284025 1.7066762527509782 7.470638452420154 0.20631791606707048 0.6811168519935173 0.8210637968345215
P 7.688900281320128 8.40411238347126 11.583442794408864 -0.880493303745748 1.9357316338482922 -0.4300105759671627
Ni 1.579560339763708 5.480637154018151 3.0480039479846663 -1.0273565160906113 -1.5152261691580873 -0.6898809713393925
