# total energy = -340864.1907391647 ev
CRYSTAL
PRIMVEC
9.37074075187531 0.00000000000000 0.00000000000000

0.00000000000000 9.37074075187531 0.00000000000000

0.00000000000000 0.00000000000000 13.71502629936090

PRIMCOORD
 96 1
Ni 3.664156483429959 0.7576422074073533 9.052301586265434 -1.5894950550749916 -1.89020331039919 -1.1781051795328097
Ni 4.624348192794973 3.0252968507904816 2.0216773797277376 0.30561494859719623 0.3956696365934476 -0.3115341422951087
Ni 6.564007225587715 2.6149052524062135 7.167239301267334 1.5342729013768932 0.03908025383091334 0.11980929355086463
Ni 9.392106204557248 0.5457332094235192 3.9490494970323766 -0.23624581397475444 0.3891837717587878 0.5626244774818634
Ni 8.18550149208428 0.8404739346537947 10.58018308809254 0.6919651075619307 -0.1839241217529026 -0.4868327271625293
Ni 6.57523337320421 2.789219774912074 4.000494864657211 -1.6717011935611017 -0.6627285792943167 0.3356536610511316
Ni 4.313558199599115 6.575636315063566 6.169457801794803 -1.4284699494074495 -0.402554536638739 0.33447943823737236
Ni 7.849916518426616 2.70522045334759 12.011346361710864 -1.05578648929653 2.9176320744886333 -1.236939990282831
Ni 5.643453750294294 5.029651478862251 4.926286584122268 2.460615659356588 0.7501052062377728 -0.8222598740251515
Ni 0.2747632426730104 2.655883502428691 9.94615126117261 -0.35483923284064695 1.0922591303012672 -0.5280577952505873
Ni 6.17558064390884 0.8517150754557531 11.883590365442526 -1.4628031754716806 1.4992264512957212 0.5188807567370097
Ni 4.151491235469512 5.343627523969301 1.4601975772701978 -0.12020704320991556 0.5310960678562789 -0.8225241834301318
Ni 4.001587493047932 0.9739292155468016 1.2334828086402365 1.2997857219644582 1.1285181126333017 -2.78822408150574
Ni 5.423513090271983 5.633661326037837 12.391032853338066 0.032580762149498725 1.5281752731195875 1.1621183171862501
Ni 7.817906067460051 5.911625613807503 12.50848853119234 -0.04977887119534007 -0.8700823928250693 -0.14688352405983734
Ni 2.7047706577836568 8.568127585136601 6.772727360438083 1.2251224288226126 0.20105409656496986 0.21162287321975165
Ni 7.207271106457369 4.080376682663525 9.238414808657714 0.1827684108819046 0.06481879624759804 0.19544369235672793
Ni 1.2382871875074957 3.199798788114648 4.930469682866844 -0.43795759872838125 0.7814163576462284 -0.2129665317318397
Ni 8.02299410313166 6.613222356874716 10.145622474739605 -0.396896052801381 -1.0736350874421767 -0.7231836992565803
Ni 7.476108292575563 6.420428733283942 4.091109929307876 -0.5242363646219681 0.23076550758647354 -1.5779685424926306
Ni 0.3724073000842198 3.727502692017187 7.536694817963244 -0.23067063387982206 1.2295879207931342 0.336200277583221
Ni 6.609061747908336 7.5036020464209665 6.149625565721725 -0.402394614022107 -0.8786354246014029 1.478533955943376
Ni 2.372296770109862 1.9308411655914721 3.318090336058564 3.013965396404745 -2.6367148857484333 1.3775101705301307
Ni 6.621796584812188 4.658036006385371 2.4825435369780187 -2.368237465433483 1.2098408200731938 0.8208825340616507
P 1.671683954838753 0.9901780802938804 5.326600887726255 0.2728477814685043 -1.0379954838616963 0.6274610143412742
P 5.096774096038333 4.103531783465159 6.6513490904366765 -0.4505863432359853 -0.13751416702979544 1.4327963446969452
P 6.09098159492578 4.43518104593841 0.4699417198267205 -0.4143137340571961 -0.4326050761672163 -1.4518633886307253
P 8.974077452327032 6.8986832373765985 2.158937181432344 -0.796571468120112 -0.6622565247539046 0.051142070091453856
P 8.108989392511097 5.700034283940697 7.937914335139645 -0.09506139718222338 -0.08381847727855242 2.507666590097804
P 5.074771596369278 6.359734444375735 3.3177333108296923 1.3433288966627317 0.2482541512895402 -1.2693682860148656
P 4.890570942197806 8.127833952491706 7.654960127832597 0.6204858685750217 0.28203844682883683 -0.323613699167462
P 2.1935779993738245 8.090791413653642 8.807502224743093 -0.5340960310248672 -0.030181151569070603 1.410893888196899
Ni 6.760118091462495 6.8236236026452834 1.4841857369391986 1.7007916831691547 -0.6802940989819058 -0.8259879736090162
Ni 6.0712468145582195 0.5888639186342345 2.4046005252670737 1.6810286416096147 0.9159092213511968 1.5734007206162903
Ni 8.610267807032574 5.468576983333517 5.975993233154496 0.17984686635973543 0.8879489886928449 -0.11931564174389772
Ni 4.661615629415004 2.820377488455348 8.701444179064064 -1.5888059994277668 2.4734938008708367 -1.5606112821611058
Ni 6.380584342912212 2.039438682058541 0.5270741901130328 -0.09579750401729954 0.1989092823078252 -0.5095993314350836
Ni 9.239344386156509 1.7736469867378106 6.381999324790418 -2.108386867555595 0.29766895427724216 -0.9195007953571971
Ni 3.6162907388347576 2.182539266575636 10.864453884498182 0.9949909552757122 -0.8294980436448036 0.384577383335028
Ni 2.612496971990989 8.334308857818774 4.483949192883752 -0.935108419987467 0.37195686635754005 -1.636165205438021
Ni 2.212356964168026 3.6539986002778053 0.13267094987839875 0.7510308033758355 0.7987196248113664 1.0505848904909325
Ni 2.512080112342951 8.280314648664985 11.721698634168039 -1.477649496455894 0.7231898699041674 -1.6144805213757356
Ni 6.9528742320896075 8.595302733790886 8.81238438075995 -0.5047404606808856 -1.5269593984346155 -0.5318126343073293
Ni 0.8204936408742551 2.4652451492484295 12.424278367957262 0.8655989031324188 -0.43397495993154933 -0.0709706747816068
Ni 2.3195676109796355 2.3001795480259406 7.049729273115751 0.2897003342494688 -2.326199414525826 0.40745943013952407
Ni 2.2639897466111663 4.0286220805884865 10.878992589028227 0.08408124402163585 -0.22753877311905973 0.47020566012880954
Ni 6.588699127899453 0.8924899804003693 5.370722084251715 0.9446361569722441 -0.17429559752420304 0.8408862308770874
Ni 1.5941504445058055 7.164221922692617 1.1803685120583922 1.0882142708079325 1.3570218207687919 0.8041698492926602
Ni 6.034794632397818 1.2987097249291593 9.491031242251575 1.1880854306739732 -1.5492287513557772 -0.9254439003145094
Ni 4.002908767516985 3.732328623588551 4.185730048625728 -0.7359793083593519 -2.1270654178017043 0.395104508118597
Ni 3.0772576091656565 5.812633106778586 3.690301787657655 -1.0899204548657615 0.4503567437236825 -0.29900875613458827
Ni 8.52698066177765 8.693367537469191 6.328346210605946 0.619292876708185 0.9077904488988044 0.11419271869503558
Ni 0.3585573450114501 5.4331274704510495 0.13581483345547196 0.16629689558944263 -0.7865336242681358 0.8575798894826843
Ni 2.706710401153118 6.315804410964947 10.312205198916278 1.3743770242177877 1.5618101875652135 0.15410318173672813
Ni 5.005072025441495 8.099093890104571 1.8511167760325342 -2.4513290918483395 -0.03191844597515148 -0.05110890286067327
Ni 4.165828469069877 3.8157844421799494 12.432342827588943 -0.04566819146107619 -1.0042867787553413 1.6828343273597854
P 2.486544843348839 3.6978255555385258 8.681159336204777 -0.590028580526429 0.9727938503533826 0.5652963678870716
P 2.978836717332571 1.165945067641608 12.700773323551415 -0.6863937841217405 -0.03300962215680121 -0.17384128359560386
P 2.7264170692979315 6.1514041323474435 13.299804496078718 0.08983768688943883 -0.16600019028463023 -0.4580646538909014
P 8.110657384394015 1.8263574043862068 2.209449223262018 -1.1181221141109583 -0.8688508344108132 0.38491728317295
P 2.7171494065327293 9.1876085255633 2.1108249863510715 -2.3128541035671715 -2.5530265062898416 1.8624865612102117
P 0.2431622930844439 4.42269921903927 11.613692411452723 -1.6663957221877883 -0.5087266990221432 0.33092308834468165
P 5.7761247001726925 2.891060987179233 10.754460127634738 0.7591508613798087 0.9737898957180648 1.5802141439936979
P 0.08685271217318398 8.590842261115217 11.690139852913589 0.2732380749283875 0.8362045091307018 -0.26677200758806957
Ni 4.966848773248108 8.142096220164747 4.502190277149417 0.6390379205455963 1.4188180281399823 -0.621726168740026
Ni 4.7812706201620925 1.067083750985505 6.914005335847158 -0.90785781180163 -1.0408414379509234 -0.07713309483857683
Ni 1.6730146000487214 0.8824548539542062 10.538310869386747 -0.5584376930940252 -0.9433698886653109 0.29103627945207294
Ni 2.5454961744468054 5.911241413429978 8.04411013071013 1.0075561935352324 -0.22587192693959807 -0.7360111900385519
Ni 4.593977621488582 4.657511244894116 10.299819890648564 0.05060702352359026 0.3697804275315115 -0.22760433624967252
Ni 0.7015039727321511 5.221545511325158 2.9400081152760564 1.1805706103541669 0.3509334700283376 -0.3301448154177605
Ni 0.5195466739357961 6.976741509200801 7.449975170311056 -0.3170370743912088 0.510367834169992 -0.1985470138724
Ni 9.365249661094081 8.512390418172574 9.469416691256411 0.6864007261002759 -0.7998326553698871 0.2931988343210305
Ni 4.948903804395365 8.635353280462752 10.313220050157401 -0.08329911443997266 -1.07553693245058 0.28086448112539375
Ni 0.7588332285776841 5.238993830909392 9.539294306261583 -1.8481094665529332 -0.02149030866329202 -0.631135634979384
Ni 1.3176292508370906 0.23168407253732917 0.25569565905861813 1.371398144095122 0.38450282134335073 0.17762543322838442
Ni 8.101848887933661 3.5939415217518373 0.9567545215972939 0.8473522982174052 0.6873276087899195 -2.16644109138585
Ni 0.8443534213927166 2.4079336978106354 1.9425414726982786 -2.0513130053607385 0.1996505313492239 -2.1329100495079394
Ni 0.989503386947981 0.44364367252210557 7.8386041599937 -0.025220722240001728 -0.21261429059874348 0.7117836849497547
Ni 7.172055862097783 8.197674084533217 11.762843683378808 -0.14721133971290132 -0.8984360042670978 0.34384339595077557
Ni 3.8431282641707085 8.24648627396086 13.37656679443434 1.4799434346963931 -0.07724956581178309 1.8691675727748132
Ni 8.550482479993148 0.9755128707614823 13.122413559330374 -0.6262477107594634 -2.1951420588649677 1.1750177988567376
Ni 0.8806978400325931 6.5052245678262235 11.81427499489227 -0.34802092436723286 0.159259529126687 0.11328537638941778
Ni 0.27693819163944466 7.0355897621487 4.662903169216762 0.37592922074172674 1.7093573133509787 -0.9423141937072868
Ni 2.9903252456946925 4.246576143536762 6.387225386998864 0.074234176024227 1.6598265536107029 -0.6912004614817645
Ni 8.902962899521045 7.935518236687611 13.659274551255315 -0.40174952423894034 -1.53880909868435 -0.9049280397493448
Ni 8.426582543611442 3.75047974874143 3.2336327852633233 2.625471965844762 -0.2609867683648602 -0.8060506112551408
Ni 8.76828661108678 9.014568423821917 1.8771346381837826 -0.7742923450069374 1.1470225991953922 0.6414413877807663
Ni 5.2865128580907275 5.6071327585067054 8.285604431911656 0.5055853251796841 0.9818063382646383 -0.3983885781865074
P 6.227297763020219 9.247056505929775 0.14741581070857676 -0.29570540279296814 -1.0072268352202716 0.33177283793948664
P 7.936830140415748 0.9975153704305373 8.207387794565985 1.3181009753338784 0.3866784888384308 -0.29853824425607295
P 2.4599881635949625 3.882682161574065 2.4036128491746043 0.6950262629857579 1.005341445272101 -0.20106746630140857
P 4.683552533897652 1.5481494773527429 4.726061025911594 -0.7102286817578091 0.5942901840162603 -0.7769400670424297
P 5.769780708573055 6.611488769805391 10.508247658382375 0.5909624051946081 0.1591713402882549 -0.345129975972683
P 7.246534510892352 8.615665353799768 4.341299341004682 1.5799750313996983 -0.7543338996071396 -0.7912330866263341
P 1.9107315555873017 6.028600572652824 5.4648211903746775 0.6212469151107624 0.44543256694918776 1.6176473491394916
P 8.397008485282848 3.6236842534169056 5.213191495799194 -0.5606920363458407 -2.55385414439746 2.331113821108308
