# total energy = -381161.0274337493 ev
CRYSTAL
PRIMVEC
9.29363886618495 0.00000000000000 0.00000000000000
0.00000000000000 9.29363886618495 0.00000000000000
0.00000000000000 0.00000000000000 13.60217989608202
PRIMCOORD
 96 1
Ni 7.287736927077555 8.470538329219403 7.057341117223875 1.9233867391296942 1.7258679094114922 2.3462069679960043
Ni -0.004838268326825225 0.786405405247726 10.34942212044542 0.30034650110940536 -0.05618786004547743 -0.02757456718415896
Ni 4.349218469172138 3.264622947571131 4.416015568235188 2.5076925582397327 1.1956946104797987 0.543908903350231
Ni 5.7893793152372375 1.1624762142225884 7.4780567079667035 0.6317488430833507 1.4270926094439484 -0.7353442458785142
Ni 2.9819848062814485 4.1946931378810834 10.376857871362862 -0.7770120579309457 -0.06320645745515566 -0.44727759057772654
Ni 8.527034359105633 6.445761138361872 1.894973867972524 0.6296734486115607 0.5471628915111544 -0.08072801127868678
Ni 2.344348252490671 4.34408838058895 3.865698326567958 1.3808700881412992 -2.195696131596225 -2.3512357886691637
Ni 3.831776545175503 7.129410497542799 11.338369370886188 -1.0368569993818788 -0.6218146146887742 -2.1129354061582255
Ni 2.667041976739663 7.750244152495888 13.438056078060873 2.0085892412399664 -1.7150993580410785 -0.39307822171718754
Ni 9.11664138790019 1.5087664872264968 1.0270353700793164 0.35823488878575727 -0.5375150840087453 -0.8069350707426233
Ni 2.3011328323605573 0.5057468090091647 9.790019417548255 -0.20743865993507501 -0.2106499677835211 0.07599306769686268
Ni 2.2539583221282005 2.6226834390448177 1.4765575234533923 0.11497716226954392 -0.26753228279286184 2.8037448028491583
Ni 9.05411378647322 3.5729858808866535 4.065283865278552 -0.20544708342634294 -0.8103312409083658 0.009352130638861313
Ni 2.8009075491169027 1.9961527835455428 11.595695357709983 1.2892138599858831 -0.10961538373699832 -0.8631393858483328
Ni 7.441407243604746 8.835936323467939 0.27354803324037835 2.0478037066558987 -0.3072601975101031 -0.2689898411749948
Ni 8.267128458168264 1.474268500232307 8.09635784636378 -0.3885397104168857 -0.2688139777187628 1.0238441320619787
Ni 5.533488266234537 2.9133512842038374 11.777188969889975 1.1705301953990292 -2.6326540854154983 1.1873446958532068
Ni 2.4493106083937906 7.529492351560277 8.878659180744958 0.2527828923978292 -0.3250388616497628 0.4910215684328963
Ni 3.8235981430863633 5.642967330564159 2.1501372250620654 -1.6242208885919511 -0.06373173383100636 1.427239162324142
Ni 6.440519526113833 1.0748186136489897 1.7445879233752228 0.5020312892798386 -0.5872430473614918 1.4600724068040791
Ni 8.649004073898668 8.465259542416414 5.2097434314443145 0.6486283924475087 -1.4671334274159185 0.12855618650555925
Ni 0.777894290891778 5.684221792920626 4.498567243686316 -2.046593745508198 1.921887271766032 1.3690566404461388
Ni 4.793909789130379 8.017826599030563 1.0680435510092363 1.4655303445948566 -0.09238847833575056 -0.25837144222920017
Ni 2.640898970970629 4.698631404791899 6.009007515249466 -2.10182695494989 -0.8373219105645967 2.1116123164714278
P 1.5276325738639445 6.576383230819667 1.5517774473043824 -0.38792933052639644 -3.797870839021414 0.25593789308704307
Ni 6.8165866176332 3.340524095141591 6.474936658451004 0.0850837171442212 0.06457351300601137 1.6971265756127418
P 5.98154388341581 4.643120500611863 4.925050466629736 1.2062826704082903 1.691726487643093 -0.5868201008914604
Ni 7.192263376325585 0.2536057432371099 11.11941495968244 -0.5856031977652237 -0.7851567985252671 1.1656682393210378
P 6.319098136006319 4.81724611600064 12.851271527350944 1.9783217006046767 -1.2442316388482377 -0.13671378261568715
P 0.012415371989638529 0.11017144041557746 12.621367350986485 -0.06168205039082925 0.0638191513384901 -1.2695410641473037
P 3.7918789540747335 4.014015507182257 7.755078703367219 -0.05905875383536926 0.11641440893670274 2.2363074773596843
Ni 6.115288638489459 5.645458025745851 2.4032466879905843 1.0796722947751922 1.0234947191423598 0.4184259564533568
Ni 8.02589347745485 7.368117608519567 11.758132363658406 0.3324035295449501 1.013431935589719 -0.24251904857797588
Ni 1.1461844655154725 2.8702195068223624 9.823100124634951 -0.8191755786728729 -1.1306233319017625 -0.2558751581699077
Ni 4.1281135099644946 1.015794714026118 1.7782671407966248 -0.3581235600188736 -0.7720256604599479 1.1210919953725598
Ni 1.789750360820876 4.482805232387247 0.5609510231108586 2.611436570797619 3.232789415358626 -2.9812378242647366
Ni 0.11248090964188569 4.055390786842314 6.317899256609161 0.9584830901576654 -0.5855764582923463 1.0432551895987388
Ni 4.248763528056783 2.01327166610031 9.782075215155304 1.0051840937586303 0.23259279060319943 -1.1117069546132337
Ni 2.8063722086946457 7.903775064442014 2.3346642809260305 2.4527799653622533 1.809498696159271 0.7951329359013725
Ni 4.735062468643523 5.397447982392685 6.4224731384130465 1.2049197286224926 0.7967339618399053 0.9033259853695474
Ni 1.2104313901089083 7.892483293375758 11.464529587386034 -0.008245270727927736 0.3563613259121282 -0.5554181895414112
Ni 5.81397957697582 0.7424139662830175 13.038764183336097 -1.54196898446957 2.0882057646220296 0.17844355825430558
Ni 0.7993179869098292 8.072240853839556 3.3373354476907005 -1.2671103432186241 -0.5683451820157244 0.8762954636143165
Ni 0.11596137734913896 6.041980416126806 12.878299287527803 0.9431914541059174 -0.5566700596706413 1.5524876246127068
Ni 0.9230953144373393 2.9757301874110036 12.028870000544517 -0.2605530232615513 0.8287627081406759 1.110557671500139
Ni 5.22692829883412 7.525105754076102 3.5338736022592157 -0.9040939738838236 -0.49311547484744755 -0.6790661401120757
Ni 2.015409203009972 1.073749845194159 13.543323265314587 -0.5831693915127504 -2.2641178147037326 -0.3744672914842196
Ni 7.218517905759472 2.8935093654989354 0.6191357071557198 -3.396753034829201 -0.19777979668907228 -0.28695388185258325
Ni 7.052143185077902 2.4429537594972324 10.098013393405893 0.32575028589449057 -1.093971999227316 -0.8782569582160618
Ni 9.007199498125518 3.8628823540304476 0.2060334652667815 0.9846265813222527 1.0450955852415873 -0.25736382690029225
Ni 4.357861553198161 5.726238333653582 9.11375943052764 -0.955432990477432 0.16979076767531404 -0.7875024159393083
Ni 6.565360975276804 9.233527482303725 4.296425024958993 0.11334836841686931 0.8287655363541533 0.035065476244565415
Ni 2.8456471259999923 1.8993223615378745 3.911633065392711 -2.546284559580318 -2.0849353214008737 -0.5801141496261945
Ni 7.717577012333018 6.515091683344807 4.122671155119722 -0.8976047666150542 0.008647648372668978 0.13738124099635696
Ni 0.7323610372604918 5.4602079247880955 10.72288420502662 0.01218188677817257 -0.22384024122154997 -1.5484893020865913
Ni 4.981687759824776 4.902208561340317 11.203639490106347 0.9912772538695509 2.931883699311641 -1.1526553720011374
P 5.036204244659884 1.1664167170473558 5.476727367644284 -0.42913897199548673 0.5382319075701117 -0.46336549727852455
Ni 3.6228927209078816 8.91438392805252 4.722908247902412 0.3521128350484194 0.6260736470754443 -0.5397352315885157
P 3.995363174235775 2.2514304523915576 0.15069728149501285 0.6956235302501246 -1.4451016444268596 -0.6101412921159041
Ni 8.123606795142598 4.018783143854676 11.49195139784537 -0.8013136107907877 1.7847284311931264 -0.31428033758167806
P 7.872975945665412 4.246217071042664 2.20976892865838 -1.3043895392850569 -0.2662001942449996 0.47119219241179494
P 4.311058788515311 9.009439265061292 9.55210319522806 -1.0282420040193583 -0.4636909989387433 0.5350807635356397
P 0.7613190862031632 2.2605010437995126 5.398433108098877 0.19988141641310736 -0.019272989296999065 0.41128266054035617
Ni 8.652675061200043 1.0580343020887777 3.2211324357343822 -0.6553441139047875 -0.289490789341824 1.7422075271117803
Ni 3.5538967469195017 0.44785580394841373 7.530167069732631 -0.5016697921753619 -1.3008666137334628 0.5635392759866488
Ni 6.245827088198617 4.318419350395536 8.97503142636286 0.4746662670033245 -0.2122311962277119 -0.6176573979872911
Ni 0.7117765568204513 8.174916974613213 0.6165920382332225 -2.9192107318296627 2.3931751092154268 0.9543130179403759
Ni 1.3378285899247366 1.4929580077337392 7.869908115518111 -0.1818816374015771 1.016572280990914 -0.6212474293313945
Ni 5.201603133274 7.580867586502055 7.946760931695307 0.6086850192853518 -0.21914283574588064 1.7579645328357207
Ni 8.509116223619426 7.603897223293973 9.2191632342708 -0.1885225397568624 0.5726286398824267 0.8892702786074297
Ni 6.342146360075713 9.147459093954266 9.170467355377088 1.4149726862519632 -0.08766998981415869 0.5760695472431756
Ni 3.1399394902666993 6.387722364445192 4.701334924300684 4.098771669972392 -0.660479892469456 -4.1681274348583965
Ni 3.461136938678928 7.565904828134424 6.652350363225166 -0.5270092993814149 -0.24185853217584152 0.5971654486815264
Ni 6.125158482828853 7.243155342053006 5.902951298066923 -1.6147191197491029 -1.3081657184980375 -3.0191256004494456
Ni 1.5988218465944115 4.45432952329506 8.302647816059723 1.165663097114715 0.08278283692518647 -0.20084969386364762
Ni 5.5769546146105675 3.545021321925038 2.0776645008219274 -1.4507413592111402 -1.516121684389163 0.4240690136717471
Ni 0.3425170556764188 6.220892255465477 7.568362066216661 0.28084519785168405 0.47827840983461495 -0.13587868830890146
Ni 5.729630511792828 7.826052363678972 12.159953986847576 1.1020110674817087 0.18176259532520955 0.6330423650837935
Ni 4.605592787389196 5.661368735264723 0.07455449931737348 -0.037099475955458684 1.812572192878272 -0.194024186301382
Ni 3.2430059438673364 2.4269501135909834 6.530148307463688 -0.3167473110649319 -0.2130464930401557 -1.1750661355961698
Ni 8.168457895690539 1.8989784969045813 12.415580167146253 -0.31755900833294987 -0.3330959276262844 -0.52106902263758
Ni 7.775773778108237 5.617270419454531 6.381476109849612 -1.38402663149241 0.26450378037918315 -0.11840701388669929
Ni 1.408850577157926 0.33178290293442286 5.542112762983084 0.8791313904012149 -0.7452563627859036 0.07387036492690503
Ni 0.599515906416648 8.585333354906966 7.624946385670897 0.017227933842512266 0.15133976005897806 -0.4725183674223861
Ni 6.918584302779006 2.8737046213489843 4.258815527715435 -1.049727941807276 -1.5193749012191382 -1.9041602867999143
Ni 3.8092952330691063 9.24799767781826 12.184696441258843 0.021383607882098653 1.0268050144625156 -0.6928423679605616
Ni 7.94304998174736 1.230765871666906 5.8791883931786035 0.3597693231524126 1.1477872452755586 -0.7283148498355586
Ni 6.534970776604659 6.4196924817027385 10.2262544556191 -0.615114062740147 0.43618893686373267 -0.5545098187945289
P 1.3612578531823747 0.6707200489690955 2.465109794247811 1.1206893606175024 0.5533831613892534 -0.6059730196708273
Ni 3.627400135695646 3.9215902699362384 12.686698843220606 -1.5979401005185512 -0.03847064527137246 0.03267126498077599
P 7.018165641853021 8.148997016173881 2.317484989719468 -0.478244471272886 -0.44118998962274986 0.41433378866185416
Ni 6.9070044289118835 6.621122807702758 0.28333609355888073 -0.5547612726837026 -0.931597321510415 -0.7471548653601972
P 1.7278082586343795 7.355636251694891 5.540507751573091 -4.791112672816504 2.6897757701291547 1.4757893033187035
P 8.230669513400427 5.447308354220225 9.19586222322774 0.02042021552756483 -0.4260631612836404 0.011748141674863637
P 2.4518477717691716 5.702409443930224 12.109421684939301 -0.9037394187578822 0.0235908999460626 0.39040221754692117
Ni 0.6556569193030979 4.60331584589847 2.351082423119979 0.34014280717073675 0.7454085720930518 -0.023708142250217234
