# total energy = -340889.32257424435 ev
CRYSTAL
PRIMVEC
9.08960904730003 0.00000000000000 0.00000000000000
0.00000000000000 9.08960904730003 0.00000000000000
0.00000000000000 0.00000000000000 13.30356163248457
PRIMCOORD
 96 1
Ni 6.330912789138056 2.0903010631255166 11.520232475463802 1.1603450273359113 0.0958700091264478 -1.0540821050109137
Ni 4.741712790122219 0.30614076383633376 6.075470229426196 0.15452972775118548 -0.7967537593342471 -0.3599305313206253
Ni 2.905139077457578 1.4710078109366378 4.879973017334022 -0.7225846322200007 0.08145614769396294 1.3035670433837614
Ni 3.2238207750701844 4.27959705975642 4.658508325672525 0.45934866280964765 -0.7715677469869229 1.0996754773699964
Ni 4.925613762914526 4.4360292336272975 2.520306840126047 0.3799460552106037 0.05294209941467011 0.2562446256941845
Ni 7.2178314042136416 6.157719375951786 2.71842305270433 0.1214645697661005 -0.14643563788914135 -0.10351904103127335
Ni 5.248294888563342 4.715389281956614 11.402841990913679 -0.7680569056201869 -0.45178344886787997 -0.12089841284998533
Ni 5.795507540008696 8.018216939960306 12.594468847419902 -0.10265155082465548 -0.21864378462227504 -0.8396675279786378
Ni 2.1370125646666227 6.390495177268422 0.317195546512787 -0.9016208297529829 1.4659460919760365 0.021793698836323757
Ni 2.639595235071535 1.6056067435734735 0.11869484346647735 0.1858172250105574 -0.6490122581494887 1.206144345058213
Ni 0.7376517801159475 9.196866561449943 4.621923557711288 -0.16079807725840048 -0.306488095230769 1.4086958521043158
Ni 8.353468995095666 2.4490043099277488 1.7198176828348084 0.9548470360669749 0.42123077289200356 -0.8630367988321975
Ni 6.943797866859824 0.6143530496032411 5.051602108781583 -0.5843634118208516 -0.3182436931048003 -1.0401402981188408
Ni 0.5700293883919362 7.639643807505445 2.7450965108231036 0.6690064418832284 -1.1385587846987553 -1.2246848270645618
Ni 7.373363706776371 3.8195355810637666 3.599770646317658 1.1854778178477972 0.24662047234085915 1.737972148874194
Ni 7.628354512912322 3.973749890296381 12.808629129149812 0.9724138413061447 -0.03106535394623682 -0.6523868310486765
Ni 7.8871356860735 8.896518605539693 7.254964275608024 0.39799108563777263 0.476830878754811 0.2514114659715993
Ni 6.7540340961508 1.0040473188815202 0.4356876916947019 0.7505692903583847 -1.253261353150674 -0.13425452244191718
Ni 1.78806246850724 6.463266588309111 9.368488381210165 0.6657827927396083 0.6926145682204717 -1.8483737759579135
Ni 9.436014178796995 5.163879688171776 1.552951546594008 -0.6580401726797118 -0.8321347099367025 -0.6728852081123443
Ni 6.609236622021626 2.009276286955557 7.071348716543756 -1.1509144780506309 -0.4376670640711559 0.7612583946411148
Ni 3.355438315898209 4.406133509056623 0.40138532459685666 0.7798973498985408 -1.4857646693638606 -0.6551026873179427
Ni 5.878186625048179 5.774637797347015 5.047943541089367 0.10493031955650314 -0.06924289345722268 -0.48972470399834367
Ni 5.5132388167439546 2.8576549591367497 9.108217421105499 -0.2945175531324541 -0.40987806688334566 0.3021951242823699
P 0.3175800369808136 5.70694747783415 12.580114536613575 0.38580431376359364 -0.8068898193269844 -0.12167899976975174
P 4.126191725740221 6.163382202466694 12.512705086024162 -0.7706771168518532 1.5774316961525543 0.8036507435643966
P 2.156746106181653 8.516391149916213 1.1998974918929228 0.3699426641409887 -0.2542723324591621 -0.20129526604149847
P 6.718175587962502 7.706234284308352 5.902311356754785 -2.2838471748118603 0.8408121831060422 -1.2717211025177582
P 4.73970398649494 1.1220758939956015 12.658857820881058 -0.6377785942171984 -0.5885579095181734 0.4986811418606831
P 4.181647431305951 5.929597454531832 8.403035542878078 0.18513048335617793 -0.41719002716372666 -1.2160742025774154
P 4.714225811982444 0.9016983195912193 3.7265007042932496 0.40779624465365255 0.6838573908531319 0.8718009181780728
P 0.22474149576843838 5.4936688881940405 3.643313510100985 -0.20414507678546776 0.5803738310454843 -1.2664184593579224
Ni 1.2694820859574851 0.9123604311513901 2.527357649961703 -0.07508289717776746 1.2527396763192489 -1.7287046075293389
Ni 1.9160259864476357 6.438824629242359 4.623878732644444 1.1654854338862704 0.5507837760931934 0.8089104493014392
Ni 6.353664080898591 5.598499350788627 9.19656569538631 -1.1557607503993386 0.8759414227090075 0.2421166709332346
Ni 8.80791309531928 2.5346375179485237 10.068149230825778 -0.47750476489338406 0.1419053541189556 1.492783523883855
Ni 2.5447724321766487 4.972607042340001 7.047095821347807 0.7170369629288942 0.9589710855376773 -0.15090858605883045
Ni 0.7044338033924658 9.158962891197673 8.869537918630865 0.294453532663738 -0.6564779703989145 2.1503781243857163
Ni 1.2979961899338326 1.1684329007789527 11.444096091107193 0.02661991658037351 -0.056069332189742145 0.2018971612915555
Ni 4.162631968915604 6.848057013438444 1.5988749790197974 0.18074212448049518 0.8242547929679934 0.25627702159401666
Ni 5.990806882704202 7.893662025459862 8.27485569223936 -1.20415482543201 -0.5033554074079009 -0.10764154784007912
Ni 5.150654306824761 2.7412897825013647 5.24079141619086 0.2636164926782234 -0.16740246994879557 -1.286606761380339
Ni 0.8734669024601585 7.8977523495878055 6.894943035475676 0.5596556246615264 -2.263384278971818 -0.71025053613468
Ni 5.113432357260483 4.1984359394488635 7.116953103687566 0.28122649245050274 1.2591604922439281 0.272781189896627
Ni 8.356150429801763 7.133943401154123 9.16946684355823 0.01040808270720143 0.965700176731395 -0.0760023236682433
Ni 4.463752541605576 0.5683214508282909 10.53282913993934 0.27889013100784227 -1.4429408893301148 -0.33223023719187944
Ni 8.574073809729379 7.132061852055269 4.877431562609194 -0.6862274337472052 0.5454227688915961 0.03642636114783404
Ni 7.569535651952505 6.210748155868271 7.023681897078546 0.49215413937544267 -1.5502170834109754 0.553242264936015
Ni 2.585766569547808 5.11937696165976 2.525507914494956 -1.4499054935734061 0.019061644617141365 -0.09203058077569956
Ni 2.5910294532590945 5.262738277539567 11.311393250943887 -1.8116355399966155 -0.14098927006258943 1.2546808592060197
Ni 1.054621904321239 2.961540102377322 3.708966848198135 -0.24961735018565395 1.192209737254992 0.5189198375050611
Ni 3.4705673056860373 2.539455010810323 2.8843984072461564 0.1122574493455357 0.2311084927481891 -1.2748331657841787
Ni 1.1863394308501687 3.449470322795026 8.206740887978105 -0.2956452389789941 -1.0223626624204458 0.5592038818360885
Ni 3.572789050447913 2.290381540246129 7.354528218647654 -0.06365460073616779 0.36523394581140967 -0.549627293891247
Ni 4.102458756188979 6.943288848746124 6.397935931337608 0.8503219223686903 -1.28968822851914 -0.31450196667418095
Ni 0.6740126994115795 7.45826974606329 11.281313916267914 0.6869221458213848 -0.05956191872403291 0.3876439380754937
P 0.5061376165525532 5.51444773476399 7.741529236727912 -0.4264673387005946 1.3332136626056008 1.464355350450149
P 8.621667003360287 1.678641753280185 8.144573414998879 -0.8693496284241028 0.6680420210874302 -0.8820837881613196
P 1.7548217677608253 3.470203721319109 10.640121977658946 -0.5900059548186096 -1.8464480196901105 -1.0806207747313905
P 4.125946306292544 6.057860929574945 3.7303983287067206 0.006677154909859469 1.2103280441222575 0.6933437330770124
P 6.880270588348287 3.934137373519549 10.435859371357743 2.6032288381758453 -0.30822487541621757 -0.6685354157840808
P 6.61474492518059 7.696799269986565 10.45926057017416 -0.3687627849002746 1.0640934665003288 -1.0344944126869733
P 2.6883155402399193 8.340916244827469 5.67749441723021 -1.4671434547182474 1.2924984442744256 0.1701890315549972
P 6.8361587150307175 4.193709342678796 1.5296167019245535 1.1819731471286483 -1.0625112096148732 1.29448256458399
Ni 5.547397568016862 2.995444344593381 0.1790234885099636 -2.010681347882305 1.0337619053963227 1.1234885206291942
Ni 1.347280050870956 1.16408806759416 6.889302932983702 0.6362760415297429 0.8404802536879202 -0.22892279795077997
Ni 6.7249291675781935 0.8590853228263118 9.570090458906371 1.1355007145987217 -1.1023591948497466 -1.3216105311490336
Ni 2.6244246773614535 1.618404913289348 9.462344958649938 -0.5308741816534599 0.1931528394400222 -0.6290692393686586
Ni 6.069795586419364 2.1512559822410364 2.589059734951261 -0.021615521387246643 -0.4144659433643443 0.2535989605412213
Ni 3.9679598092530486 6.81501628409384 10.30919657649003 1.6097638326263566 1.5917416850173234 0.3725122246403778
Ni 8.052793813255182 7.0071615324062435 0.44830043338344266 0.3079004021972633 0.618181131701245 0.6785244086759927
Ni 7.7051253519892215 3.8662561722140456 8.179096659599633 0.5211641534545476 -0.04172129099818621 -0.5621951032539285
Ni 3.3310327152681505 8.357650215315342 12.417597778362154 -0.6807561262199888 0.06752591076611597 0.29489807640032434
Ni -0.017079375636454282 5.063057743222574 10.00897496614729 0.08598617435383256 -1.3802512236103779 0.45730052203136723
Ni 8.498184662742283 2.1920410586012125 5.8016702950281305 1.3977090140755088 1.8715818386432606 -0.46407126509629754
Ni 3.723422053666285 2.7158661456439073 11.428703746933286 -0.14933687069633633 0.18760954102428978 0.9802773032146215
Ni 0.9989026000894855 3.4869104229794616 12.884606445345888 -0.11474447743344754 0.32501906415542087 -1.0235122026438568
Ni 3.0846134105825325 8.532970597048141 7.957818304926185 0.3357865870845701 0.32448041804313144 0.8462253837018137
Ni 5.628440523405168 8.01244503813532 3.7415603687714176 -0.7329826876248732 -0.9090788286929247 0.08588872954401983
Ni 2.9773742015570472 8.585226760184902 3.419747300798642 0.4576743604310182 -1.135929060385392 -0.3324734635509371
Ni 3.584769155338199 4.011826263122941 9.470193836171003 -0.5475722111344311 1.1575731210177291 -1.373677427047602
Ni 7.563163835922088 6.1395219783870285 11.570759794935821 -1.1532066165189172 -0.41711186562762353 -0.3667789217010264
Ni 0.097237912052207 0.045672559212608745 0.2777730025676748 1.067905126936935 0.18308285679852987 0.7424422903758762
Ni 4.659451827104704 0.3971795624324142 1.5482549455342125 -0.7629522374037698 -0.9137304685323232 -0.475801151938716
Ni 5.7976435981644 5.503676547893741 0.32788492690047744 0.5136691306290831 1.6980634856047143 -0.18684618049570403
Ni 8.11277614418917 9.10369806742458 11.457174220785602 -0.9222935276109858 -0.4087951182318121 -0.4100552158911583
Ni 0.10575760273025309 4.833381498634003 5.6582571683760365 0.20150969604514973 -0.6918311530872279 0.4891986562915446
Ni 7.643615966714136 8.843635259369979 2.5595385022785218 0.6033237549734384 0.7703899246287378 0.20187864934879426
P 8.394254071455842 1.5361257710534864 3.725276333937619 -0.18470805110677868 0.23660911085144415 -1.1743909639060162
P 1.7914347135104995 3.175309530912783 1.5540023054144307 0.06201757935337706 -0.33623498747589836 0.7286269817593387
P 4.939938986971498 0.7659150108791145 8.173362934133175 0.3058275788286346 1.0556995860096787 1.1186882710270734
P 8.440411106837384 1.8775587604266273 12.476279386223455 0.29902135454007855 -0.029448130057787996 0.7439546132553445
P 6.241334690736109 7.751582344473478 1.3865507983428758 -0.6103552078989231 -0.02218836317158114 0.6292224771170711
P 1.659244527304563 3.2541346216628266 5.948022092325921 1.115950560380936 -1.5438559170796378 -0.21933926802740292
P 7.1199272238090385 4.190346187284709 5.918980791017528 -1.5557115308666432 -1.3440038112425694 0.4377719650801364
P 2.4145001535062587 8.529143871586221 10.25506431801992 -0.25099134771504517 0.32244153323623176 0.1284685118877594
