# total energy = -381166.8755213731 ev
CRYSTAL
PRIMVEC
9.26629162088124 0.00000000000000 0.00000000000000
0.00000000000000 9.26629162088124 0.00000000000000
0.00000000000000 0.00000000000000 13.56215443827993
PRIMCOORD
 96 1
Ni 2.381483218355002 2.0323849565768017 11.775313061850168 1.2311089854233508 0.31038588762327834 -0.4944545053738452
Ni 3.601112490936802 2.280063659105589 6.916699038796776 -0.1311180336954645 -0.7673894472395171 0.7532231830414641
Ni 1.8920284409120358 2.7083609133830797 0.6732210883764147 0.32073354940618953 -1.149854926437865 0.1427327351162574
Ni 0.7402321278121372 5.658321842143954 0.7478443861879612 -0.8754326013933891 0.5865169678287446 1.410731394477106
Ni 2.2258095230247013 5.860558651702514 7.9722547229044105 -0.032451692770802176 -0.4256178462161057 -0.32812032878856395
Ni 2.5329870825603846 7.84542606603802 9.564573308510923 0.45292656133338766 -1.0961445813986026 0.2354523715391816
Ni 5.239059221970454 7.716958202224966 7.616126125849597 -0.055200813541859774 0.5582466601291418 -1.3697312979156604
Ni 3.734445157728927 4.179440269088871 2.2228507961842867 1.5644856775148477 -0.3097132870362859 0.27006456229641235
Ni 4.842814069606504 5.72830087471148 8.606217314554284 0.18802940217052777 0.8997002156915022 -0.5755517270664927
Ni 8.595773277530071 1.1595744380915805 5.659202139825881 0.1487509162858793 0.6058568058079372 -0.859054674255998
Ni 4.526008833317953 0.18669353238314138 5.926091717661738 0.9224693910672178 -0.22340906722140233 0.5945295537205761
Ni 6.217959510564998 5.151038720069113 0.47736782695553515 -0.44339625324544923 2.403529712976874 -0.33867959236164896
Ni 1.2590944076063086 3.87855452140612 10.425255178197464 0.5733382643549416 -0.3999986029861047 -0.5585464507577477
Ni 7.721229962555161 8.183275050070328 5.831170608563226 -1.4616004134128313 -0.2634624835988624 0.5595653789405653
Ni 1.6980756958549803 7.578130624639337 13.107238666513446 -0.3232640291375271 0.09546763148170656 0.378059122600536
Ni 6.978564506624349 6.325865473786507 9.69042993141064 0.7263070753769104 0.14714346258944336 0.7890918719136152
Ni 5.621997979900216 6.035913949942432 2.4906484705762373 0.5783303182528944 2.1435284484537345 -1.5447601740614623
Ni 3.046200631123999 9.465979968135064 0.43792029788466463 -0.5442472605262562 -0.028536159766479885 0.8025253717107018
Ni 4.632450722500047 8.42073303319737 2.999202927829609 -0.5807214441928903 0.557203306466292 -0.030671203831611697
Ni 0.10807368309564493 6.2947492673032235 6.481936693017383 0.5059722762054576 -2.478842209666944 -0.7175738092689706
Ni 4.661417149381149 0.5227374428529292 8.647527368194284 -0.651604187246381 0.17338259879163045 -0.19399050484996913
Ni 5.8486977987249675 3.4885270505639947 1.9196419892503866 0.15564995739855775 -1.1210554857076693 -0.5536014480476467
Ni 5.686667427502012 4.652502977065212 4.103528030145155 -0.20787240503838395 -1.4324813845596878 2.6983717393282816
Ni 2.851766038914731 6.49192668176355 11.380925800909655 0.28053306592790395 -0.5767007530692713 -0.08394343289219092
P 6.65126056219239 8.954675275597525 8.748023078192244 -1.1641988538643628 -2.7013452201343093 1.1361429761684112
Ni 2.758537881252936 8.929035447324969 7.601628086342824 0.23707936561964332 0.47411322271333184 -0.5281822366435935
P 6.213168837917035 0.9171858613166072 2.2864574001637976 0.23471317938031191 -1.0813743650679635 0.8081830842171113
Ni 0.5948069507577476 6.4573078171353355 3.307741705570294 -1.8741436858331657 -0.23438073574155763 -2.154793222734276
P 6.409234297410715 3.7987810188407294 8.478625115277465 1.3835975143747914 0.41279626897140514 0.708275157575864
P 2.4170750435790316 8.194339001988446 3.151166400087871 -0.33660034123511706 0.6088272012901709 -0.14749827482570083
P 1.8481525511865016 3.42643363196826 7.750907113985777 0.024193823637384138 0.4365956853838481 0.22178130180999225
Ni 7.609932536685385 6.157487692962286 4.7413972902445085 0.23120619466831793 -1.121512627849746 -0.5821790025750231
Ni 4.932224515216152 2.1205259202661964 10.93147638327916 -1.0216142142901954 -1.268439346442693 0.03252702609342785
Ni 6.281183416710155 1.7159967034007424 6.6984973358046105 -0.05564767127129127 0.3578507659734611 -0.23689810284677268
Ni 3.101853977204582 4.354758502163233 5.797183705007721 1.2964000933216768 -0.24674028574817505 1.5848917519750252
Ni 4.888506152444226 7.65365089945731 10.032454306342698 0.13045777440364628 0.42998897870060787 0.6958482446664209
Ni 0.721221404399063 8.28240583534673 6.741773696477294 1.4921407480935336 2.003269885909582 -0.38211298095493546
Ni 6.4341050234980095 0.4395252195531889 4.506405067256002 -0.29535624698366547 -0.3296858735034709 -0.3917718442009382
Ni 5.227420759986235 4.095061419703292 6.78658362837481 0.8277106127270776 0.43498797457709604 -1.331318759575733
Ni 7.778579039959877 0.3157822377192381 13.381411549380829 -1.044743086998175 0.28125991679159945 -0.20033932988613237
Ni 5.361049948102799 7.443482144470015 4.978490181490835 1.185495301349294 -0.45573472020614414 0.1989159671760445
Ni 8.290865959384622 3.6434223774176444 2.2404409971274717 1.2665966368069992 0.5352741104933685 0.08625434041355468
Ni 8.841107608337515 8.22673395668337 11.175879451802038 -0.016149356066352833 -0.4917605034814499 0.6068312539060646
Ni 4.099194185662656 1.5804864581322706 2.3257872473340315 -0.6598201473982701 0.7463539667254566 0.718892270970078
Ni 3.7806283540102497 5.985625786575912 3.763185487100145 -1.5624079690502126 0.4113034864759626 2.2536418548730737
Ni 7.292469393708235 6.2094067236132195 7.2974694845415815 -1.2171188417918457 -0.4057082517763723 -0.04649094447268767
Ni 0.6783620268388701 8.33420440420961 1.7736043103352035 0.5240450745467684 0.4948589399011155 -0.23777022103908083
Ni 9.36794260524253 7.367090838261504 8.800156160174257 -0.6016147427021317 0.8811659043327404 -1.0436200291373252
Ni 0.8998671627111112 1.3362826148742497 7.746702070953582 2.0583809679511127 1.03412803048649 -0.6233187100381266
Ni 8.946150287519913 2.2109649242199905 9.837593464729549 -0.16581841329112731 -0.38908118474265246 0.22809927360822008
Ni 3.44192687117018 4.175418698626171 11.438429625380563 1.0426530372383656 -0.5012257626594078 -0.20583197756958743
Ni 6.828274526590888 2.6684695289546903 3.7494204112422187 0.562192017930135 -1.160514720144556 1.567481269808062
Ni 5.893639311960203 8.23972529721034 1.0579945720011423 0.34723133858640204 0.18905861476599053 -1.2566984038566806
Ni 1.074231894401576 0.2050806343857554 9.816259682065326 -0.3896686818150063 0.996160550103781 0.5772350283061866
Ni 4.356102114414596 6.847353820560238 13.360159310080824 1.95129554972482 1.5964845990189473 -1.8904750760033375
Ni 6.639807426035948 -0.007604845342712984 11.085352418080051 0.2200900301504984 2.022742135701581 -1.4500178507815542
P 0.9813280569383857 5.185676117280105 12.35722411488225 1.0091191671469781 0.05216974002501983 -1.8180406721920108
Ni 7.565611864973192 3.3384316626496964 0.08440294174318932 -1.69394020746496 0.16184760156883737 -1.3951150280960876
P 2.407234242124223 9.15429899098447 11.639623977157893 0.09930654561182252 -1.1570424453252397 -0.6729854811356345
Ni 7.447142329568555 7.841358164118376 2.8670396670107388 0.10763640563375655 0.30464667114665595 0.6819018097886579
P 7.449579364203785 3.90918888073719 5.428496503233791 -0.5560897616871391 0.2331630612843726 0.4207461199461012
P 3.9368672931152617 3.08270981919551 13.81129055959837 0.9272868670605192 -0.13300419497458385 -0.5792412601029379
P 7.778597572542655 5.748297531528312 2.1933524841774723 0.6745885639566963 0.7010770971655281 -0.44529244182689764
Ni 1.9010908738901928 7.19048459068411 4.9992948589167625 2.600796060364637 -0.03507498932626218 1.874497983848791
Ni 8.325716481297555 0.10705995081772024 7.71960558167472 -0.6505227812567442 0.6760247821825905 1.0931772712401626
Ni 4.3243465338254925 3.7763751262628324 9.282955887141853 -0.09061544559572782 -1.4335941580078924 -0.024524981724557762
Ni 6.600694410084209 7.392841862030724 12.135592030817984 -0.43900840859039875 -1.4406932309465188 1.4961820080424426
Ni 1.517466410397665 4.912709705551532 4.529163078906669 -0.5531993275132214 0.5036829659506487 -1.4981527586155683
Ni 6.5742298818780585 1.669007339768602 9.249158942559816 1.2056195829029948 2.5986083086846987 0.3866198676863535
Ni 8.258934319259131 7.3564253368731 0.486315357920472 -0.6740301203500649 -0.4218846044259186 -0.0028212714988790116
Ni 2.9332908705525873 1.9420478818282838 9.190230889102464 -1.5529288259151837 0.10604540699755284 0.7159655842415863
Ni 8.455944940474462 2.8314913933562367 7.438665526206164 -2.477774687634378 -2.089895750729943 0.3779621920113555
Ni 2.437933465495014 0.6340246758021783 5.350025841237653 -1.6842882861974928 0.16350082090154422 -0.7841196155100044
Ni 7.658515702436382 4.1081917546010915 10.86350257616815 1.4599243112619888 -0.49541095574984356 -2.7575590483217156
Ni 0.17024864505560056 8.499681835829165 4.4171938469112115 -0.12914059825411953 1.1778737802482941 -1.4057159435403854
Ni 0.37779689283816903 5.995735310480992 10.431805519580141 -0.17500856443082763 -0.22942776261165648 1.3472025206855252
Ni 1.7596316695501704 1.1098978499567147 2.6670786586172452 -0.018664923399354952 -0.7895482427247434 0.11760277281784907
Ni 9.615630574062706 3.035683390397815 12.60156046610713 -0.34089279796288385 1.2142646601725022 -2.199973161705024
Ni 8.630197550039123 4.6391317185913055 8.567321129821043 0.30144384793864215 1.871934851107305 1.2577574412488146
Ni 1.626178540969992 4.238818664307714 2.3123066466217383 -2.6343816096295662 0.4248745402921779 1.0192436571754897
Ni 4.495457870609382 9.085014930271097 12.215988228164695 0.29810475626308014 -0.37893664010948286 -0.54555466648377
Ni 0.33188983204022987 2.575241371292895 3.947251099245449 0.18528783486964864 0.03586586065867371 -0.11027307192565525
Ni 0.29996745820612947 3.7975578683774196 5.843145436924854 -0.08733883172698508 0.39568609165367985 1.5393418312593683
Ni 3.267850321141904 6.698676175228412 1.6844329350433849 -1.4301751050240143 0.7974960368169104 0.7965269880354217
Ni 7.968510214554233 5.491361803902205 12.525856718719659 1.3386294343045333 0.864923474331949 0.3264084883037798
Ni 3.081255011447483 5.106384461866926 0.021263358849669168 -1.6568882969179854 -1.620715446541854 0.08930264032157523
Ni 5.884715873352878 3.8567972692254324 12.158213827985238 -2.6973792935080256 0.39979779982920827 0.783360882967109
Ni 5.311410425133488 1.385523687313846 0.40672347466630004 0.8274774136703491 0.17045205540839675 -1.9812064783516392
P 5.322196388309945 5.800142431848136 11.257401503552478 -0.6483995642661543 0.27254233441294357 -0.15305545719850414
Ni 8.399003579890849 0.91191519477471 2.8334326814021713 -0.1418937841547298 -0.10387539592942757 -1.0212899981815573
P 7.092975406400732 2.123166813311978 11.530014869579139 0.47129117988350444 -0.9331106728311478 -0.07208447667107586
Ni 4.316303392900093 2.3543700497516413 4.653500956647776 1.2546266089293168 0.034075344417154214 0.16449840892812315
P 4.061600841498666 6.317312686834729 6.208008440242664 -0.5500114167035431 -0.7122161445014832 0.7846168668613971
P -0.4085915590102636 1.9656120608297694 0.73399313382012 2.002989635665002 -2.084299744699404 2.397785868514561
P 2.4701060291966095 2.9270083249910432 3.9305152503683023 -0.27028104918259255 -0.1847101079893077 -0.49165534536215333
Ni 0.7892637820663488 0.7004954904499391 12.833093582520231 -0.5635768140928035 -1.0845849015854612 0.5866064422187575
