# total energy = -340863.6056486965 ev
CRYSTAL
PRIMVEC
9.33786768715203 0.00000000000000 0.00000000000000
0.00000000000000 9.33786768715203 0.00000000000000
0.00000000000000 0.00000000000000 13.66691324628110
PRIMCOORD
 96 1
Ni 1.8002102005665348 7.179597152798394 11.012880634635602 0.7569528252872253 0.24570824493923493 1.9016321210614218
Ni 2.6340818038499245 4.738967958189476 5.879779948211127 0.3406667979950069 0.28814918771226505 -0.40272885743307413
Ni 1.07347195567587 4.089836733398344 8.318121365185055 0.5557352065611978 0.6289977627007748 1.3580600322253191
Ni 0.42500278571869954 5.6593455696791075 6.802802043889446 0.6063787397496783 0.19751728705630497 -1.9668736066687351
Ni 7.5542791022020435 0.028113518880238532 9.14276902255889 1.260057807247217 -0.5382013114424924 -1.401209828139916
Ni 4.686563843546404 4.35943965534681 12.452006689031423 0.9767204391012987 0.19018912882600794 0.13013021586089846
Ni 6.898079111412193 5.812860117920752 4.472510963935816 0.5196906542328147 -0.0021702681784414235 0.44352043752813936
Ni 8.725014289902548 1.3203371692929244 11.12423937825213 -0.7604322991953936 0.5115808806414868 0.27513246373762296
Ni 0.708581694549968 1.0351026564833565 8.259544919861463 -1.243912307835606 -0.4987590462864701 0.7188850718812265
Ni 5.517475342706156 3.92572370509257 9.050229817903809 -0.2746354694965464 -0.3651503849586679 1.6683695580847073
Ni 0.859032488334309 9.277069040027003 2.706308344466681 0.04368612803404089 -0.23657208696592158 -1.361513023770926
Ni 8.799184974615649 5.766357535789159 10.595616140043898 1.1374048735999702 -0.8404026063724495 1.178417568566906
Ni 6.722508519195684 6.80903320313772 8.596980915580719 -1.003264251028098 -0.23729945205024938 -1.413632627284301
Ni 9.005878680535893 6.725393920376138 8.592798484549245 -0.09175495851680972 0.9814985772162321 0.931179517246706
Ni 1.283956835962666 8.990732658805483 5.168704109145627 0.40560180810549495 -0.06282207753254343 0.4291762529913254
Ni 4.450044987560234 8.055619891772949 10.118901175693361 0.47530518613890405 1.7541613570395467 1.223659471123841
Ni 2.8323714286620496 5.5297826525956015 12.818061382284192 -1.4328307974793066 1.0380739025081154 -0.649076792838837
Ni 3.357010198638242 1.2510315137546344 10.477985150560345 1.0444209277720657 -0.7247132485272294 0.7562840813549749
Ni 5.844338070604608 7.47515934750305 12.646582643780548 -1.6411672866383027 0.3050061113686037 -2.3741013804134274
Ni 6.836598589172352 5.024202470999045 13.132018242960942 1.301266934495675 -2.690309788255754 -2.393907873616393
Ni 4.98114556212178 3.562788793504491 5.234796604340246 1.0596164045655816 1.3906500503461985 -0.6923595147868722
Ni 3.065388584186503 2.701109019621125 1.4104933500604586 1.2269193728220356 -0.27466863672732694 0.16637891378028766
Ni 5.672680045037323 2.7968501791783984 11.092572800636738 -2.3512532721706605 -2.9267726033373207 0.6080522707973592
Ni 1.568350940661422 0.5405150129762193 12.217482401628246 0.9109899296727084 0.7288401262114093 -0.8930282029879651
P 1.5810784546062737 1.6450148361032655 0.39352389924805414 -1.4237766576968383 -0.3240561860215193 0.41432299002857675
P 8.89556110918998 2.698522430213403 9.170047736049055 -0.46199329952134627 -0.7236683522024827 0.39248429688693054
P 3.482324385828198 8.223720189671132 12.338762629886304 -0.262603992253309 -0.5249189925112896 -1.5395814580740002
P 3.4199754418738513 4.520779336886904 7.9699701660529465 0.2918911712532005 -0.10745951373626009 0.2943910548569188
P 0.8700801198443266 8.384256814572005 9.260659604770007 -0.6128607479295961 0.614146042399923 0.7388553443555662
P 8.629543928514313 9.12149082297992 4.06496345467868 -0.9754659978689072 0.30899620636460334 1.5455772706461188
P 6.63717908234458 5.200062537120389 10.688565277099698 -1.5415871756501194 1.7008045386849613 -0.07799132907381406
P 6.2962255117881805 2.7051616542888177 7.215228589123239 -0.9081385762668425 0.5913385575871042 -0.5413311153207258
Ni 7.220973245454034 7.570807128381346 10.620216753020944 -0.7480532088047505 -0.3151966787483604 1.7381158735409095
Ni 3.4088633790753375 7.14994008435463 4.565419014372864 -0.6807430135938664 -0.8825638131215316 -0.8917364807597351
Ni 4.31453384862576 1.749935119804186 6.305490544316488 0.8626025395082564 -0.9278455677774665 2.34716624658548
Ni 1.3769059730184652 2.5052098889908643 10.395478551174778 -1.0682152019781863 0.45330708460125796 1.2106586879887988
Ni 5.030374801679564 1.8047857558365108 3.4873864440156552 -0.641994689181075 2.123464330714007 -0.7610851022880442
Ni 6.599033891981616 2.4533100192142787 1.4747285433301838 0.20225531596192267 -1.2312521958694342 -1.425399795122558
Ni 6.450412386518475 6.601265642409216 0.8462349403802228 2.0633323984191176 -1.1457167358997753 3.3155928211091026
Ni 2.900481837109407 9.028887187036345 8.53951100760303 -0.19839171924145832 0.5414367876606546 -0.3432713254973894
Ni 9.067396554247326 7.0390342273311495 4.870955919566069 0.22531399755359904 0.5368676802327335 0.15625725196525347
Ni 5.304730698388066 6.851100298017807 6.058925076258956 0.31283126383997734 -0.16643187850541014 -0.9341964496961588
Ni 3.8022490778785025 7.335950412881004 2.184519491772931 -1.5676221662613001 -1.5095805408365357 -1.1482101917455902
Ni 2.1678980869146507 5.512685016474529 1.4539275088007986 0.8511544455723147 0.9715036707870495 0.7461832454755472
Ni 3.5275756936614715 4.1287009395894465 3.198098362751604 -0.7329639185717958 -0.17688829795204375 0.6396025347998145
Ni 2.0741085417480396 6.549094974463592 8.904745836054365 0.515182739060132 -1.06549137528912 -1.9665488763394647
Ni 9.1251606050638 2.3215993925142544 3.6176459660443445 0.02266658835958032 -1.2648778543436796 0.7276075393558888
Ni 8.771488858430446 1.6896591825231748 1.1859232298364546 2.0510772352008484 0.40399384018842677 0.432232780429462
Ni 0.4795424707500242 3.5783456814224097 12.507371841584922 -0.29969781178181293 0.5517723652587078 0.7224061976606075
Ni 2.6671378562085266 2.4683253107941185 8.554544974918667 2.4115117027410857 -0.8121325557831626 -1.9477764808279683
Ni 7.661393784858973 4.6109271135733305 1.8638113526059916 0.9824807386238434 -0.10500642421007722 0.29068249565708004
Ni 6.583140840819373 8.84158823274006 5.9962212933244885 -0.4167639953699016 -0.048573280923013114 -0.3913301286778293
Ni 5.897377160264738 7.573813921844472 2.8629856285653488 0.9034473414387602 0.2125191597817759 3.1303993457254733
Ni 5.282936114714342 9.020501781664022 1.1638625169276418 1.0271904228263922 0.5708558642527201 0.5892737046382754
Ni 7.7666595696721155 1.1644227890015164 7.112193620950907 0.5669701560450687 1.7634697789246663 -0.061243163081197746
Ni 3.4418447284907567 3.775804235991621 10.357593887326164 -0.24382002677758655 -0.3974987193823864 -0.40561337806972086
P 7.688520291102403 2.4169390237519184 13.016860854683543 0.7701762659560349 1.18797538745867 -0.3505493472160415
P 7.009199739397326 3.0746237355375365 3.7125756648812906 -0.11650208355450259 0.2790089159738937 -0.49141109056183113
P 4.706098663188832 9.216008721842568 4.1283507695432755 0.3169738252534412 -1.4964843697742098 0.9125382479964348
P 4.884722738207959 5.560775036148766 3.968680698783327 -0.3786175662071673 0.8345762294986594 0.3021426737778797
P 5.183291726375742 8.634885188951918 8.01173564779993 0.24915840827136443 0.19276768818646156 -0.44125426720178196
P 7.706691782031736 6.587613679542472 6.597333466237407 -0.8286115272747923 -0.4223456032227372 -0.46980816758007476
P 1.6140037768143054 4.856438336345188 10.86045394800406 -0.6251022843011105 0.22006586178078227 0.6431843386138019
P 4.681698814371592 2.382846468056648 13.567254398108963 0.6521073521350447 0.027444469364197893 0.32635398091676054
Ni 2.895383361237148 1.5310461584092703 4.627152592832739 -1.7170366842731073 0.8510606003069278 -0.5865521919420543
Ni 4.336132337073626 5.845122451508033 10.446647265894956 0.7679108669606259 -0.2974516960601135 1.0997459255966158
Ni 0.803814874093596 8.233879789944059 0.05365819030176195 -0.5733876295356383 -0.5501456282885623 0.5317838379519229
Ni 8.922547547414942 8.484312069098113 6.98902714337747 0.27540654333461606 -0.4456919912581615 -0.2490684196607194
Ni 7.699426920807161 3.4535357390989407 11.00890363669788 2.8085591935186667 0.3493378434064435 -0.06540192244457768
Ni 5.43313571985223 4.185671271634598 1.2582188706756559 -3.1701002638595206 1.8254835016233013 0.17596732879967114
Ni 5.216161021376386 0.3633653872981732 12.647744274547048 -1.1538823024297031 1.5972371609142557 -1.5756566065300024
Ni 7.556669596383909 0.3396089175790996 13.510947054684564 -0.3893316101905617 -1.986299576603831 -1.2490336882225714
Ni 3.0770142297194014 9.220537587773055 0.47318525028512687 -0.9586931492859423 0.6155143835023593 -1.5366570853383534
Ni 8.694535489083767 6.71537438812168 2.588527015309969 0.4796284961046062 0.5673763903445519 -1.1756454051384075
Ni 9.209556255125113 8.509767096987817 11.44646398716569 0.18465482927134005 -0.8141642415012107 -0.8727038896083164
Ni 8.173062256324968 6.904895754977668 12.797178174517306 1.40912394078067 -0.054629257309105915 0.9604250443753847
Ni 8.040445856438845 4.473230913550745 8.31143825313052 -0.8836058812328009 -0.02282265432147037 -0.03210639361624148
Ni 2.8406727932232916 2.8573782388926534 12.448289283821264 -0.49363869434076924 -0.7940165629087422 0.48921305446924784
Ni 7.777575537244772 3.7308704156668764 5.725725671204982 -1.5543786709878329 -0.3754463675680373 0.6021657301095952
Ni 6.9617913840796355 0.7818783548278251 2.854376114363475 2.0738901193303056 -2.4255465835675967 1.1006578958879238
Ni 0.7859562017388425 3.6219161730340588 1.7781065334653914 0.023867807756533087 -0.5092139230712069 0.07793347925268514
Ni 0.5565640065323577 3.0436687034559635 6.2240624686731305 1.2941215817001455 -0.4829490758374069 -0.6329768019531808
Ni 8.92268761543341 4.723887301534352 3.954972708709195 0.589506646584688 0.06720477998127135 -0.19704034741988646
Ni 3.154107667084549 0.1763260257294504 2.603779488734416 0.5588632106672182 1.1362936428136623 1.8270163933280599
Ni 5.429979520502736 1.3911182079590845 8.80087699627875 -0.47315342990322384 -0.529576802998275 0.27051707645279865
Ni 5.819555369203554 4.869221877497427 7.17049646674509 0.8272069336177817 0.8669618449182165 -2.6389664007867712
Ni 3.711242217345469 8.731578811034778 6.196018050015336 0.679984795271603 1.0931351051483174 0.5216117825149275
Ni 4.425112880272813 6.4998937485095025 8.217163138833218 -1.3177165954112662 0.06650981079677577 -0.22121385934229643
P 0.24784382217275555 5.326926810381399 0.5528316607335629 -1.3787818381537027 0.5170298195711999 -0.9497235987974804
P 2.0614837443500647 1.380762512460302 6.728098166919373 1.1017531858346314 -0.6203393156948284 -1.7214864925143447
P 4.616361752689914 6.115733863189473 0.3814705793654315 -3.993913084194089 -1.1899494804659054 -0.569270007822839
P 1.5031819606019061 3.8344367085226 4.087951417869756 0.21058980396954702 -1.0484490750948523 0.0870953482576113
P 7.4968325388940995 8.18797483135793 1.4518638399953603 1.5876047800308142 2.8120263261316603 0.428291793503843
P 2.2577844032999352 7.151490170425682 6.573552718061799 -0.8726756074735422 -0.6685685830148616 -0.16145807943990256
P 6.488100021354442 0.38523840906223833 10.85733790148653 -0.5424901686258334 0.5850275277674117 0.8182890623028618
P 1.6129859492134333 7.130974874653973 3.081779343707705 0.2331494344376178 0.5642062201466863 -0.2238890921816144
