# total energy = -340873.9064739763 ev
CRYSTAL
PRIMVEC
9.19379384564911 0.00000000000000 0.00000000000000

0.00000000000000 9.19379384564911 0.00000000000000

0.00000000000000 0.00000000000000 13.45604661603061

PRIMCOORD
 96 1
Ni 1.0173024536404165 1.4719539338568255 9.28212847010184 0.5895431562495782 0.8245093321809608 1.0795815348335986
Ni 8.251181507406399 2.735006489943748 9.932782435692626 0.035731391963338466 2.7722076514728258 0.6944781037917717
Ni 8.778316856223192 2.0073177279294963 7.488867999383027 -2.2769471052579173 0.47351492700770065 1.7791499086640843
Ni 5.525892857278811 2.0430172284083508 4.899198837142042 0.13670658352683554 0.1057661851942372 0.7762864926188308
Ni 4.664618274518292 0.7295652152843352 0.4843722567288976 0.5652955965561232 0.7561028185821043 1.8392085645188778
Ni 4.579658428027153 3.2405823928107815 12.777054404220213 0.324381430571422 0.6600908845611536 1.1875125888896387
Ni 7.550366204032295 0.7105211912586078 9.553079680135932 0.5702249155369404 -2.5461112672272477 -0.28688214807438334
Ni 1.994804974864412 1.788808835866417 12.359593657801657 -0.7354877134349139 0.20994034331100617 0.3245022724200024
Ni 6.884395378333919 6.601860907765885 6.658562710303431 -0.2590846662461409 -0.1933986369022411 -2.280212920493382
Ni 4.9394943150325314 9.103556497979556 11.829452857862913 0.7961400370096482 0.12577373866441566 -0.6246515699169372
Ni 5.834041236766261 8.827356551189508 4.985720709162761 1.9608376848873004 -0.5110563755965845 -1.0218186169915178
Ni 5.817759028332563 2.2167707333143185 2.420204562041014 -1.6459634224753654 -2.3346663143462565 -0.38064976614584767
Ni 1.178083515802201 2.187424144200617 3.3391315855954558 0.9720469448850292 -1.6534155078780364 -0.8217973325664363
Ni 1.1454915175540576 4.410226006104718 9.315163609200637 1.1624787858494625 -1.1985963575076262 0.1395191132749662
Ni 7.10670130714636 3.696778430348964 6.873455683350714 -2.0357082089439458 -1.1455539850696659 0.43821393771356143
Ni 0.30961570894313517 4.367079532824455 11.582574676943896 1.5804727969717232 1.2353551622942143 -0.4674409528994788
Ni 4.827302451951548 5.575199172259006 11.494652590160642 2.2139743610801226 -0.659566122405935 -0.2126996512236982
Ni 3.317286212665297 5.478627564473817 9.639844268307217 -0.0700335076793181 -0.791558845396869 0.08581005378728447
Ni 6.0552163289681165 5.419952773833578 8.440802580655518 0.10958350205779838 0.07389221930377597 0.9669384200138702
Ni 1.8772990990930396 4.345299435828728 4.041079564338861 2.0592777687337693 -0.8265908973003377 0.6337635595205343
Ni 8.752611009367957 7.850295332057448 10.067800649478967 -0.6773280743750463 0.49981242725164887 -0.2911018425826858
Ni 3.2077697435166708 6.216962739456009 3.3750324301537558 1.2427653387153563 0.330147900741554 -0.9911787806184735
Ni 6.542367869496848 5.331775099588743 -0.10753980352849908 -1.41568616737922 0.46739441593225955 -0.8199916468162652
Ni 0.009487075597252134 4.135248833861077 2.843505206142848 -0.025853984948626438 0.8892504811130879 -0.7849166574900031
P 8.8680390877898 4.236775896386956 7.816038337791608 0.8640241024461314 0.42437728894078525 0.5808821381404705
P 2.305067926875719 7.433255661384948 9.139050976861531 0.46919187415231456 0.4812020112393132 -1.0453930618773482
P 6.499708667276431 2.0018658083353777 0.2178818753407877 -0.4227346111310397 -0.5771506961224964 0.14089362502498962
P 4.63920662905768 8.082217968956646 2.8949472393721387 -0.45558945287753155 0.2949453846984921 0.5054441716161294
P 2.281688109796727 3.5416055822721915 10.992042605103155 0.17299693331743754 -0.16991572328895252 -0.6255658542010903
P 1.5015579491908229 1.2687527081077543 7.132713307327875 2.3768046382772035 -0.31577980494534 -0.6848788901391107
P 0.874285639437747 2.9428230000709763 1.1928634583646027 -0.4277135524028698 -0.3512980524566079 -0.9191812072342492
P 4.689937982043084 3.865567286720659 7.8067406543421445 0.4948424848408832 -0.26746337722813934 -0.5451178360566676
Ni 2.5465796904809292 8.365745369231536 6.86037659260098 0.18724855814044525 -0.5010992643838724 0.7354743436984752
Ni 2.055281749046721 3.5321819438506554 6.587151757414064 -0.23203254722435523 -0.12249841034725355 0.8651276199229553
Ni 3.339608743482361 0.351123848207089 9.116726607285752 0.3348612470568233 0.06943444064273847 -1.4773147388242944
Ni 0.8732651283501464 6.541733497739692 3.483581712217557 -0.7213641295493383 0.539857873209309 -0.4194842225145421
Ni 1.9446712184618387 9.019598774988852 10.809753582235674 -1.6364611394118849 0.3325338844752273 1.949264121117088
Ni 6.230468422227948 1.8126943115924186 11.497693897077562 1.180674740032199 0.8429693386583612 -0.157431988999645
Ni 6.175517117988413 7.669205179873056 10.414642948014926 1.0252654378895376 -0.4113929608659754 0.14222494224190346
Ni 4.602973888551071 0.48829249031225674 6.845843963085934 0.7304097846913743 0.8463529104186133 1.6692784430522218
Ni 3.505556717637222 0.8504075187466108 3.000604153975047 -0.14124149528271157 -1.03150473393103 -0.51488269132121
Ni 0.7428254237676347 0.16632124217428956 0.495045331698226 2.4481648351877454 1.3017418172495645 -1.5855255289042822
Ni 0.1413839964625087 1.7141460381871025 5.384800304072852 -0.44330729307606875 0.5086457092725627 -1.5545337085084583
Ni 2.7145594930174095 5.191064088816436 12.336947505450507 -0.5412128445753065 -0.04245354117852043 0.8539572051284324
Ni 8.312265071965118 5.350815446097038 9.729770602091344 -1.19930006844287 1.0899541363171745 -0.6968676870698709
Ni 8.015498608932168 8.811681133132222 6.129390936208227 0.6174334549019431 -0.07157179870071545 0.2716846143983385
Ni 8.325393809200197 3.0807942603558516 12.854372369486004 -1.0524643669018325 -3.392287028638048 -0.15747209820896108
Ni 4.134963826260035 3.869741269006881 5.565649578865397 0.3464893182140549 1.5063113831669606 0.35943045175575516
Ni 2.2120727047939233 7.329411762876407 1.2876680190233338 0.3939760509411086 1.3953867937002356 -0.6264572556671082
Ni 1.3572521651279588 6.643214591297662 10.907942378311933 -0.3493851517046112 -1.1445592252565644 -0.4405837234973186
Ni 3.73433507713138 7.43169271647601 10.837298187807304 -0.5725183395568075 0.4148395246536791 0.0024543750777635148
Ni 3.1212837272909213 1.5668522712100927 5.386522301610758 -1.1644225398393946 0.3346370468611592 0.3067200087359169
Ni 5.927155978164623 2.1749849414841886 8.691973343797963 -0.13033333301064004 1.11473494280628 -1.4699971221169588
Ni 1.9061400295597322 5.052219418141272 1.5713967633776686 0.36281865150169773 -0.9205845153396791 -0.40024748577211716
Ni 3.9483390103392857 2.2056830182544425 10.83445822496983 -0.5457441567867568 -2.192769444867733 -0.065576500349229
Ni 0.6918164182160558 8.61555912844128 8.180468363449906 -1.0146889479252719 0.05795163681411955 -0.3223194058360707
P 5.415833954308848 0.40843795739719435 9.529114218405766 -0.917431057312362 -1.8628493438662694 1.8929927002188687
P 9.430809580530372 7.082264203805439 5.7241478220807736 0.7628609632415443 0.6526241438704631 0.3847339635175503
P 3.9162894459124797 4.802617116183913 0.7498513208229889 0.7902969479653098 0.8055564452275416 0.22697210198231232
P -0.2585156848350946 1.0921399333977886 11.317853181440961 0.6311644313347904 -0.513039210354568 0.04109805559189051
P 0.9062552178603893 6.494256747682312 12.964268542309567 0.49539990000625 0.15567284021669317 1.4941238399618333
P 6.9928637550142 4.544565717924709 11.279611597036686 0.15407824203606366 -0.33501602746713266 0.14917206298369792
P 6.732486326978753 1.3821949271158889 6.734145806720302 -0.13809703611645893 -0.3815285692063752 0.20179560271668473
P 7.272060878511973 7.381273952472394 8.487576005503875 1.0646863628893213 0.5567960437255443 1.9705999064803867
Ni 5.592124946243444 6.369570519123408 2.052907911543852 0.2338264058999844 -0.5980396237563635 -0.9918912333044659
Ni 8.443717932600366 8.568505292888672 3.5563928798694593 -0.5247415863931607 1.552999788362435 0.21264051585098864
Ni 3.5880894026227166 5.592373178670157 7.270261653107979 0.11710346458392734 0.843686933550676 -0.27238061202409863
Ni -0.3547480416371081 4.979450541939847 0.4372945173129762 1.423022038919001 1.3761364301110557 0.9071253045109796
Ni 2.1534622707087574 6.126082089898071 5.487914215370982 -0.031470816914771604 0.3317059892572932 0.2971832728900753
Ni 7.782040608504779 6.660646023929108 4.398027680780139 -1.0266903432615222 -1.9258786523136122 0.25738722393905994
Ni 3.092350858888409 2.8871821613127926 8.80809923115268 -0.6165641649231124 0.04414352728643365 -0.5480350097034626
Ni 5.2886745952763885 6.351173738165852 4.578568044108329 0.03531667302342305 0.7099787705305322 0.9058351249446464
Ni 0.023099406374741723 4.175857820112712 5.655575912649525 -0.583574340260653 1.1726482701832965 -0.9028518739466064
Ni 6.569195359169086 8.862706687512247 1.7894119487253952 -0.5734441938051865 -0.25883449790854773 0.8861265907721254
Ni 4.79061921555942 7.401656592843659 8.538117046962132 -0.8143771288429652 1.1329242121207972 0.0330409896153689
Ni 7.592740398651672 3.1786621930361005 3.965739184072554 -0.1571093155529036 -1.2915648767165626 0.36156343893835796
Ni 8.253902870306668 1.3223892998650648 1.6855046130411393 0.4180400338688478 1.192402055771456 0.8316968510683354
Ni 7.122358337616483 3.6999870643090778 1.41296563485544 0.4347722590218641 0.8209838355262054 1.0645727201295923
Ni 8.970430366912387 7.548113724604708 1.3262102404777387 -1.3972007069805228 -1.7513521697255257 0.20233296327739347
Ni 5.24790931453386 3.939945076798932 10.04489799028688 0.40496057497707033 -0.5230071202005573 0.25589058478887544
Ni 1.0677028300568678 6.163243403556462 7.710395213879072 -0.2864509740742357 0.053664322292675315 -0.6043704510703979
Ni 7.771532102440568 0.025678265474489006 13.022479046373917 -0.6131847069279182 0.3725129959713262 -1.0070239751808463
Ni 8.176555484901414 6.552618949340764 11.930130413861816 -0.7360099044869711 0.2886901478173996 0.9447955653682438
Ni 3.053571437559589 2.4337902308171158 1.3088119055031868 -0.2254512944624117 1.4527789584664592 -0.08856524793491843
Ni 3.601181364683466 8.446135900312429 4.805826669523385 -0.0005874970723538269 -1.3492712302890957 -1.0339184855788452
Ni 1.4470203656624774 9.121815372033382 4.822417789421438 -1.34077810521642 -1.3990501014844359 -0.6954260695273378
Ni 5.401399698385129 4.26950580153883 3.3756107197700627 -0.9230535457054618 0.2817108882860891 -0.5074061804385068
Ni 4.3343772090533275 6.960372888495459 -0.275699804419186 -0.19461682558005836 0.9058418098128658 1.6490009237501082
P 6.45514634978454 7.551230420629001 13.559523465913374 -0.013775199407221436 -0.569804025949438 -1.1498443849149036
P 6.6104662985586256 4.644566610715978 5.097715825061091 -0.3802196205869645 1.8598560655659 0.28204410325579166
P 1.01764262400295 9.075478652380168 2.5734825692605385 1.4494491227622779 0.022280922885387435 -0.024574089794938324
P 4.72662121843521 7.554907938061796 6.437089739189519 -0.35709203343056567 -1.3913177658371845 -0.3563821518477346
P 7.129207713835064 1.0699553094844545 3.8433293388045495 0.791492768045624 -0.5911107578470143 -0.9670258375213538
P 3.0862829551242976 9.016289009299337 12.905963342171324 -2.2165416075866666 -0.806008959383928 -0.35115998421684685
P 3.6944064316048117 2.8646573670369246 3.710598540861407 -0.8102301965541273 0.28507491966231546 -1.1219934241409064
P 7.8604820553462895 5.7278069519264045 2.3387686966298498 -0.45983280153491773 1.0702111493622923 -0.4655023411158692
