# total energy = -381163.7400991912 ev
CRYSTAL
PRIMVEC
9.28976254727186 0.00000000000000 0.00000000000000
0.00000000000000 9.28976254727186 0.00000000000000
0.00000000000000 0.00000000000000 13.59650651153225
PRIMCOORD
 96 1
Ni 0.3468277096253701 1.962248666673043 4.9311945249328195 -1.9671921663504184 1.1178776022003198 2.3131171274205706
Ni 0.479075839807074 3.125856449965261 2.7779836420569977 0.1576916704189349 -1.0161560193891015 0.026657968907160542
Ni 1.8103610495592068 4.303937683255238 8.865343921531583 2.257459171736635 1.5707594263387012 -1.4714883619505044
Ni 3.7311216368420115 7.652924939058861 1.3705010132312978 1.3703774161400915 0.18695982325543287 -0.43946529362215925
Ni 0.006092226257079737 8.374990310031775 4.596217765347334 -1.180435627438199 0.5008619515620858 -0.6378405578033854
Ni 5.867571930188978 7.247008765983077 0.16038960776720507 -0.2305361651844868 -0.09436308556361814 1.3399754068094667
Ni 3.4182238558249947 5.735304291505994 10.166910252023234 -0.18821400737750812 1.164253618361698 -0.3799468265415521
Ni 5.311217342951637 3.5918588069855275 3.2842088128130125 -1.8035514774369006 2.863943840936558 1.2929599572918766
Ni 5.633432755770806 3.671834372473785 11.743901319500477 -0.8452367945362991 0.46417745165685864 -1.613116036928041
Ni 8.227914789900506 1.550767925851009 8.473900269477307 -0.5152570439414932 -1.878794554341616 -1.1565822178593694
Ni 4.672954919623 5.345663782355802 2.1906960035985157 -0.44811448465672504 1.1765589180916125 -1.0155482106017735
Ni 0.505966915358109 6.132924706656233 8.14059566714445 -0.9661578330941039 -0.42186737803473795 0.535967022795335
Ni 1.9050980476831763 1.0261007185509947 3.906221583551098 1.0482667838807174 -1.1329090426121458 -2.0560867726002976
Ni 3.2118332020379556 2.9413246073750936 7.263512029090277 0.11100969298136365 -0.4741741578582543 1.1285857326464435
Ni 5.331998541696814 6.90497828972025 4.095090816259336 2.7246023908900368 0.8419103012662275 -1.1429543426632898
Ni 6.321776288815693 8.878839159536554 10.334405599137863 -0.3146981418453871 -0.2998615910531868 -0.01613752899181092
Ni 6.9554031206495415 5.318119636499991 13.11671269666916 1.3194500331626051 -0.33943549669106704 0.06992809244970537
Ni 6.349757053509691 3.0117967458109076 0.1449769627792194 -0.24905504992428074 -0.32874150731233065 2.357755334955236
Ni 6.440833885202905 4.823904270722861 5.113128949923903 0.7121390114066446 0.056826522070740834 -0.41295670580866944
Ni 7.7321294542584065 4.638266946393455 7.748322439297619 0.07496308377045154 0.5341651936999059 1.8019735914268193
Ni 0.994905696026942 4.581525076954231 10.911767126349485 -0.9770567393947948 0.8100695026065468 1.536808266204237
Ni 7.503666324736659 3.9908262377003845 2.838936560844093 0.5582713427194902 0.5274764688258207 -0.6624768682948269
Ni 0.11640165328428609 5.625109128557717 12.969191267937187 0.32931100666255547 0.25141943639139924 0.2745503659819078
Ni 9.064569381491106 4.420654259488769 4.750197436979461 -0.052787833224992954 -1.3575640664255073 -1.5426508410279434
P 8.119763374705443 3.2916787108510084 6.284577292778449 -1.2140692563322446 -2.0740922080387825 -1.0890107985672988
Ni 1.7329030097124078 2.4532311950950896 12.285422942930744 -1.600267205989831 -1.279418985382648 -0.4567014549947876
P 2.494914359498135 6.422235780648662 8.156489521830693 2.432572894286759 0.32689262702905 0.009610012285938288
Ni 6.559166880113979 2.214920917307858 4.741740966162412 1.0420370009209214 0.3217257381161298 0.8830476947364857
P 6.9359689374689815 8.843500902930986 8.305290150860925 1.2307531447458286 1.2185694581954434 -0.4202516968081859
P 8.192465056144762 1.0785507177084699 3.7041915442884155 0.47908470778599427 2.1224181488376805 -0.6560177429330445
P 2.695461752663486 5.862852730831558 0.747193249598676 0.17134422820536296 0.33150904275513876 -0.08789650400266798
Ni 4.038622065838042 2.1575101849675824 13.239570734901097 0.6427415946494286 0.2980502488760609 -0.08889563469114369
Ni 1.9156976667123438 8.143879598193363 2.538848433358469 -1.0262815378588777 -0.25106385282419347 1.3661528365357825
Ni 8.174470786153966 0.7285059633242911 10.66231284944973 0.7965390722202799 1.1153975160909435 1.0359427150977256
Ni 3.153177641520722 3.9312324111691765 11.369099348014869 1.4116125115304785 -1.0285312531250028 0.875628262343963
Ni 2.730595634493732 3.6365983032558784 2.7347472293615103 1.656208240131825 -0.7202084186783403 -0.08377528274544281
Ni 0.0853840652242624 8.489031434661099 7.518704592295307 -0.5206494186016581 -0.5596252856442233 -0.7103166134859251
Ni 1.3191648565993241 7.853416593649126 0.13038367484502214 0.7844016655267975 -0.20848304203918935 0.636984123340361
Ni 4.029109349023083 1.219234881229689 11.058147772244663 -0.2857205236661144 1.5978287717516675 -1.8819390135078686
Ni 0.7935380168315509 3.296026319707845 7.060937609744239 -0.3929728064875748 0.31388670168768523 -0.08282397457576704
Ni 7.763612459420413 4.992309085587669 10.642543305842395 -0.4400975278895195 0.7296878189236852 -0.18390201026571554
Ni 3.1265531821538564 0.7744967906053595 1.437953049873613 -0.7267266794128322 0.4698395350386425 0.24482712788586222
Ni 2.474012393840267 3.797181138083387 0.2537675136352874 -0.3043196268245404 1.2342189918072421 1.1627829473534426
Ni 2.6372428109844392 0.2506712357891686 12.601717990099354 -0.47627474914102497 -0.9828808022757396 0.5012908115693884
Ni 4.756637100354586 7.003245397599771 8.624168680984846 0.9338030709124822 -1.0966220352556533 -0.2242845278478202
Ni 3.3114380357195787 7.177995120262056 12.466732166904594 0.9255963667319737 -1.4336484082845955 0.8651918975019873
Ni 6.211348881804551 1.9799549540258852 2.346376630747066 0.8245756666425218 -2.4044596809903105 -1.0227259592971354
Ni 1.4011284312657077 5.528885768431411 2.69286990892191 -0.3534978883214041 0.529750609571978 -0.14648885972457998
Ni 4.03250940210343 2.001414305434629 4.160993320514215 -0.16449506649401346 -0.5902286123523771 -1.4564363527133883
Ni 5.022054905159443 8.749209813407717 12.23956124334863 -0.6809679851204787 0.9215671909679226 1.715976104219077
Ni 8.032829777093744 0.6096899007624584 6.343831114001623 -0.21939171853189313 1.138172347893614 -0.48365972875118635
Ni 7.844842142848142 7.0739497800984505 8.885017780585018 -0.2577618336696593 -0.7336642870729301 2.0956781617396745
Ni 9.071889714352617 3.3262552069303783 9.301152692426871 -0.18607150711320858 1.63291635948342 0.928556220691246
Ni 6.88830316600653 2.876324139060383 9.997225307883912 -0.9114064483848368 -0.7142979667311763 -1.2480407281816828
Ni 6.895614209105526 9.076200164159394 4.445704104109409 -2.750842555533488 -1.351097484864557 -1.2896177802925208
Ni 6.17763633363904 6.936786436570267 11.457082688790718 -1.5988986077770788 -2.205804937895453 -0.6358746923262661
P 5.462742659327404 4.992838602051002 9.29317092847432 1.0856557660521367 0.10956884676977904 1.0159462173711407
Ni 4.217607920206989 7.100787904003152 6.024271644285381 -0.5203493708627361 -2.5017525386062136 0.9274208215352222
P 4.411977621300125 3.632371461311732 5.583717662697631 0.314442059970523 -1.1838973607345546 -2.251013159000975
Ni 8.140265880575182 1.3589250401618451 0.9718401446794225 -0.7398706729939579 2.346717846194152 -1.1294061716652097
P 5.956075497665647 1.446499631387052 12.17402661368933 0.9338879173168045 0.738772811944089 -0.009056196664997306
P 7.186030764837192 7.037784734629082 4.984629238916843 2.16195425925909 -0.8818117654468555 0.9270377271641906
P 2.4899536263153337 0.2233491152574559 9.578657407239485 -1.6837028460076677 1.8391399160644712 -1.077388383837022
Ni 1.7853065600573097 7.980760658199367 5.882759762924111 1.7861250544303369 -0.4633716679261116 0.47773462151600304
Ni 6.612164975259816 6.489001303841147 7.064459358713528 -0.09968475488684768 0.6117019517348046 -1.3299645595406837
Ni 8.4931653789801 7.70491973985312 1.027924298932612 -0.05599759841154227 -1.5631502465328757 -1.5166901552981233
Ni 6.167909952286245 2.668047663482878 7.253124216646444 1.5187655497699133 0.12572720169719637 1.0324835529045315
Ni 3.7669336713358246 8.196487523313587 10.373033360649853 0.42760325207725064 -1.0459075396199213 0.24119852999433944
Ni 3.848339860251332 8.902816036586755 4.512993569907718 1.0952043289725202 -1.3589900002387563 -0.97116094273565
Ni 8.335861830320248 7.296160899447867 11.586902475051103 0.28417194823207187 0.5194978214957182 0.055087170782130934
Ni 4.63303681009773 4.9836788962115985 13.34336710942931 -1.0041883055042642 0.2684725352189441 0.2837433453350855
Ni 6.865608276183344 6.5496262940114764 2.3508635860416214 -0.3256618399457424 -0.3260924997252578 0.22992115730830726
Ni 6.764517080499382 9.01766537055485 1.7279524952683734 -0.9892010880668126 -1.0124628868082304 1.0168674436338292
Ni 9.297658812745128 6.303633382624664 5.903806648877206 -3.099135759725501 2.364591126930147 1.9558967959422575
Ni 7.978586853770949 2.944250882567195 12.15650054772927 1.2359670848466002 -0.4124630540017025 -0.8152860138104797
Ni 1.7273012829160992 2.4309078957724877 9.992194901482254 1.3620179884318027 -2.6380063508663474 0.09402807082170257
Ni 8.915059943581008 3.6532920064946284 0.6503112453100836 -0.6432822976442469 1.0260010305039815 -0.37159382659116647
Ni -0.031053818133830655 0.08542029529806935 2.3049480058369216 2.4130155409801217 -0.49509548139195375 0.40439518939190355
Ni 4.431123821842732 3.1302505076346705 9.270437950624824 -0.5311271782045304 0.17932878907273633 0.701814746662501
Ni 3.8498540915412125 8.715302180229399 7.43439256566523 -2.841872205848499 1.7667139968935766 1.3242659664940097
Ni 5.220595709621638 0.889230002542022 8.765259736104206 -0.2560443367579203 0.6136917284713238 -0.6179175936272133
Ni 5.102690043786239 4.708181699078392 7.090469764778177 -0.3457683808876303 2.045743995913393 2.3823890743435165
Ni 0.3683037826066402 8.473257417911295 9.741108413308682 1.045430857093819 0.5677756826654995 0.7327453748030864
Ni 1.2912398304804134 7.214819738869962 11.463241801337903 0.5793101656676604 -0.49442776590096776 -0.6284637445741758
Ni 4.731972780878303 1.360820151714825 6.234270441833094 0.12873307840305573 -0.7012994975889792 0.3636002668627286
Ni 5.955852543365296 8.676378075293194 6.495023856879367 -0.14157496736273037 -0.3041141956819537 -0.21681264495080724
Ni 2.3131322866122908 3.434638866188307 5.173416721714952 -1.2092492092357818 0.9430114768846275 -1.3951427960102294
Ni 1.494100374511902 1.1361007964864647 7.7560728881635566 0.44840913307900837 -0.39587378218445374 -0.10566514083999866
P 1.6044813327104708 5.570959102860069 5.009401319638296 3.113086308368323 -0.13796848095839465 -1.736248738425184
Ni 0.14606943885093726 0.5311096576038947 12.791443738911438 0.967879700881217 -0.36105281785052656 -0.214574756759224
P 2.747094252719675 0.7451810870380119 5.864078050507234 -2.064916712187102 0.7500715247863599 1.7337313713199691
Ni 7.240162211009811 9.098607071344627 12.990850349239995 -0.174731399510041 -0.025748826829329847 -1.0593022157592726
P 1.0324363365859572 1.9995470631691927 0.7149679924117532 0.5452975561676415 -0.6030748721874258 0.5147021998792878
P 4.847871858010548 -0.01863712155680599 2.618728314292826 -0.443283638926985 0.42366303648257997 -0.14239129261643865
P 8.711725621661275 5.639257436867465 1.8294914575055385 -0.10492594868112896 -0.7543392989237784 -1.003702109896465
Ni 3.3519692695708123 6.614942614251683 3.7603314371166925 -4.318194755962853 -0.9709894501547922 -0.027268091687333688
