# total energy = -340862.1260343247 ev
CRYSTAL
PRIMVEC
9.32438617708059 0.00000000000000 0.00000000000000
0.00000000000000 9.32438617708059 0.00000000000000
0.00000000000000 0.00000000000000 13.64718169355729
PRIMCOORD
 96 1
Ni 1.576735032312167 6.844826662938952 6.6402953224898 -1.0005921035125735 -1.0141369320765437 -1.2762830108568277
Ni 8.67809420426348 7.03493224572988 3.0814792772467627 -0.16971260613921094 1.3984654326255592 -1.035267543407572
Ni 5.096672117480403 3.7517133492173884 6.247188531000553 3.545633277604094 0.38209832566691615 -0.7796250700737605
Ni 1.7556047299126372 6.831669954222157 3.8292763896985433 1.052605263355071 -1.0499487995688306 0.5884715204519543
Ni 2.950767236279621 4.659973821206597 2.9006812966111166 -0.07789028471957553 0.11174065761011723 -1.1548132988844046
Ni 4.227266362162266 0.06925594494905551 8.086596180539122 1.79540467996005 0.061594375773029404 -1.507315913172075
Ni 4.57124296355315 2.4175801931586243 8.639211514434258 -0.7654621483098172 1.3818301380617235 -0.10822724514022006
Ni 9.130690578752832 5.410269869119824 10.308671038945162 0.2819659417196886 -0.12236625564476346 1.4482985540976026
Ni 0.5577465435385477 3.4998057356859125 3.6119445320797143 0.5854319622946821 -1.4650919715058575 0.6612609936098547
Ni 1.6872663045509186 3.8512698190750863 0.5527440104226299 0.8293342643734298 1.250430568570098 1.759604896652621
Ni 8.864591249652992 0.006037539967487067 2.1858011317936574 0.5315403544825491 -0.06753748073034174 -1.577213152383845
Ni 8.084559734625763 1.8479720981256516 3.6434973220348947 -1.6534026523622298 1.4856564259207703 -0.7028100206962348
Ni 6.868864930176298 5.271560302237449 8.039104285069774 -1.9614601489626475 0.8058559787458314 -0.9934354378631342
Ni 4.606302655101801 2.9725117045486247 2.682257553385812 0.5202030750928589 -1.0742097289987242 0.17968771507405185
Ni 2.372785842573593 1.0641082604318017 8.772258381668363 -0.5071701531683007 0.625647101060987 -0.1473776900874365
Ni 5.742078146715233 5.192163155020226 3.150397679420802 -1.6500622751350873 0.6260175970265283 2.3349997864262755
Ni 2.5526718982535317 5.830305487521971 8.955308201535127 -0.9354748021879502 0.671302951226889 -2.2059926284262263
Ni 3.3566204634994548 6.454377321474005 10.822855915734511 0.37549573274873393 0.16163394289613453 2.3197413176053083
Ni 8.424704013350027 7.402396975581151 7.908678502754373 1.3627695218858467 -1.3479129164889885 1.1344097955273882
Ni 1.9127859055604046 0.26096625457921896 1.5398794640102529 -0.13923706325817312 -0.3995568874629958 0.5375058280373646
Ni 0.4177623330831144 5.247801766581608 2.1649611289715205 2.486753751204537 -0.48713791710777393 -0.6207635477164406
Ni 5.638474893311759 7.7564625626783235 3.525845016169626 -0.5235251974875564 -0.7397752850666742 -0.8803035563324453
Ni 2.6322089112615084 4.7339721489007704 5.133168696919386 0.3687180477052682 -0.49922158774518544 1.3082302531873857
Ni 4.013896436176155 5.865812749601029 6.7306402313685325 0.016413151250700767 0.04801200910290441 -0.14541311016189795
P 8.608469013626838 0.674346126218752 13.58518197213316 -0.9061935367253295 -0.1681455187624072 -0.13367088202430524
P 6.408809046846808 2.118183481473617 7.689135833203049 0.4941732266880005 1.3616930009922161 1.9315978141855767
P 8.973360212928261 5.285696071489512 8.294060972839658 0.6271265138199908 -0.8588942374187337 -1.5615217097905172
P 4.835067142456747 5.112020056918988 9.388646921515054 -0.7970322098066144 -1.0736582273706285 -0.3598904221113092
P 5.767888047302113 0.5642409784224933 3.2176638003867506 0.5427565349133426 0.5481782201495463 -0.7529020522566194
P 7.485039009143835 3.259115358572795 1.5263003606053858 -0.8892322262806427 -1.925930074376838 -0.813004931085787
P 0.13518308407819923 1.3506466437536204 5.14227209502017 0.3720193441643593 -0.6988903739268544 -0.1265784939538981
P 0.6210693816438781 5.295589245088745 4.833640511391071 0.8173292694927536 0.6837982554804224 1.267118313638424
Ni 7.690343341196547 3.647681174055607 9.461427484391075 0.17652680084756697 -1.4320406974778435 0.13209865244117894
Ni 2.392273809418455 8.973500078719015 11.081552614749118 -0.04628834154357834 -0.3924814686734531 0.21999592777479532
Ni 3.210843011991049 2.1058659675013383 0.7077432797346569 1.6781155817278774 -0.7939705401621552 0.23401743886486795
Ni 2.6990834080133492 8.999309979305893 5.847912725700512 0.15734997080879998 -0.7232374353126512 0.3578893325208804
Ni 4.030074245973205 1.6241308866051967 5.944739947761325 1.3130086484126355 -1.295109913755344 -0.4466880366228436
Ni 0.39251282809785076 2.5332958240412724 8.75287951014029 0.6256735834235482 -0.32381373099341004 1.5481995387603142
Ni 2.6283392910506866 3.797225677528283 9.917065473609993 0.6466486430133186 -1.0820047995631108 0.07506027146994815
Ni 4.9541022547732565 4.218762522084508 11.296890918630421 -0.09830355826860489 -0.18247247690804058 -0.16947760731026942
Ni 9.04498082217964 3.900903526020157 13.117862392070586 0.0007147666788374788 -1.1966315204717715 -0.7816292449879829
Ni 7.59734191473212 5.24686000359054 1.856821872925871 -0.3675191423011606 1.3626975309973306 0.00715435165659413
Ni 6.540693163140457 1.144018248881785 5.982883213776768 -0.4575450339420056 -1.9067617289785033 -2.8242853460046717
Ni 8.498851531221003 4.4439837427403885 6.332374257077725 0.17707341737965634 1.6894382058295485 0.4193366411930843
Ni 4.536873276572212 8.783571659263037 1.1261555225254685 -0.5623794513505926 -0.44193869486331633 0.08777411949219077
Ni 8.02780219673836 5.047840307735647 4.19519793365851 -0.6842695386898862 0.705055879307618 -1.3549842215134729
Ni 5.138939559445838 8.146725416422267 5.997608284227201 -1.515593579799835 1.127575031993742 0.018150445656781644
Ni 3.613544596725924 0.4115933192723199 3.5509966151013623 -0.15713014148851004 0.3297794616585417 -0.0725948406485911
Ni 3.7190220517254815 1.6870798168299153 10.726903321085205 0.03150424125586833 0.5120789033238277 1.7074618961004786
Ni 7.7383825781270374 7.818367161665422 10.0540155288447 0.08794226963893886 0.6467309183144797 0.9017856374656211
Ni 8.955839691539985 6.680680170911706 12.945252154825596 1.3670843472111165 -0.7341029172722454 -1.3671558238790005
Ni 4.982923932054342 4.8689333125909755 1.0768229932498177 -2.5157596515185836 -1.2313820365790793 -2.0112189655533297
Ni 6.584844131088027 0.2658457057992746 12.088631997659457 -0.0012845231393784331 -0.8889401489615205 0.15267750503379512
Ni 3.1876439394982183 3.6934825583340576 12.489805315520709 0.10534992359242501 -0.6111877311025474 0.3653637865210546
Ni 1.433913411181666 5.1460727147742205 12.066632973651283 1.0512166105376606 4.2425063639906035 0.842938999641058
Ni 1.1574640135661345 8.938421738398263 4.009965275017402 -1.142880552002561 1.6999517037663625 0.14882367850534367
P 0.7588968616059064 0.6035712387821233 10.016416806974586 -0.7526043185105425 0.07734855328349259 -1.619484145237914
P 5.932342244069014 6.61149322641942 1.3727156006571701 0.18748201430749 3.103546230088371 0.3538784115892744
P 2.2348968216636336 2.5197754642685215 2.7159801279748685 1.3588105372380985 -0.8983532147453044 -1.0115678857977868
P 1.0925476378848296 3.3574783070160703 11.35475526114198 -0.79192471337672 -3.2773939414418782 -1.102900412065197
P 7.169091512219771 7.949542624619258 6.5247587198193155 -2.382703777370458 3.637800641067974 -0.4780680935960217
P 3.2927857165999694 3.3728075976825553 6.961167960125566 -1.2314671400937178 -0.010942615054432768 0.7282312889828167
P 3.1284527368517194 5.934897125846762 13.453309977541377 1.3030543654134008 -1.9445258351011547 -0.03628083670890526
P 6.1009178194700935 9.28899068072662 9.456514465381238 1.2456187490037516 -0.10347250406405405 0.10175243604915378
Ni 1.3738270674743507 1.7319860600475487 12.984897579433722 -0.1416580139948399 -0.44686749962350136 -1.3842138078025517
Ni 6.080031194717706 2.1917528874094825 10.664658382007275 0.22607735808218485 -1.318646049204071 -0.5240710426886975
Ni 1.1878335389315482 8.010636002019991 8.661701933587276 0.05645679743614792 0.5208504788688707 2.65884642754015
Ni 6.492122436205105 6.303005238335494 5.611489187643953 -1.2163459681815634 -3.2737440033941168 -0.9095490834611238
Ni 5.4592788421995335 2.858260002275854 13.417690822829716 0.37336814488276987 0.03333486670670388 -0.4159836655604513
Ni 4.364838353946519 8.733164028275803 10.336075409546622 1.3753748693546828 -0.80968409424267 0.7462691203211341
Ni 7.756471887064374 8.89790728101026 4.092912216003926 -1.4784205702939635 1.0386089490759791 1.19206575547796
Ni 8.674970534936673 7.270708671394557 5.364939366336908 2.72965615126386 -1.259273877893341 0.039319366424912926
Ni 4.965496654526568 7.009010452510399 8.590504651462574 1.705772424213198 1.137180673404306 0.599719839672264
Ni 0.03488532552951253 2.2925308518397536 1.2170953272342016 0.1306493215891621 -0.6983229314591587 1.5738668616194313
Ni 1.4913236560925816 4.120175788376028 7.6020945543018925 -0.8716271116043698 1.37446521305622 -0.8871478329477882
Ni 0.3951003452267738 9.22111847466741 6.878083950664105 -0.6204599004330927 0.5716343942899574 -0.9065660895734001
Ni 6.7260619578178975 5.568849702675117 10.488473175150649 -0.07348367101144763 1.0437411280962219 0.8758591474078464
Ni 7.185306619561022 5.010113841776647 13.321040764103858 -2.3761328090211595 2.612935009720016 0.008146283256218228
Ni 8.392982452007338 2.3322434120274402 6.7971016578183505 1.0697761187074026 -1.2754844262149323 0.6362495591671817
Ni 4.861016908834379 7.362665766621364 12.474902149296716 -0.9401567810446517 0.5549813591143087 1.1578508001591479
Ni 6.2592365702159825 0.8400376690145126 0.8488081865333054 1.5438829136628316 1.06162083659012 1.0988429541663722
Ni 2.2894631288292464 7.838013643073137 13.313876838301509 -0.3413075169027993 1.1179146260858426 -0.1991712777199602
Ni 1.8200455619053832 1.8167820267878225 6.443093881914691 -1.2662274263930386 0.5035328135260296 0.3734753598845955
Ni 7.58658157323022 7.978970386993604 0.47499727953628673 -1.3292454219864722 0.5785344638439004 0.501784206266039
Ni 8.677889067770376 1.696329607791687 11.130436641055754 -0.6974407859645214 1.9283890774402919 1.4800614483314962
Ni 0.40937691270819376 9.025809884460486 11.941202264942959 -2.625161633693195 -1.6266852909720435 1.6056169003375187
Ni 3.134317775677278 6.956364968871123 1.9171292045825752 -0.08629342118160623 -0.2557995677369659 -0.5809204475775737
Ni 7.972051692544374 0.9343128066133924 8.988852680350623 -0.46363546311045967 -0.6846644601354596 -0.5957873373870771
P 0.7243033893597642 7.154405604190749 1.2360583311444384 0.2750507026570941 1.3234524694537786 0.19120908545009005
P 7.030810867095704 3.708839822158693 11.817899381131285 0.5426194951148462 -1.8033015662096235 -1.8315561901799424
P 6.567733882685959 3.6156239348151122 4.42172736567723 -1.3209361307898282 -1.78104892545901 0.6489083855817728
P 6.89107561774781 7.195125198071855 12.016220680471022 1.1768929043922636 0.4209885749742104 0.17749919206316528
P 3.889518450652896 0.39188436447806907 12.76611950953851 0.018363590108852246 -0.09024186430639297 -0.12323477429264583
P 4.194276684316753 6.390113652816212 4.589860965179531 -0.16150230241427668 -0.1774490555515202 -0.35601936919167715
P 1.0317806139958516 7.0686958476175565 10.817629597353388 1.0751106435464388 0.6516751496936326 0.723598932417128
P 3.1078458436808374 7.6359075754356365 7.8432259748751845 0.27623598121444687 0.7520877838854402 -1.2897406790236305
