# total energy = -340861.0479133094 ev
CRYSTAL
PRIMVEC
9.29336465856382 0.00000000000000 0.00000000000000
0.00000000000000 9.29336465856382 0.00000000000000
0.00000000000000 0.00000000000000 13.60177856550616
PRIMCOORD
 96 1
Ni 7.710862615619376 2.3276068103285974 5.419805679019976 -0.5154038539320027 0.1620543182630048 -0.11698905049325013
Ni 4.281490255673089 1.2225885830925567 8.528301391915763 -1.5694929009214518 0.20054604658029976 -0.41517402517496244
Ni 5.549523391776346 7.136634908875383 5.151646572134815 -0.881042748491315 -0.25943305072449513 -0.040070899878956796
Ni 5.879019634515479 0.6164130767811032 6.151607958980374 0.052659792287560916 0.03704445434780717 0.9396253340212141
Ni 4.736168119895683 8.554532842903084 10.949744234187989 0.3608373594056108 -1.3381105856865858 0.19110958375774828
Ni 6.169437279011259 9.153945567777752 1.5669932413612935 1.4203897435024764 -0.34115350782343823 -0.08392980604543611
Ni 3.8175747870143737 8.210585418173842 8.0323266033141 0.8873491503253168 0.7599525313454977 -0.023689887417772105
Ni 1.4178421738399598 1.3718493123164521 8.687537618726916 0.28700993190149926 0.40807958022202623 0.5694193889165097
Ni 0.3117840191025084 2.476393577956676 3.8783571090003 0.08342638404645633 0.3114840057834635 -1.3078746696201797
Ni 8.188820358224751 6.11009914588788 1.5452300400851264 -1.554822700503787 0.23204977361553583 2.1152789666897376
Ni 8.577729081004252 0.5647596268651993 1.8280921791417049 0.07404828526566602 2.752099567869041 -1.6527503634902116
Ni 5.576269695163829 0.19865589153620006 3.902513351667112 -1.4107949007251896 -0.09540026857888087 -0.8793265371311565
Ni 2.6645377447668226 6.988229169196883 6.325302802473335 -0.699045668557796 -0.5397992520572317 1.1981140185545687
Ni 3.7397242715602563 6.231451901146309 2.0824459928781147 -0.13544571453654092 0.45685006475750994 1.593312371938553
Ni 2.5053517021246394 0.6475021694573186 6.771169627696042 -0.3813678752587948 -0.697319944115941 -0.27106497853646866
Ni 1.9694219509955937 3.938453580676985 13.212142292960312 0.42248187169028534 -0.8343422591109824 0.2185208858911656
Ni 7.652806966814091 6.267965530753476 6.876678125607244 0.8863703313518155 0.4079140011784394 -0.4733899713940622
Ni 1.2445023368756303 6.651168127653924 2.5780676336240704 0.7156105148950127 -1.0589887982839117 4.967055833246459
Ni 2.334725527630478 0.711597575931653 0.4335884318816571 -0.24921214432743533 -0.8218515828431393 -0.009803873464299244
Ni 8.73380184649744 3.5131520420304283 1.6740658125386916 1.7868341646822197 -0.9587466282316972 -1.7371187997349633
Ni 7.193974968604628 7.315281257039938 9.095073961558493 0.5691586790559553 -0.01767222046878247 1.5695090988713678
Ni 7.600029949115162 2.432259389357941 10.692412826426091 1.0255659998490918 2.809732387891161 0.22005737714035004
Ni 6.072191511587135 4.273683829389043 5.4893107530418614 2.458852139698262 0.6976007085811534 -0.5876266559531557
Ni 4.020421056659474 8.87112060217967 2.0177288603104437 -1.4243746962921533 -0.7485604874584721 0.3557334625201422
P 3.1323750132968087 1.3540618124263746 12.20845333756412 0.2786520468551072 -0.2877136428367432 -2.2228464667587717
P 1.9829437965233174 1.578394341081851 4.8890095825091535 0.78013183450685 -1.2137589241806774 -0.4183125708039441
P 3.1446887214234303 6.789258232599933 4.3024737436573135 -0.18200916411837686 -0.42089575815008806 -1.3154681656967215
P 8.901537784593579 5.655207534278937 9.305031513813775 -0.7533892763056832 0.07608922695509476 0.9095069173692788
P 6.202503070342971 8.231058700440217 7.424585165063527 -0.21951101771857676 0.001389167038042769 -0.6047769424801972
P 1.0674451540617549 8.649520322723609 7.743356865026719 -0.0014189918347136852 0.4289726216209515 -1.28027027763935
P 6.055333348159445 7.105111816071232 2.9212678718375544 -1.5639873977221903 1.0026070770600732 -0.7735865771891645
P 8.298714394901953 0.8536763929742255 9.564933466230631 0.17248348401612876 -0.07584060127939841 -0.5084773020154986
Ni 3.880230651308471 4.737069576264198 5.8677123977776215 -0.6031877436162063 3.158377318995638 2.560640056971042
Ni 5.267311788243438 2.1587092016544753 1.7182994401389018 -0.15243016490967942 -0.24411878896492797 0.6053209879091253
Ni 1.4647550784612302 5.00916999908634 5.181026615056702 -0.03703596970737492 -0.2157700626189058 -0.7962539368796933
Ni 0.8544802690141898 7.501380883632835 9.473707011073385 0.31554403478545007 -0.9220091636013475 0.6376592950305148
Ni 6.921400584186669 0.8551605433046567 12.049311903072134 0.024370458424564482 -1.6054919447238802 1.081619391199234
Ni 9.2395188692343 3.519917611476602 8.754634781974758 -0.3293277188331038 -0.5964285705155018 0.5044956916599311
Ni 4.3525566149517845 2.7119524910777817 13.16665777848173 0.6159730683063327 0.5986008955764723 1.3741628513244528
Ni 3.2973972889227796 3.25755663478027 4.536478806213309 -0.3955950746017703 -1.9741266886867226 -2.92134474745353
Ni 7.796742598108511 8.25677344035445 13.616468707650807 -1.390225304103954 -0.2067902277177987 -1.9586072528948848
Ni 6.782706410540109 4.9176954110936375 9.064116834659936 1.0684121484803406 -1.6370265249970515 -1.5406165842067339
Ni 6.046922853174847 0.24849155933167602 9.424250512554565 2.671297508819309 -1.279418471162016 -0.4532559196483485
Ni 5.0886654400788816 1.9574242172661842 10.82451335787202 -0.46304925158968646 -0.7185426009401432 0.6326243037097685
Ni 0.4847307467432484 7.162266008508001 5.242193682338056 -0.2511780098045545 0.21360005155078052 0.2012926949383372
Ni 4.932443980751711 5.024113729401515 12.852932375509297 0.6530674020554689 1.6771077092886537 2.197262961862713
Ni 9.134633956089361 5.114677567661079 13.458415526156273 1.3513124290888405 0.6345420895577717 -0.638277645340804
Ni 7.300439753735626 3.9340299391160256 12.874287598078475 -0.5689447632729363 -3.3881488380999585 0.7556752441263825
Ni 0.04448361910859209 0.26175133197700656 5.214201138754512 2.497361351517054 2.4543845908452115 -0.1177063882752489
Ni 0.4316061572073867 7.745759199781988 0.9289442823993703 0.6877641821067059 2.469502163212941 -1.5846978907966642
Ni 6.258281844815407 4.298069618162065 1.2760328643714793 -1.1680459955245948 1.1147197732976286 -1.1675022072059829
Ni 1.958325673634699 4.828525577527653 9.995416984991454 -1.798267603330142 -0.06640413845684694 -0.06842862508604344
Ni 4.529195596357586 7.336730342591819 0.3028233569321778 2.337688903222664 -0.7593627202802987 -0.7482000187952599
Ni 3.6857298230956013 3.941780605212329 11.264639671766567 -3.248548992185728 0.2888181887548316 1.2903546584585452
Ni 9.117915193131028 1.7750233497935863 12.706428058232838 -0.5549199097487539 -0.3796277526392365 1.5396565342863098
Ni 7.480461519864514 5.379399058971873 11.26446216850225 0.518291717002759 2.055260677154576 -0.9142400611788899
P 3.2681046036283568 7.217682341760109 9.972823886254378 -0.6686349174764226 1.3210950249651956 1.4015558986254248
P 5.275843096968146 3.6552197070354526 7.258072233751888 0.916395674069312 0.8048043975528656 2.313968162566957
P 1.1821996204372394 1.9571175362335966 1.6273852420330177 -2.0387968751715984 1.515947620705144 0.9364754755383227
P 6.883873977835503 7.896386053605592 11.384538944797823 -0.07596118601766273 0.04361799380026681 -0.3797735341884814
P 0.029681147935699956 4.928903208830018 3.3640874028000964 -0.39485099734689416 -0.017072639211570595 -0.15368871990712885
P 7.500535187452063 0.734216696089678 3.7608099865553437 2.9267461209747596 0.06197207082742231 0.79310022174206
P 0.18034517521779891 3.804443262800852 11.84059315632121 -0.0863319877290255 -0.24633199456616287 -1.2535081790541573
P 7.0603921455011935 1.8526322377674826 0.5355858966379623 0.39966435957513746 -0.2150478397409006 -0.5886281006344766
Ni 3.095907850512763 1.6138113536634004 2.473728240982551 -0.525643786492456 1.0746321612481233 1.8855143895639526
Ni 4.2838693570167985 3.440580157682667 9.221597544893639 -0.7023369377145582 1.4426773512560833 -2.2921230416674074
Ni 5.118506433886112 5.910784354799849 10.168159258610471 -1.0623358603792736 1.2139550993518835 0.671564689528708
Ni 6.4135275008570725 2.462221196905282 8.674507392187795 0.8925103828112824 -0.2348785013135826 -0.8287596228168823
Ni 8.744684376471987 1.0682350900547835 7.502999787750312 -0.9177912688652582 -0.10290788980983567 -0.8684168321971882
Ni 4.858505971804241 0.2724963201551192 12.978436476745205 -0.5791522999335574 0.2037792088056168 1.584349249207994
Ni 1.4542814565301343 1.9177508436869046 11.012979075098153 -0.5995282924867481 2.023678531472921 0.13190196304934057
Ni 2.5508055484999628 9.2984759744081 10.446206505455425 -0.04973284844875306 -0.8668209484649781 -0.36328042162946467
Ni 1.9145910997147904 6.169985587524066 0.6653500762174513 -0.15885920836447479 -1.799765785142223 -1.0715026144802062
Ni 7.668038791432605 8.351714453351855 5.382659171281925 -2.9806675535835634 -1.0141788410580725 0.7740761152310733
Ni 3.6974115824277995 8.704732201953991 5.1016594224959695 0.008532462951043368 1.2472030627717359 0.07985383620384957
Ni 5.164452828586501 4.941458544436861 3.381987352402123 -1.2332494288051212 1.4233336566221486 0.3718663635262628
Ni 2.133078102021856 4.273962630327759 2.84092208798193 -0.7842949647456041 -0.2289917035155024 -1.2068015190262376
Ni 9.267045815250189 6.786024141710828 11.855718107246553 0.6024768335921108 1.849152820215783 -0.257185392340899
Ni 0.6438415131319782 5.486114764947715 7.434269780338056 0.3470066241701056 0.5099585145467153 -0.3695446573716216
Ni 1.767895339127082 8.855805137279539 3.60316571310426 1.0925589209298732 0.5501109183958849 -0.009496112415893323
Ni 3.3028432005923642 5.916555534231269 8.437836063321212 0.7136644469122355 -1.2461260276574733 -1.5430056532642007
Ni 5.48177476366837 6.20312572577277 7.40478100505007 -1.8675212954206417 -0.6014967290670287 0.4487976267666787
Ni 0.7688605007345218 2.8969462072804375 6.361198423333013 0.4115654818880976 0.03478933976504331 0.43758273188746577
Ni 4.105594743437196 2.215342965672309 6.356084284780501 0.09882009289370723 -0.3395879631085313 -0.26429115014774485
Ni 8.924715435965497 8.17684121122459 3.1189832748738198 -1.5561745865459908 -1.0367189311421177 1.4414640476742724
Ni 2.631852981384689 7.973641793723781 12.952415985134845 -1.2860735145846882 1.1776166699321655 -1.9582724952632855
Ni 7.557429165679364 6.302574020612749 4.117557162381036 1.5423531072818661 -1.5273113824573954 0.5626021088843601
Ni 7.17750712649114 3.8519323560288026 3.160100837315648 2.0751682147117805 -0.04784051652204664 2.8011148214254793
P 2.379064170250938 4.174728082874128 7.5823660509745805 -0.46993106631118425 -1.259223741381696 -0.16689647684665448
P 5.7222126932170045 4.054778625673903 11.205879585922794 2.2283308869121106 -1.5578674008673814 -1.8457931597149309
P 8.365738140569269 4.5578935063160815 5.80468108155272 0.9230733431998037 -0.6867097727002626 0.09521823447506181
P 3.008540929683808 5.909381056741645 12.610752869430149 0.8547537328877989 -1.1431453756281733 -2.2294757991498315
P 6.551905700106421 6.282435299472833 0.01980694802284342 0.7790000348952519 -0.055420385751833584 0.10836402782840047
P 0.6679020341431646 8.983811941608655 12.555013127089131 -0.4322325233191459 -0.6794014119643074 0.06949409023608032
P 5.529570537928907 2.8708039725935053 3.895698527388432 -1.7710625036702596 -2.340064345433376 0.9216576937991998
P 3.8723127046489383 4.082008184021827 1.5522623290960054 0.9276733038656604 -0.957938273397789 -0.7764063060261467
