# total energy = -381169.88963779085 ev
CRYSTAL
PRIMVEC
9.19393519936283 0.00000000000000 0.00000000000000

0.00000000000000 9.19393519936283 0.00000000000000

0.00000000000000 0.00000000000000 13.45625350147979

PRIMCOORD
 96 1
Ni 5.007973388926996 7.5378042358040505 8.968647208400762 -0.19205677816236602 0.7928281990275959 -0.15341772563392933
Ni 7.737404573370151 3.168487569540765 12.002131030506215 2.3128479329195843 -3.4993027699686703 0.6316182310427575
Ni 6.596427996111256 1.513386124631187 9.662195402985462 -0.17932647507989116 -1.0066601640835244 0.038019416666566774
Ni 2.7160632023694045 4.244417053834199 10.065936962812453 -0.8256375322481329 -3.0569056474116967 0.9779705094583158
Ni 2.962285986356403 3.9228499692320837 7.423963088875862 0.24199454353307354 0.1847597302803205 0.45533877031930614
Ni 8.359567375923609 1.3438315679571187 6.90984006001226 0.042967247590145356 0.27200111719749287 -0.514838725457152
Ni 0.07012398409415753 4.544746147658898 11.14811648439181 1.1323791382506048 0.09918544665292596 -1.6536055124016555
Ni 7.044770255964359 8.897927457292589 8.118830613190672 -1.4432818176093016 -0.6116656991802304 -0.5778986300321144
Ni 1.1879943629020564 2.420459791341065 6.54888983372437 0.13709302033197682 0.7864950577207165 0.0897978347904389
Ni 8.982291008536556 4.554491719184466 6.610801794717927 1.7795363454692255 0.13257250675380394 -0.8718425700492856
Ni 7.0849293657980175 5.97154378867896 5.415832912420309 -0.04205090642346306 -0.6248102069819885 1.0997690655250671
Ni 1.9221852683225311 1.5121265554811845 9.98024764608359 -0.4174101135943327 0.35044676019990617 -1.5547306550106128
Ni 1.14952693718227 7.411304878615107 13.458945031825024 -0.890994460387388 -0.08922113635136246 -0.9514498374599679
Ni 2.611564932596199 8.70947016943308 3.591621897310094 -0.23694026893861775 1.066469165821357 -0.04781609104201443
Ni 1.9748297424313974 2.638071048358662 0.6842145113651174 1.0947759831858501 0.5530000670182218 0.6185652545135412
Ni 4.387244840296169 5.55213484353431 10.8305616331989 1.2274693317882344 1.0973185471020457 1.2691607979897497
Ni 8.414381618787225 7.816748235884911 9.786787018578599 0.39618360011538867 0.9484344476724118 0.2509561236017355
Ni 0.9126746121564588 5.002971888068592 8.75802977804307 -0.3833491673548817 0.13712104535643482 -0.9064069382877165
Ni 7.062919084446878 1.404640256702498 0.521126049458909 0.006366051427343875 2.1442383300365653 -0.2733895129045872
Ni 2.9490099436366677 0.16634035685771134 0.15462452497560714 -1.8110434149385712 0.8690927752182903 0.1515261650381713
Ni 6.958641469123308 7.505349643836831 3.6140808427088267 -0.22573720113394669 -0.5930899930605721 -0.15347634678600666
Ni 3.1824991270926186 6.11623794402743 9.149647295256132 -1.4477820194725 1.5571179242958668 -2.893802061948571
Ni 7.985751156434891 0.7347517354799649 11.494170696542223 1.6160401525533716 0.5812066113594249 0.07709838494589948
Ni 4.432295123763414 8.599777326158039 5.37983681653644 1.2097932546647099 1.3848617257991955 -0.8522651621379902
P 4.4953839084883604 7.329074320384282 3.4656043023361884 0.16566337577050178 -0.13319111417440932 0.9344936692216035
Ni 6.307104042962126 8.454421207460664 11.085248354116501 -0.02599848094629071 -0.1333348388411252 -0.4995591735902623
P 8.58753100420327 0.8286162995678203 9.213752929236481 0.857465218281691 -0.6392184119875185 0.3912573664583649
Ni 7.6610397459254695 4.617497758490799 2.5748949212474015 -0.42173033823624145 1.4270242180998585 -1.0476515188942213
P 4.403177930346931 2.965650966713344 4.293580704000066 -0.25390492181741436 -0.05350954188236591 0.8803824891994967
P 2.002457518312841 4.790812634744071 0.9907329625020924 0.5569929902276988 1.0792030684482574 -0.8377417717108347
P 8.148713661426099 0.9725988443162161 4.279896450548505 -0.5218200418709916 1.4303455691636078 0.48362270486566383
Ni 8.625621478571595 5.329549667464513 -0.17368906942411316 0.22141440538887674 -1.2518405615437471 2.3674944166198713
Ni 4.292712796498166 0.37168506526265543 10.79505097710423 -0.1540507312322379 0.7392170985703592 -1.1929723264526293
Ni 1.5117036344527162 9.172651441024172 5.769355358297343 -1.869227222368155 1.2447029220577017 -1.7031856373226282
Ni 6.912202901410439 3.9041311167546735 6.966073846501863 -0.04248388019582361 -0.4294945555626926 1.8352958597280329
Ni 6.175088324532295 6.950394509068182 1.4445961805637841 -2.546146234230241 -0.09216144992660902 -0.5555703988485593
Ni 4.492037316002222 1.974112615470082 0.7931359834599744 0.44390558878170006 -0.277811810341999 -1.576151286778234
Ni 6.821072613710983 3.3396050952330847 4.723037701144992 0.23258507729371555 0.2291212871148312 -0.5770679066007031
Ni 7.421500952975346 0.03808587740062508 2.2223810500839094 -0.3288926881782142 0.06351473272419385 0.9746771834190244
Ni 2.7885757708808665 8.100261621860307 7.038266466061354 1.0847610221520092 -3.0305217581015294 0.2876773902821691
Ni 0.1160145932570978 8.580534419362746 3.5268975114772254 0.9051707518877701 -1.3802226843652874 0.19827987625394242
Ni 5.962055647344634 3.6278533579402414 10.128010737069076 0.28572900830654663 1.5701295060641862 0.11862298655224733
Ni 8.32835396523559 6.946100941235691 1.5990873934760699 2.6173603924812214 -0.5494239196311892 1.0756978835084763
Ni 5.0356839102270525 5.089119062780446 8.208086257461767 0.944875783786876 0.10230008102250769 -0.22340932433171848
Ni 5.680077648581285 1.0750376725594906 3.708771941589275 0.36857817969329426 -0.342718538317713 0.8429163739332386
Ni 8.89625416104952 2.959003751418075 8.740039085249457 0.7025580525864288 -1.3778896653567367 -0.6717120137398497
Ni 1.9919856258905566 1.9384309521769438 4.382082445568239 -0.024244217259345342 0.23692149988554034 1.9351148261998998
Ni 2.440401437226872 4.5516967628224165 5.04648586493025 0.11202502161975546 -0.9682993049171389 0.932307460203562
Ni 4.107712428349614 3.8350662740187658 12.354065683739416 0.6977845424571854 0.44138385080111087 0.2683439800608798
Ni 9.18664461070522 7.160908047955838 5.666320763040053 -0.9692375004606921 -0.17580997728620043 0.7714412487113875
Ni 1.7209300223841646 6.709660504515866 4.4330959155368825 0.33986847046342755 -0.2050950994035629 -0.27765137350473473
Ni 2.086857845298414 5.46533489940895 12.20225174481604 0.23103598763904082 -0.5349344677657626 1.321847329750188
Ni 6.530158109737398 6.304796365176355 10.149150352737696 1.3337394532020836 -1.3592167715375818 -0.15376662433291582
Ni 6.125919158005187 1.622233125849292 6.16678620086476 -0.5370741398165847 -0.43546028622782423 -0.1875522054237931
Ni 0.5689814026171451 0.9818755251363079 13.316052887815244 -1.3184768706160583 -1.0787407840998584 0.32305988354652104
Ni 9.216276664504186 3.4157216864219255 4.327437371116011 -0.2950088909465758 0.21991365247363417 1.3539933183551134
P 4.1608809567763645 2.538831709635102 10.329558350153208 -0.5806170574045421 -0.49787227280614255 -0.46578002025728815
Ni 6.4332080609288065 4.725351814685544 12.134930072232253 -2.244297694654012 3.435789579906373 1.6102929656569493
P 6.3742657410699275 6.924881338329079 12.610137930722018 -0.0636304323664517 -0.8326823549100563 0.10883196860375449
Ni 0.6399236469620343 1.6011054622966943 2.6585523782525358 0.6791869819606561 -1.0392910627446683 -1.7173570437270038
P 2.332142847874462 0.9924117751064023 7.652907710062862 -0.4742551476078349 -0.25024881312206576 1.802661104412147
P 1.3418824536520053 8.851286623000888 1.5818634748949396 -0.5863827562437256 0.5200542082198205 1.1070077493653514
P 6.237450788360524 3.4136806327627975 0.49602476702579207 -0.022592283478219156 0.46100265347330277 -1.2788397158404103
Ni 1.0872748005788586 8.823833531892072 11.247315369799605 -0.6949355030441645 0.29406426764511934 0.39433960492811443
Ni 2.487750204544487 8.313662056464027 9.241069030707814 -0.09720364033620679 1.6643594084840498 1.2535050937303638
Ni 7.215464860628211 8.674634348196879 5.508411244945498 -0.04546430298038621 0.21169974920427412 1.5247274237803032
Ni 4.1563759284296395 6.4186816429944695 5.810450410754873 -0.9222025105590762 0.034864158867036726 0.25113018728575465
Ni 7.754091566123835 2.4027154960162114 2.673825343741472 0.7767822013083266 -2.100412591100867 0.22104545208523224
Ni 5.655548228930141 5.507139723679473 3.556784237286812 -0.8713980263126992 -0.7297127586243497 -0.2506738164746264
Ni 1.701034346175365 3.8198411169939175 2.9045462332480367 0.022692299391193178 -0.08187626595051706 -1.2835031827543508
Ni 4.325645473106262 4.52634908292054 1.1877323357431144 -0.1612467347600449 -0.1210274822286819 0.42042730315410165
Ni 1.2511934748518203 6.613850503697058 10.343364882945608 0.08182612943887198 0.40108232296858665 0.20206916809304554
Ni 3.164764025703166 5.641518283507485 2.9768730842643887 0.7572677854244829 -0.7089564999136049 0.31462949339098073
Ni 4.8765368884274585 8.53710226852616 13.055432400989531 2.275165587877462 0.8122639391547044 0.3696287324449957
Ni 7.56149700733366 8.546038773736397 13.553004507343392 0.8010259043470398 -1.8464328501814589 -2.284643702571227
Ni 4.541096155304512 0.43699418538705864 7.6733476672474294 0.8553366019744624 -1.996577047270439 1.7270578159545353
Ni 5.231183752604093 2.560115670089525 8.088580726932728 -1.0513940166557894 1.295520518930201 0.0674570052013935
Ni 3.162778135656447 7.818164101936739 11.644638643322823 -0.8403501558679592 -1.2291503190350832 -0.641346771184431
Ni 8.1978460522116 6.480529246440216 7.772547472048763 -1.6622958410868018 -0.7883102565525842 0.49425447354789726
Ni 5.8667053432959 1.799676079097829 12.014523536033868 -1.6259005902872192 -0.18335539373362614 -0.3454706471415534
Ni 2.903739005719787 7.324284280040112 1.5319946498837795 -0.04268031247734585 -0.8681669209699113 -0.5422950218958918
Ni 4.146703908387284 6.346444892545052 13.190519813236996 0.6177630703272199 -0.705863462810578 -0.25476289894233545
Ni 3.4374469557756195 1.8439264901851453 2.776388290112666 0.2951693277838401 -0.1157826888899748 -1.1639458573132921
Ni 3.6460665439705706 1.6774519018705725 6.113364839214468 0.2662305332623028 2.1053817621806834 -1.9180871812936513
Ni 8.829993468611065 3.288073087307797 0.8158496008693272 0.3391593602115449 -0.7305172568035161 -0.02167414253932396
Ni 5.001316979696326 4.437839066810506 5.766973209634821 -0.37838436715043866 -2.0137260482458994 0.2136422176426256
Ni 5.79638093140999 3.1801362856944384 2.5754189755652863 -3.0869387034386775 0.9161601610197383 -0.13044748999100114
Ni 2.882868772358431 2.0140510708541055 12.054677129506286 -0.43144962240653434 -1.355606171368188 0.35685009262308864
P 7.769371886761092 4.563014497301636 9.317540507803152 -0.38119201180256285 2.2165094687971503 -0.3190296793412054
Ni 4.431614772543705 8.864921229201281 2.071523280442288 1.9781093274835546 1.6269686265404173 -0.7104073734275185
P 2.081929895923222 5.9138518440346814 7.075661878913327 -0.09774742865481875 0.034943605954720465 -0.98173383315549
Ni 0.2447581900775427 8.423226184643447 7.756130780995882 1.2407840466192697 0.7796024443659413 -0.12384361152123832
P 0.7812647740695852 2.4933860869455935 11.776980746459406 -0.5146227527916041 0.2531683007617059 -0.27395129894532816
P 9.04747601053304 5.696617538368546 3.602709783404278 1.2148986942120754 1.2737353047343096 1.4282002406858305
P 5.895831730647784 7.384771181046439 6.945418751228901 -0.2606401836587189 -0.39319006470470347 -0.32795294997276425
Ni 8.638548151746075 6.760558130898452 11.80087854274847 -0.9586304143688071 2.4412120580189955 -0.8794273243750789
