# total energy = -381175.299037634 ev
CRYSTAL
PRIMVEC
9.22116940879978 0.00000000000000 0.00000000000000
0.00000000000000 9.22116940879978 0.00000000000000
0.00000000000000 0.00000000000000 13.49611351986584
PRIMCOORD
 96 1
Ni 0.10555933792573324 4.573838392769825 1.0938658432940878 -0.6044434704001783 -0.44598149747412225 -0.7419144428968643
Ni 2.1405746257319014 4.567023948504517 2.556649469853636 -1.1000814545591635 -1.607947348242908 -0.5527041330443577
Ni 8.761890716895937 0.9031978771741513 3.8808075667540693 -0.7744980332598403 0.23677391856408253 -0.5588860934853537
Ni 3.9023343869670084 3.45218455516788 9.595453088307803 0.131996836755992 1.5735968957874964 0.5241666877262973
Ni 1.7172122913491743 1.1164992038478079 5.299910513361295 -1.328123906787519 -0.18794789820031502 -1.0245280455028807
Ni 6.911395641499719 6.885982098339787 11.721711848380854 -0.5013921130339429 1.712209180977477 -0.9023014007597749
Ni 2.0972351290513207 9.093050577383107 3.2122506467255314 -0.5758720865203888 -0.07591310638854669 -0.8511660155365405
Ni 5.649626133246407 2.6473332171314725 2.1872070020432552 -0.768672941937631 -0.8636394654132029 0.19549434308900526
Ni 4.548397186101374 2.1516308079702022 13.484615034634768 0.525879556652346 1.193355677933977 -0.7932578303658467
Ni 6.093339588729994 0.6741680016732466 6.109825195573726 -1.389659404298155 1.931246601493745 -1.0468886725862678
Ni 5.920092256041749 6.3784765922101885 7.181065977366649 -0.5481147139014625 0.8783906555804485 0.09128444663829441
Ni 6.473851148415985 9.172712260749815 10.567268454130723 -1.1949199370973034 -2.9331962474754776 -1.619987567236894
Ni 8.346357155424235 3.51917635163265 10.858689684629601 -0.0050010527590171935 -0.6949987521819321 0.03872492737402363
Ni 2.2814925381303337 5.727683333118984 0.45716898602748096 0.5413264873350355 0.4932039207961958 -0.01702815912688035
Ni 4.155732125005807 4.075010007145849 3.4801615834506214 0.2735756607734643 -0.11442771752397712 0.38546544236693614
Ni 1.7274109048233706 0.507140347817141 10.557618500242164 0.5925546893823924 -0.8604708378772342 0.09607929692377647
Ni 8.627492171338606 5.405117602611881 3.2204289019608523 0.13157620427880565 0.8045550005462209 0.6990497823228542
Ni 3.4793870052120743 0.8466508994094014 6.695759514707015 0.7120996735282767 -0.09008991210956097 0.4419289246713034
Ni 1.8062887887820274 4.7796548961550505 7.105690293586564 -0.7715389506315163 3.126854051576376 0.1404179709401517
Ni 7.860834917398148 1.620260915157765 8.05377866815229 -0.27050704915046964 0.19722109597212487 -0.5723265352609755
Ni 1.7725577507272265 3.2839258751826557 0.07397037754729391 0.7791165058684582 -0.42938554078865404 -0.28748558598633717
Ni 0.7146055963101297 7.353679815709797 12.73796956275733 -0.5339307090915966 1.2414525334412039 0.5855204082434304
Ni 8.394768295333394 5.864294959357879 10.148807171340703 0.597776342792648 0.21420194680083757 0.7888931256392478
Ni 4.626251520244808 8.626920458829202 3.1753383051909863 0.7513686463312286 -1.0532053588329153 0.27146324241615183
P 6.993353396073548 1.8432933420116377 10.03179606300484 0.1294532443985319 2.168502087679937 0.14855782643846674
Ni 8.676475023757169 3.9095545626906034 8.328667263842954 0.8371900129724228 0.31210132765248827 -0.14949679331296836
P 6.355561985986519 6.916624044609907 9.514504129677986 0.08457412449765435 0.20675577493543748 -0.7408458924230338
Ni 0.797454115858288 7.276526290448857 6.20477096739747 -0.6688470334872287 -0.13057733070064606 0.7460078962399476
P 8.640447914495248 0.7463135097752029 6.068811277842687 0.49182143862637234 -0.7371936403824272 0.16480128488052262
P 1.2041833046851784 6.61763684453094 2.3889339167523445 -0.5311492896917175 -0.05136087097047928 -0.07351143892558953
P 0.8087601917902156 7.52716689880521 10.584678022159007 0.8390126680034582 -0.5840739056048908 0.49179649892570787
Ni 0.10324943496435336 7.87700884871256 4.047484816168927 0.06696669582853627 -1.1019221073123282 -0.6981303558323783
Ni 3.780679497667668 5.967295422745556 5.661768569252575 -1.0813008315175507 0.8773226193272503 -1.6009220659650107
Ni 5.407616539548144 2.2442574556630603 8.147954472322242 -0.04980921021264325 0.07238401018936566 0.13976696761971413
Ni 0.8095513681338738 5.176137521426312 12.07714551547695 -0.18028498233841853 -1.098267027058244 -0.40730259284668563
Ni 4.137732402129107 4.64171542150722 7.26053124982287 2.021061148454732 -1.6385061948663717 1.5640622168241838
Ni 6.853892428457144 7.970032006694198 4.669588250574537 -0.12750769063638687 0.46343954504956963 2.6378549128901474
Ni 8.927954758538613 4.817747547386429 6.038268920203236 -0.9466835264195761 0.8031853738922038 -0.6997887173714078
Ni 3.1847890818182045 1.1947408271105158 1.628778509430925 1.0290701563476081 0.9532506381141326 0.2532492905112864
Ni 3.995440535474205 1.303670502490877 4.2729774510471366 -0.03561312121791931 1.1399965455865464 -0.2075795563883135
Ni 7.643372076926205 2.6122651094982285 5.5246479344569215 0.4948723096375541 -0.7842630830664041 -0.5982437693473697
Ni 5.043463334566695 5.683569258199858 13.20197973444169 -0.08981660384351628 -0.9865317687647654 0.925960949160244
Ni 0.8847002111440992 1.6951091480420781 1.7676935838125443 -1.2101519235557094 0.49143731581407624 1.2693099219731043
Ni 0.7719188532608702 2.8000173418202077 6.472749218659957 -2.0439480803552343 -1.1419058467941172 2.7208964027933593
Ni 6.388407791768696 1.1141570267931553 12.396882191179458 0.33361271936170284 0.6066767306060714 0.8148070172915323
Ni 6.4933170372442195 4.030490200768436 3.9239543409919637 0.4436060552634102 0.47348124555628773 1.8570036837187696
Ni 5.70549719928633 0.06752570217919651 0.9614157308534802 -1.6924535956171045 0.2118031075513578 0.7669107078308857
Ni 7.322189521845076 8.545746503663425 7.2666181438141155 1.929191775847245 -1.5432769046477164 0.9877167902118021
Ni 0.6757844726877372 2.1591552822875117 9.17716792985536 0.4595975455956601 -0.34580720454536573 -0.06999776934537623
Ni 2.8164586870503086 3.3173802781522617 5.467977393020785 0.8275756298111102 0.5033690342546556 -1.26584278936011
Ni 8.599505921886358 8.6899840370842 9.540740201157897 0.027290717395153 -0.22356898983803433 -0.6669007083941353
Ni 5.363972744273849 6.185329975726903 4.015471681993189 1.2388585474617826 0.08399768316889404 -0.5063417437297344
Ni 8.226426624822611 6.208115485577481 7.925592424491491 -0.21921919750977087 0.6668449154555355 -0.9470000292187304
Ni 4.128843194724834 8.25894968967206 10.253226772715433 -0.3936225242564318 -0.14674674137165694 -0.3047124913875849
Ni 1.5406361164690814 2.935402552514736 11.17838578718628 0.24399743289571524 -0.7817549719325698 0.98403368493326
Ni 7.949312038813077 0.8066236468155581 1.0609407354541556 -0.5744037295049784 0.6127638173404156 0.026154032687548505
P 7.363813880997447 5.904923432203546 5.02990729327518 -0.13916738636250225 -0.5298184866954359 0.26004445905624896
Ni 2.6626956855293127 8.262223204846869 5.20501914643764 1.3815365180807047 -1.2843912417862589 0.037746365510838216
P 3.8615583754092366 3.9928954926904088 0.8735361412225718 -0.14375269174033953 0.9254117615249933 0.563791501206771
Ni 4.296428729336084 1.6206205407685186 10.889865536614147 -0.17191244200400715 -1.0654170704077586 0.6053361574177768
P 2.25022355233377 2.3284467332574645 3.269352738894573 1.2406827451547149 0.17197543403145865 1.0840681098500426
P 4.887680896923775 8.105693852473921 5.844073856747061 -0.7439147611563447 -0.4394082151319787 0.30737975380710286
P 6.3918657303336355 0.8594056210708013 3.2015476352793293 0.2156721035884608 0.17183248069569118 -0.006755573556278688
Ni 5.007556100508359 8.986813483498645 8.215340934841889 0.8999701815234372 -0.036877846862955845 -0.01781080292917578
Ni 3.2613247887222085 6.55009177789578 3.186985564394654 -0.260794449848396 0.7400555353112545 -0.6684546831448165
Ni 4.883983207951665 5.727941525865167 10.819537521021925 0.16725386018607327 0.4263413546456915 -0.9213306494770842
Ni 8.167503351676036 3.175328161904529 2.6445631778117185 -0.584086246900065 -1.4500222216569285 -0.8961901456557146
Ni 8.085776126339868 6.520399612084829 0.8018756666366579 0.2836479574078018 1.3672717806315742 0.3696202478045635
Ni 3.2832435086391745 7.523257122934452 7.403509171489056 0.14668760599894737 0.12531942473581642 -0.19264633211724885
Ni 6.820179832741356 3.059998994886652 0.24305711855420242 1.4257798041697962 0.3332396522930003 0.677071221169234
Ni 3.327726430338562 8.195139196687036 1.0835058593535276 -0.7656562665984943 -1.3337589935861094 -0.6998817913058463
Ni 0.34248806722591146 8.466923946721808 1.5345759638694052 0.6569076017371653 -1.166001197180424 0.48668745983391665
Ni 5.192099365842074 2.9721396918286582 5.602209957526999 -0.4969718724790602 -0.16811440841415562 0.20941943781052968
Ni 6.543867488478888 4.2863868757434975 9.187924424084699 -1.0877051923819978 0.2906305593732221 1.3812873781843757
Ni 2.685840820990644 2.914156977971745 7.748348636939127 0.2874786440078016 -2.2667477961274125 1.4190627971609366
Ni 1.4118071572936788 4.656635273768748 9.735839861342662 -0.44667363844514046 0.33983324635011797 -0.5615644116484652
Ni 1.4854935228201722 5.7211916297864045 4.619746907274919 0.3810827399182082 -0.18194771475282215 0.10264409462548775
Ni 4.880423836522154 7.932160663530976 12.488601475792876 0.15174522302751287 0.6467720559650603 0.12350936811027115
Ni 6.707211285117145 4.0598688468161654 6.94199609250706 -0.22365923555899547 1.2211127934425872 -0.19478908949186452
Ni 2.815204607997424 6.814047755019529 11.697068272874715 -0.4353314739594438 -0.585209818981547 -0.4564536006500397
Ni 1.2255395332622474 7.146507800407115 8.459310027060285 -0.44214206912337406 -0.9966259197759739 1.517351443031206
Ni 8.669051982304431 0.9073344938147702 11.45783609543181 0.2912728209429113 0.8092572911178966 0.9668252914747738
Ni 6.51997543828753 5.012885936483119 1.873652198377909 -0.5382910429428214 0.8574914435339362 -1.270792677166218
Ni 0.8982922149966899 0.1830734109143776 7.674578358770124 0.416946800804669 0.5281287576978388 -0.6268472920166752
Ni 1.4879371327393967 0.5893599836049557 13.381598895258929 -0.02918973419007876 -0.0821302909428521 -1.902258184681195
Ni 5.891580399927632 3.69438779342578 11.767302232537972 0.01222739530412733 -1.0417346391891544 -1.6533422314379398
Ni 3.604324630855731 3.9184068854168492 11.998342322991297 -0.9897888422494825 0.8811702752081148 0.28140904077495404
Ni 7.543599022865805 5.0772958054860675 12.633387668799289 1.0196781736097473 -1.8047025603222082 0.4439431268878548
P 3.1641982103101753 1.0418907213706639 8.909594487934209 0.5205907974495809 -0.030181151569070603 0.39987004782804036
Ni 0.5892345756996672 3.1262992036384336 4.319660543790776 -0.24822149827939186 1.367719409691954 -1.5972703281450362
P 5.149119494772246 7.026236086533751 1.4886213435167794 0.2591844250487988 -0.34202254069195287 1.1450215096049634
Ni 7.151385799076057 8.097634550325235 2.54042758845779 0.39002477960284443 -0.5251208241094504 -2.018523983855175
P 8.912509299615216 2.4060520958242235 0.01441084370476837 0.6057300504220859 0.6498756345910485 -1.0289961085765635
P 7.2437081481752 8.29469094267928 13.310447429229775 0.5821795167956554 0.6592732737558646 -0.16415053867040116
P 3.571737017819737 0.4137760065637626 12.854346254631146 -0.4485220045077888 -0.6951183084789319 -0.8560431411231838
Ni 3.218630773907084 5.919068706226527 9.067768896947117 0.5360464698830186 -0.08477364210297013 0.4997252668544813
