# total energy = -340861.034050606 ev
CRYSTAL
PRIMVEC
9.34440568354012 0.00000000000000 0.00000000000000
0.00000000000000 9.34440568354012 0.00000000000000
0.00000000000000 0.00000000000000 13.67648226486286
PRIMCOORD
 96 1
Ni 7.9804870553302685 3.6399918341810937 4.718003612151353 -1.3264727443373412 0.3682025415214304 0.0036913328086581594
Ni 2.824683076542834 1.9009978994814334 2.4912260837510867 -1.358437470169396 -0.19238973602175252 1.3174854532370666
Ni 8.400060223852297 1.535939994876857 5.411442628272402 -0.06728885505464541 -0.48065565181753994 1.3919343163752609
Ni 5.37107105709843 4.3321880443197935 5.831515722509135 0.7183399980110338 -0.3010134452694429 0.30564091673912525
Ni 4.9105507020000765 1.6209367107824355 6.573027034691775 2.1849080398417855 0.41578054841070977 -0.5355093664326261
Ni 4.329263245278627 4.093999138379469 11.971517381970694 -0.6980835617548429 -2.0179007484488793 -0.061808805776680645
Ni 8.37711036300532 9.120411128914427 1.5886601984243156 2.1162235899911943 -2.9172389528152727 0.05374171249783002
Ni 3.556714488957862 6.170821378942626 0.3636599814845811 -0.245812374617267 -0.0809666096520541 0.4296503644142665
Ni 8.361505205181846 4.627546025448148 9.358857940457101 -0.842685231759039 0.6318326610464087 0.7262813643452976
Ni 7.49206430426731 5.750444591514718 0.6796018198905096 2.4798068875730586 0.034723005303482136 -1.7568239914733745
Ni 2.6620436921610633 8.006623358583116 6.792547686560401 -0.565994936615993 0.36929860279908655 0.8259020987634292
Ni 3.2427704845295735 8.58877050064574 12.745251008957338 -0.9125855562946025 0.131528895980638 4.685109431910796
Ni 8.619008998080925 8.68566264523951 12.563217310166813 -0.5710772362349069 0.3610127086412105 0.6613124156730805
Ni 4.081001069797162 6.337749845624382 11.582148136582088 -0.08575117552489103 0.7182471811869114 0.14417178155562912
Ni -0.19350302257048413 1.9024369379873105 11.386533278282199 4.561441683845789 0.5212322876883216 1.416560085343741
Ni 3.0305590269420977 0.9692017781141793 5.423491305217065 0.16409577417306578 1.4709214337034409 0.2775251323395156
Ni 4.0258316974679484 2.4299473388560116 10.043064683566417 1.714864359212137 0.2745544797469659 -0.9724176979608865
Ni 2.8442128848368817 8.72594637899819 1.8598376604509923 1.5466687039380849 -0.3993542845338864 0.8363335785093983
Ni 3.3511469039527153 3.4424137162053303 0.7233439182662353 0.149266165359401 -0.03807572382579894 -2.07250712293985
Ni 5.3690900430513775 6.97973856295738 4.277716699109988 0.7432408750177716 1.6245425335974277 0.11141464172926617
Ni 3.608884306998852 0.523849262644008 8.11417466696685 -1.3508267477016735 -0.10039386513873033 1.2514366412371092
Ni 3.005459952742187 4.76074118689473 9.965355669808462 0.6953929022965573 -0.6844572292206599 1.2328599066761865
Ni 5.39874918732186 4.844850184241489 9.795876180320832 0.4027270576608613 -0.3687561000320552 1.0244046325511391
Ni 1.1248141692724458 3.035446151218551 13.207802837894507 0.2988544899449111 -0.18630804860404687 0.5367877189244175
P 7.4480147749380565 1.5841010627943322 7.597792519063403 0.1208611318541467 0.5006670619424604 -0.8330333104915718
P 8.409600862258145 7.299205111262118 9.863110115084709 -0.08100800441295081 0.16196947185868232 0.7829489922406709
P 6.2944572131715955 2.6728738585786718 10.517160591530605 -1.2726484994280338 -0.18000781741763194 -0.7335971812804205
P 3.2893243146352895 7.5961890190139965 9.292349131589692 -0.5524375096465324 1.0209179595541191 -0.6236277566381131
P 0.7046121222345377 8.950053265273858 6.701859293031903 -0.4972667780116597 -1.192694133090578 0.16863171437020633
P 3.781690404980586 2.996349157006926 4.6832246678979494 0.7259872301436464 -0.3142289155184524 -0.17046439670357097
P 3.623592401857623 1.3048808706247428 0.42893439433493585 -0.5480121268853272 -0.42602793717033083 -0.3965708082514783
P 8.11025281981804 4.601886286895299 11.521069361972895 0.04143898387107702 -0.46213830973964276 -0.36408517691894715
Ni 1.2914809925894966 0.4507601231542695 0.6615110501023389 -0.7155727196785419 1.9650018435673189 -1.6534203929740428
Ni 5.8029601525733545 5.884331238996593 1.772745928746598 -3.4733446553420118 0.40017652332486564 0.7346449058186445
Ni 3.918352341009509 6.241708041965902 5.909772318451796 0.12953526258937692 -0.7595663516506725 0.20501102433018886
Ni 0.20404257796515227 5.846336884679081 12.46102595299718 -1.442691235213154 -0.612168606958578 0.30319425497084557
Ni 2.7738681973547807 4.557332159648399 2.5528795393220425 -1.4648261194389804 -0.7327374043832864 -1.560585314019177
Ni 9.141473419773174 2.3161605084270067 9.129107033028513 -0.21105054565604942 -0.5774977950492699 -1.5489873247689323
Ni 7.903040619377605 0.6687081115129014 10.200440364114678 -1.6153978909836826 -1.6389378830871517 -0.1797355375928517
Ni 5.939033391031691 3.237864671441356 8.200911311247715 0.534857077560608 -0.6396081912267695 -0.3380679269195791
Ni 8.247886574058723 3.8687335457743925 7.212744126954781 -0.3450284173978122 -0.9674307862692564 -1.1124847133195228
Ni 2.9390772933541895 7.924457997659881 4.3790866830025665 0.023697086506623704 -1.5723704795795628 -0.40592885242761056
Ni 5.115660411116989 1.7211461194644297 2.0429655891703375 -1.3279249034028358 0.36999999974148534 -0.3804096251105835
Ni 5.308977480010416 7.895032463536458 7.742941044514648 -0.8113324284793704 0.029347857034497844 -1.4307651731995297
Ni 3.525653683805032 3.295071124252916 7.553781301798266 -0.4819373467434411 0.2566768281355966 -0.14803923493083537
Ni 7.25965024116226 1.6992147988586261 12.197699660792827 -3.4420535585382135 -0.04487886279056142 0.9871089814244741
Ni 8.054111629277063 3.7619456753512455 13.51910704766104 0.24884293391347467 -0.9591374359122126 -0.25775694857365283
Ni 6.181670234172 8.045187721659449 0.2583868392549578 0.08047475761730011 -0.4122272838418126 -1.26603407943531
Ni 3.664362044722183 9.109637028932111 10.76348754055384 -1.038575267624566 1.1083488367742782 -5.314569478959969
Ni 1.0589734854256228 3.7679167507100475 10.598945635134429 -0.9240228515972667 0.22525203396741206 1.1884960358488306
Ni 2.384505493050292 1.6999436625174469 11.422146677980894 -1.2471693813203233 -0.6828232931616627 0.6822275685591929
Ni 1.117151756448944 5.181631916646166 0.7628184264755059 0.11241274397647737 -0.32496687076124675 0.0891558303310658
Ni 1.2609434741660765 0.04636600754748116 4.541727001824926 -1.7620019361298878 0.7780983490165889 0.0478608282370208
Ni 1.8724413951050651 5.504369007009717 4.2829542386070285 -0.7717600655033869 0.7440209477169057 2.323347804009644
Ni 5.883303354349538 2.114928727751256 4.180736717100923 0.502453978639554 0.9197388795099322 0.8355853874894642
Ni 3.0005541396539694 5.9089163708729755 8.126688695324452 0.6710057317014444 0.4166799202965275 -0.34742391421318225
P 5.486558569398016 5.433454310768794 13.088174819348463 1.0394129330345132 0.2895262705654498 1.4213161119714877
P 6.001622221631467 5.567088659291846 7.8862150821459 0.39574625546765396 0.22935268639934694 -1.1337965874234215
P 8.945614672479758 6.887995186004766 1.5921475306995974 -0.04060234690239459 -0.5376289838787902 -0.3195030194331982
P 2.0527510510103024 2.13077684012767 9.139241041207887 0.23569714056013602 0.07555392327691504 -0.3652198047440226
P 1.1459231821606057 9.006689709326597 11.750232506271486 0.8861332756403448 2.007709666848491 -0.25811510324402
P 7.1977061745683635 5.8574380388672775 4.773488825399391 -0.08345158085743692 -0.6478642605879745 0.17182039651083314
P 8.585658813486928 9.176944784502458 4.035505960877914 -1.3251985056106081 -0.26991029610673517 -0.5943722022071054
P 6.838694100569648 3.3352707583586545 2.2165883882261865 -0.3975694247193217 0.2840896729309107 0.5699752614199797
Ni 4.578329039665971 5.035719018793746 3.4723494548899287 1.7291108418288224 -1.5946215776682795 2.596094284013594
Ni 9.110393925808578 1.6901600695586585 2.77874691166594 0.5468109074883745 0.9332158309504444 0.29415862713113855
Ni 0.9984404241199569 8.594937808528071 9.424587425873925 1.4011653480552257 0.23662325191883116 0.6041385375652498
Ni 5.890591990937747 0.7716367423066508 8.944611083287997 -0.31966679870457204 0.04304026691992587 -0.06043146581317979
Ni 0.1363199307736299 6.172026807301446 7.364703789853649 0.5725054840410011 -0.3422634530581654 -0.3544656515513121
Ni 1.2513467693249345 4.003984476515085 8.196466177369496 -0.16024040498271758 0.5655267387303228 -0.7390625752703659
Ni 8.332649679817244 8.856852161003603 8.33896182599075 -0.8040292099497379 -0.06950488886935771 -2.4959346463728567
Ni 1.8146369003170366 7.015630425951368 11.638577134824239 1.2130690972025044 0.8466370173179354 -1.071042387014336
Ni 7.35520613571486 6.660010371287935 12.187811410488155 -1.758366653370146 0.38454138789076997 -1.6836066867494361
Ni 7.382304912773585 7.138574774145046 6.723317786700061 -1.1060734104765404 -2.076225966552334 1.117313502166734
Ni 7.42994269396165 7.495035825337888 2.997734932399274 -0.5036515984920811 -0.5908731879149115 1.290514323964861
Ni 5.428156032633519 7.208732573509502 9.88553949252404 0.9464711532984537 0.5506639626858775 0.31323775524977665
Ni 6.789598592063942 9.063485008279336 5.720927482213647 -0.7484527582360142 0.9051851500654733 -0.6897873831843216
Ni 0.9441213927260337 2.8351955331604435 4.668303520585061 1.218888789208075 0.6183914479398381 -0.255789797544953
Ni 1.2746236843777923 7.475795693626193 0.6060099513643022 0.8617126807041353 0.7092616898588495 -1.4471276737179528
Ni 4.4844831713898365 0.045497912241013676 3.677250783755666 1.2597433613305917 1.0035555570162715 -0.8325833674383468
Ni 9.002662270391317 7.059493067162976 5.168356319209154 1.0073700456663555 0.7746702971716466 -0.602987197569626
Ni 4.955431883452857 1.194626225619255 12.163152457805303 -0.6113371121962181 0.28530451917461835 0.6105804365358516
Ni 0.8810662762727298 6.148142505866237 9.529403626655904 0.3358529215461313 -0.15742324724889664 0.9045629431004422
Ni 0.8643743640451425 7.462246305096829 3.1777857482615706 0.2646685880918216 0.2441434715552763 -0.6373152814275347
Ni 8.84555477429188 5.073302219252436 3.2333120768954897 0.4575671454291927 1.16706074879319 -1.344467381142549
Ni 5.665961817932668 3.0237376106480043 0.014975344867005242 0.12629798659900185 0.908739700185951 0.5025542516628442
Ni 7.1382290311274 1.4068003055832017 1.1762046638628503 -2.693213077945478 1.8041559437901187 0.3750997828618959
Ni 1.1799368195722486 1.6368222007823785 6.994016815145563 0.2575088371185888 0.6586178995600528 0.2930329981671276
P 3.400382578546657 6.68456746994667 2.6289616920158876 0.15259677239453073 -0.031179768036914038 -0.394372772158895
P 5.937472875249344 8.925692399138653 2.1220837393353484 0.10184910952801814 0.4093599895963466 0.6619230526738858
P 0.9244112373984572 3.6388518166634505 2.1306320018364944 -0.6287159697942979 -2.4566952412562593 1.2941879161617067
P 8.721012532692326 1.6717889675940183 13.72216192192443 4.127596050403252 -0.8667502431280428 -0.8541929752883225
P 5.172567842940316 8.259174616364566 11.7909741159184 3.1313416550340847 -0.15475135684368832 2.0046904204061926
P 4.532924571483781 8.778218985503885 5.777438711227563 1.006793090116963 -0.409562849635772 0.8546832846611797
P 2.2114284072979697 4.885320806117814 12.208777453966315 0.3909866292954815 -0.6928565090279486 0.5219144013570108
P 2.0869515765395916 5.091804142899429 6.460538142239825 -1.4026460463658101 -0.5886293861860572 -1.3834265360145659
