# total energy = -340862.0537872842 ev
CRYSTAL
PRIMVEC
9.30591852085966 0.00000000000000 0.00000000000000
0.00000000000000 9.30591852085966 0.00000000000000
0.00000000000000 0.00000000000000 13.62015241194001
PRIMCOORD
 96 1
Ni 4.143236778711161 5.097847183307859 1.6745702182068916 1.6416627382174822 0.14437746980853197 -1.037197670550749
Ni 2.64090794103867 8.143078662418077 8.487955994422576 -1.1912568864234192 -0.05114078453987321 0.06580918518532537
Ni 3.4175426582477253 8.737968795330103 5.740390132031958 -0.317925133423117 2.8217641222447143 1.0188243102498842
Ni 3.369458978418603 2.2105371376600376 3.623246259786491 1.3372194413308842 1.3771419885574347 -0.8158236314815046
Ni 6.8455730864136655 0.9204502397202246 0.06272095871497925 1.6600332703048701 -1.918870596426895 0.3465641373160483
Ni 7.514352210586235 3.018020974016284 1.2312716331331524 -0.23770697190131318 0.3727472234693193 0.8018450578142254
Ni 2.958165307544267 7.45796765163817 1.863086719247031 0.8681610074326402 0.40459676387974836 0.7323422258273968
Ni 4.952470127706826 6.720315426165944 3.499643191811581 -0.5818671277615592 1.1293604060289388 -1.2778817228025154
Ni 9.19890023438879 3.8520545952675342 10.859974079292762 -0.6241314357474089 -0.8617242506683611 0.6086739635417582
Ni 4.910947120275524 1.220862032928613 9.56450649939491 -0.8767623759484061 1.4406960591599962 0.16155963801477338
Ni 5.0869406470663785 1.3969020893109423 5.1148435124814435 -0.20563760217059424 -1.1293143832823518 1.1249987866261335
Ni 0.492410568874434 4.789960876525105 6.511794923159347 -0.0652204025613909 -2.043622578695016 0.7859767233234013
Ni 2.10002935790954 6.754440228552897 6.163037023225925 0.3678479863954891 0.4367340107339253 -0.41868872319644024
Ni 5.194116908067345 5.573565726536948 12.097392271459617 -0.48061425705664323 1.897215737161281 -0.39150444947216445
Ni 1.9026229131223984 8.818558047762886 13.870082230982996 -1.2446890381006306 -0.2993111178663555 -1.5679085871534675
Ni 7.0508244203233055 2.685250641713291 10.565206325530156 0.3576047114009261 0.4110409768431953 0.29988293120942544
Ni 2.668388317763152 6.167190254560885 13.031379830523255 1.3518469614360717 0.9601540501021851 -0.10237361457292048
Ni 7.481707049208151 8.068798822589152 1.8858871496610683 0.9463212579841509 0.11088910824309935 0.3496360913731527
Ni 9.255312711091737 6.400266284171913 5.201100069155747 -0.7958286764168165 1.9569645750851394 -0.2998363942422062
Ni 7.840273387024271 2.8566749626214105 3.912524452347006 -0.17449460090888658 -2.2665012273342446 -0.4667704091950155
Ni 0.5404318990509808 7.055328484777979 12.035679143695962 0.017411253497911953 0.646385619159919 1.464673653021516
Ni 4.912203419245318 8.053267244955167 9.351705273972714 1.4470302289081403 -0.02335178735206301 2.984781832862253
Ni 2.1541339668753836 0.37857127037440563 3.6480483932257357 -2.2751185366896105 -2.14107278782439 2.7297798213259177
Ni 1.1130529694836013 1.8570425253145724 0.721448760537358 0.7229021634604195 -0.6735979179086529 0.17889890062416933
P 8.982407351179056 9.317457633464269 0.5195084723570003 -0.7496694042519347 -0.24067608183196615 -0.9795627936461001
P 8.460987443204308 8.542349086855559 7.159596646311827 -2.0181786847006147 0.66849762056761 -0.5389790701487814
P 2.9115147391325413 7.358850315880482 4.225407106662228 -0.9160742861741514 -0.3948952203212683 -1.443484677648727
P 2.2590488897307193 3.900892054478533 10.859687457009283 0.019120008658902555 -0.33547034139573195 0.40878689070169594
P 4.595271759880038 1.3733022805153836 11.839848190876125 1.1542435424238637 1.3576555976980489 -1.1750219126217956
P 7.463988580774893 4.953735732594916 5.064135563693194 -0.9923532605425491 0.2898841681255008 0.3166089857148547
P 4.568145008050759 6.8332148269182 0.2565781262644921 0.8112792066439317 0.3202712650577904 1.1015050743795676
P 2.626781557067196 3.715406491027003 1.148029263394527 -1.996209379518375 -0.287595372091324 0.13027188364508532
Ni 9.001205306134509 4.6987814890728625 3.700622178632088 1.9193439365188878 1.3670038716821682 -1.7685407656896703
Ni 6.873397782115053 2.842390378038925 6.432756967306304 0.15709800269899393 0.4358958311033461 1.5806969971673872
Ni 1.9697092781094583 1.6543875426091754 9.294418971541885 0.23857754743172457 -0.47641795958710853 1.3730912155268287
Ni 6.9624926438692665 1.2951884023490108 8.229378026316537 0.6095368257626858 -0.15345269263692282 0.059204278274298035
Ni 3.948501132474621 4.853576133988212 4.887469219009625 -1.28699654061959 0.2724047803938147 -2.486455760348144
Ni 8.623161681327417 4.981095132381565 13.295393385505276 -0.9742496089633027 0.6769395806873761 -0.36022877928733443
Ni 8.791943121439818 2.544898781991438 12.820376508515613 -0.9254395294391352 -0.9584085281659881 -0.45497624477356485
Ni 5.405780019682088 4.778244725391978 6.524311383265825 1.8173647291709087 0.33122313608360376 2.1319481998153025
Ni 7.893224062121562 0.9470819166962223 5.527194335674066 -1.6674449893879086 -0.05682137986441827 2.2371741962353533
Ni 3.5808894420759763 5.925180543386869 10.111450680068575 -0.12616660322746012 -0.8054687706097419 -0.05563404442453644
Ni 2.1129831961758723 2.3367160838189425 7.184916188808262 1.792761843020564 0.6528771404215337 -1.0812877188914283
Ni 2.8434791704794136 4.635315126302471 6.834633048866324 0.9545415890114141 -1.990360891157398 -0.6870252470581523
Ni 4.819088400787762 7.02473993134304 5.7567480752105205 0.8792164939158534 -0.9919277429693563 -0.5840358532781038
Ni 0.7584276880653202 2.4632207371181645 3.0055594188277457 0.30084940888775286 -1.3822749389086257 1.5839862094416204
Ni 0.9703187946782849 3.7651838479857744 8.786591287828491 0.9415228081542429 -0.1961324908936364 -0.8177866687451465
Ni 0.9844265668131694 6.495977653833712 1.0441947576532153 -1.2372631779502046 -0.7966226330730216 -0.9849538827546844
Ni 3.090244205902062 9.554665490798179 11.122325597267334 0.48005838455317323 -3.5430320925358205 -1.7002342680037879
Ni 0.6798773623309223 1.9686856270970328 5.474225048740186 -0.13021274827237572 0.7885671097583967 -1.236792408961373
Ni 1.7433893451804394 1.7251683571592626 11.759135169730023 -2.046805604408688 2.403708404646583 1.2285877616633938
Ni 0.6453942820896197 8.81021063905247 5.5124705117480675 0.2599416149297975 -1.0755539017314444 -0.08827599882927377
Ni 6.900031320274711 0.4313497859832433 10.49237913954705 -0.6872682163068938 -1.870407615829501 0.12284576638434325
Ni 6.2711838915050375 5.168944399079969 0.4205223500472682 -0.159035586041339 0.38453213191938934 1.399508272067777
Ni 8.59843585641819 -0.21210421214191505 11.777209124242141 1.3436554267642151 -0.06325762240806525 1.8951951071868263
Ni 0.40781884098306576 0.8601497503537172 7.590074467750849 -0.2784144769230044 0.04350537948180249 1.2000965962022365
P 8.837635180267183 2.8596807742306236 7.210549340751229 0.7604626382126968 -0.10805061035303971 0.603527129233496
P 4.256983018028241 2.8720111159712056 6.722839191207488 0.23756350434491344 -0.3604776620733469 -0.3606291000495467
P 2.0710321165030092 3.4402677107235746 4.766862656725634 -0.24740028792967714 1.5514082755055991 0.06462570640018547
P -0.2249966313475015 1.5310003719387042 10.564280386659826 0.11598220649529059 0.36997943091619506 -0.011287142878045076
P 6.245667063540754 3.466705824599041 8.717129121900776 -0.37310872057379607 -0.6201215432570675 -0.8939512290228669
P 6.4803157933436 6.665503567409697 7.227615464312024 0.0811149623044603 0.07636022122829429 0.8171474924992508
P 2.150448823230651 5.859341171451309 8.238571342999949 -0.44435913137935085 0.8744375844699714 2.214306547608561
P 8.02258563233728 5.78738781119608 1.575633417264122 0.8727033753876842 0.6476778556087813 1.5647774977236535
Ni 4.295611884869868 1.0531135497469313 0.2634058785173713 -1.5909842380260084 0.8425415070923231 0.41918571743751676
Ni 1.374884286625496 4.299250498923127 12.942249606279523 0.5178952528952887 -1.2238589887291567 -1.3039000012431479
Ni 7.131339225409731 7.757087783387243 13.124010941229482 -0.6835357458476551 -0.5498530367488078 -0.10951999580971462
Ni 5.676591547978444 2.693709721443245 13.137126702474143 0.6280335990152925 1.1043384300633046 0.22477637988257418
Ni 0.41425667525939364 7.404244585322413 3.0417473433006514 -0.07451159805532974 0.8916259233237999 1.084222633150036
Ni 4.403969997494272 6.525486720746456 7.913566799513949 -1.0710637271705747 -1.8052931427183556 -0.7100929275108933
Ni 7.167492717984946 7.348883677386773 4.4403598603941745 -0.29455637679018953 0.08841483839998322 -0.10599809869938519
Ni 4.859587757206639 3.8018119423940235 10.775896968683096 -0.5459935537934016 -3.4704490789617712 0.8448629561366481
Ni 3.671510474430532 3.679234386615198 12.929855984294537 -0.706827369385744 -0.04835885091936188 -0.8122919641791623
Ni 2.4785848082228443 5.463123088214514 3.0785634172584553 -2.515805160044538 -0.31524450126716036 1.0915937288031266
Ni 0.892775369303382 5.77225638804877 10.19822464580007 1.0661269519905898 0.8545462448626832 -1.2262539713238945
Ni 7.561523910422468 7.15661409949835 9.161581640843066 -0.4011139475374705 1.23750589008863 -0.4442619436798542
Ni 8.395017788412622 4.967703915955378 8.636061545267639 -1.746391997506773 0.18471936396068833 -0.12787432994718623
Ni 0.39780008934690697 7.087024442489995 7.887321318147184 -0.05312799017323108 -0.7612334549404502 0.6237293152129839
Ni 3.4177753062050944 3.528720464115447 8.994435250575057 0.6929297854680454 0.13514309569445757 -0.8448997229118547
Ni 5.120879331087437 8.727015729497147 1.4205139958002846 0.4288417524700421 -2.0159793630564504 0.8661902568595147
Ni 6.476156047865834 1.152770628765717 2.5034660419675943 -0.2398790398519675 0.10218026761519176 0.775365266356142
Ni 0.5105040658149723 4.051387365141695 1.4971268293457094 -0.2753893169434354 1.6257352683539485 -0.13112883232874192
Ni 5.8764268374405235 5.351359009494222 9.687755011882787 1.5141383354105473 2.140217124692314 -1.4974621603064469
Ni 5.777188524745003 3.4359032350433236 4.647659426920495 -1.703371270970873 0.5078862053987189 -1.6035656742354447
Ni 6.292931822559935 8.83307528030274 6.4271864446150495 -0.7609663173219927 -0.6432393602214536 0.6607819970909071
Ni 6.253055962666808 4.8466153071037175 2.932609394723146 1.601195117120739 0.20033367345917755 -0.725878472479924
Ni 7.807432801361997 6.067188856565192 11.311862957544411 -0.4516507799447576 -0.45090001782166217 -0.4999042156345068
Ni 0.9247756305436378 9.01308896379694 9.869625226076797 -1.0719731263587218 -1.034090235270019 0.7813304828006414
P 2.5169065797607435 7.34062002194101 11.176192905316661 -1.3860197506630387 1.8059330902951993 0.4421384695789482
P 5.083395092196068 3.009645647550983 2.1170619801644737 1.4756535490717875 -0.058324703882822126 0.2630444222248373
P 5.523816287333061 8.93088978749916 4.0108619521515925 0.9059040305093687 -1.1749812891918472 -0.6316056326372671
P 6.954089399649081 4.06968280050923 12.278608279597501 1.135777365298876 0.8271938209916593 -1.2431844285306461
P 5.9933277830595335 7.423005316604686 11.105450245031584 1.781382654649345 0.09591243232860902 0.1777251920310423
P 2.850039842877233 0.5178185175946685 1.838339490725726 1.223503148051635 0.18595966412569265 -2.168982883971097
P 4.28354210884154 -0.0265395483848795 7.87643897729327 0.6053446420582091 1.4769280449088371 -2.455387578188429
P 8.865543629233224 0.5524430477940517 3.8641457749079398 1.859358042883559 -0.26227309127645154 -3.213764794627007
