# total energy = -340897.857468332 ev
CRYSTAL
PRIMVEC
8.99827577885982 0.00000000000000 0.00000000000000

0.00000000000000 8.99827577885982 0.00000000000000

0.00000000000000 0.00000000000000 13.16988616201959

PRIMCOORD
 96 1
Ni 6.263204902131991 1.9565491040090388 11.311773041817965 1.069334403184294 0.0902449496301865 0.7078455262376132
Ni 4.564933309355551 0.29782493351832806 6.006574075376818 -0.14697814065617268 -0.8858998194733 -0.2246977041258388
Ni 2.761786811746308 1.5664468518240102 4.78980832086873 0.16616474088695252 0.019810092747391688 -0.022997232226121683
Ni 3.489054459391236 4.265326717222303 5.049281702959526 -0.19250337878148138 0.3381427460215725 -0.3703170167612719
Ni 5.060252400855034 4.496249469922794 2.468036297525131 0.1851500237402037 0.1210490794952367 0.329782032761703
Ni 7.414201358749607 6.225565114322843 2.5030026975843147 0.012209911802630586 -0.13992097669907516 -0.3063333148204595
Ni 5.201714295224532 4.3311940963193525 11.576777664063261 -0.45477749849919746 0.2376581209412488 -0.11816635863080294
Ni 5.508897435609107 7.897066836496315 12.221852360767453 0.1308976901545423 0.19152635958019273 0.960090286743785
Ni 1.9731959142999602 6.4839775996929365 0.47038216968368307 0.18716859683212927 0.11460769474526715 -1.0246853970163514
Ni 2.6548603000235973 1.6254305499088686 0.27547681565966226 0.8052322291189036 -1.8879157999165939 0.26343728678788175
Ni 0.5922107260133102 0.22001864204614605 4.658373205259866 -0.6682582508632943 -0.3745775918098388 0.12668236652161408
Ni 8.506106137972372 2.439153631756591 1.3318312067216846 0.04254327267884931 -0.1123654356783097 0.5052359122600654
Ni 6.975571404997586 0.5544548604459177 4.841776963114236 -0.48036537427063075 0.22916473875825694 0.4760695751087543
Ni 0.6878632979449427 7.46684127237225 2.403767912043593 0.13129389715169645 -0.14161713345457547 0.2742552033389922
Ni 7.792641845455158 4.027997192128765 3.7010016480152435 -0.12108661760139146 -0.7236143590360957 -0.12916270974130659
Ni 7.551146118650974 3.864660489209414 12.57795282806259 0.36502928599977136 -0.5049428064996788 -0.18517007834486174
Ni 7.827663134996923 8.556946396428428 7.126738839680483 -0.43506793588541204 0.8850492985475467 -0.7926441080412477
Ni 6.853536788151385 0.7522927525638905 0.4161549602041117 -0.9613467848587056 -0.4530594873668262 -0.2684450244151183
Ni 1.799997101067717 6.523345056462007 9.243455453860514 0.5611324663173691 -0.3573972233758103 -0.26210931200507764
Ni 0.22471664185851897 4.884210132459585 1.3878553718850923 -0.19445484608089736 -0.41529486702354285 -0.11567007457151048
Ni 6.279671746906254 2.113748982810332 6.8366722195853065 -0.28141366876064433 -0.7418334531472837 0.522598571908229
Ni 3.345342996063506 4.0824727540213255 0.3322982280618674 0.08059482813493217 1.0019614730562745 -0.047990154726033483
Ni 6.125711247404815 5.697762247066482 4.493077577691686 -0.8813399680167595 0.27152906265708077 0.835692859601606
Ni 5.095273690396799 2.8085058598708823 9.356875121424268 0.42193782626135723 -0.5340680060004093 -1.042604186278301
P 0.27963851823239255 5.4863207615442855 12.391638127976266 0.10127035420641269 0.410788494512757 0.4737177870471261
P 4.091525019509254 6.0015710340137085 12.566599703444181 -1.4545519912064822 0.6343975935601075 -0.37898574817986347
P 2.4016308215332716 8.474702155315445 1.3373624468761869 0.05413817660530031 0.009678403630028493 -0.6572354173902294
P 6.23879257979725 7.622916366694427 5.7592303691088125 0.9343448023485651 -0.05932820544667203 0.052017530717871706
P 4.6721207710774175 1.0871536895829763 12.591847065776216 0.062354908088137775 -0.33913004963550625 -0.021959277879910567
P 3.966772923361507 6.0853719768457895 8.146272286034154 -0.38496561991238215 0.10048051131526564 1.2579088792250144
P 4.7552018518428625 0.8832806538638573 3.8670081393742257 -0.588816819606515 0.06383586350903846 -0.5760497497488337
P 0.45736796334651597 5.5831152146791165 3.5670245194835775 -0.5281297861391033 0.41583402735646446 0.24982869486551165
Ni 1.3074854716281084 1.016580212225304 2.4855919336751784 0.0294715270965557 1.057322209214766 0.07286763469400354
Ni 2.0517868554247736 6.4772018979907395 4.817070397159759 -0.30543651403780303 -0.21066539440248883 -0.005418599912410023
Ni 5.930448661830227 5.537673921722819 9.154506597424415 -0.00596958731987359 -0.11020133814745538 1.1486827605066345
Ni 8.673726020188198 2.288720456381662 9.965969312382907 -0.8714209091308347 0.12881612503516524 0.9108454336750442
Ni 2.301767956339411 5.12076580583149 7.090535176694271 -0.37859031251365766 0.08564164653022024 0.015488068333270098
Ni 0.5900556389513233 9.008083953588223 8.988276048997193 -0.11522270262144671 0.22066081505230387 0.4374734600031111
Ni 1.3330945646486283 1.123776672223003 11.381192040386273 0.19627467289845552 -0.3868222135051467 -0.8902416413817635
Ni 4.138792962459636 6.865882422594165 1.7043022372396697 0.4253098280573837 0.15585230321735094 -0.7280286860537074
Ni 5.6540216282426075 7.641695768357752 7.988221170339067 -1.3314198039299716 1.6165132355350482 0.45104219982648125
Ni 5.210262657265815 2.8048795547102117 4.627213075878012 0.3741711004000395 0.26856149538832463 0.23227577358341286
Ni 0.7409153326007334 7.27126374714351 6.8613265955399525 0.18588073125864116 -0.3531392194304047 0.27103052575410735
Ni 5.0382246216160205 4.430283109791581 7.106589000607801 0.45863878122681656 -0.07182710924463113 -0.20162231036361408
Ni 8.108022415123534 7.2350456869159645 9.155020398974477 0.27719448847297423 -0.8654700908640385 0.4705368182159832
Ni 4.515568768136095 0.5070114511167925 10.413745113691517 0.050149881381513634 -1.254621209612678 -0.6489150704499921
Ni 8.296788245546747 7.126616463129154 4.756857534596122 -0.37561965992110796 0.20891344470838857 0.0004532854873347032
Ni 7.198998593929247 6.077993390662786 7.155317363725869 0.6290592120663295 -0.9014925317052346 -1.4440549483299001
Ni 2.4224708283623384 5.252617541611419 2.4714736388933103 -0.07512532037992868 -0.6167107178033057 0.3233133943182238
Ni 2.2492360220267638 5.224353957220184 11.396126478786186 0.5329909708861466 -0.3181480480672005 0.44895446405951706
Ni 1.3196601388300633 3.467197647393048 3.721955033119805 -0.8093938166957608 -0.5241962554126521 0.21420708900716012
Ni 3.581565733229593 2.5716712399481563 2.576227067002369 0.0060058398744477215 -0.1044325539844782 0.39837238023659133
Ni 0.992671793337208 3.2216706930157115 8.086521035020747 -0.1295208644116737 0.5995830569840834 0.0066069637935563625
Ni 3.6036744969511023 2.5954356864229253 7.211447708544105 -0.34102520977569006 0.4006907439571228 -1.104357456226698
Ni 4.233922734565376 6.629767664738074 6.084078924608596 -0.10779272870596275 0.5375050567064162 -0.9715993158246494
Ni 0.892412104179115 7.379602988171991 11.393242531381732 -0.31570472873303046 -0.15099497512504964 0.07892746773483826
P 0.22120281514575968 5.521683985567702 8.173889794220583 -0.5110239796967522 -0.4562962491365689 -1.5075128596742295
P 8.321974419603118 1.5323073933138727 7.9052111759527 0.609135476559209 0.7807069902840296 -1.0558412537938655
P 1.6580313032515754 3.1277556881474173 10.340072630136984 0.6886550693520914 0.5303599610212028 -0.0940751220095541
P 3.957648671666916 6.018784735682104 3.779625882760639 0.9468264797553436 0.5065582306159148 -0.011435238420135144
P 6.859808586406937 3.8639676219702785 10.282889487046294 0.5300365162435129 0.33459436654868185 -0.008999889505765146
P 6.345881060484954 7.662301820015163 10.240429322873446 -0.8982578268180208 -0.015968864624430562 -0.46181923583732726
P 2.2585762323413454 8.427137269262575 5.752593240854443 1.2649974106406796 0.15668328375907856 -0.08802094539567422
P 7.042590563401252 4.16588677099259 1.5559296670304814 -0.9557376662020445 -0.28450567742240684 0.09798859813134737
Ni 5.260841965722717 2.7891325720025835 0.6490303387603487 0.777378697241745 0.07847366802687131 -0.4803260363922632
Ni 1.4709661469607866 1.0782363982325425 6.9374619071899595 -0.6297151004827736 0.45367758056679935 -0.3928645630444847
Ni 6.906896563840662 0.7487177375754672 9.256823292437915 -1.7545763330897781 -0.9301130236554046 -0.17485481246178275
Ni 2.630313003551363 1.533702126067977 9.090382184356203 -0.05780405549266174 -0.19472661168504526 0.9998868499154328
Ni 6.265553452124386 1.793536339019673 2.636229369911515 1.0598043522066714 1.454084050431128 0.2560605347078364
Ni 4.104059617744525 6.766280507399459 10.384416133441665 0.14689200870026958 0.29228609269877404 -0.2064315588267993
Ni 8.110982847872569 7.2468784196362686 0.20581216416111567 0.5235992452586016 -0.047438653097937655 0.7411279424398268
Ni 7.502501439498153 3.7904517084152376 8.148195217579651 0.4118256775280198 0.11450716461166087 -0.055374877225878825
Ni 3.055976441828132 8.326671519587908 12.199278386185382 0.28765964967035623 0.10551884507012149 1.0669216799777432
Ni 0.07721690440512503 4.801138049969972 10.237426598227998 -0.4720020899076 -0.6137184679442012 -0.09852184492699807
Ni 8.590491968733593 2.4598946575514957 5.844690594004485 -0.05044324425221636 0.12692970664572978 -0.17674457328532786
Ni 3.5376901402682246 2.5960835622828964 11.362780668204513 -0.2725222798082855 0.40057864385929076 -0.061162430441933376
Ni 1.07509599996685 3.2663021411470456 12.603304570394286 -0.9862497187479724 0.7611318963655794 -0.8473517839967729
Ni 2.887510721684011 8.321893435120622 7.972772930389091 1.3261513564421807 -0.4948262868909672 -0.7533651079359671
Ni 5.714993945286544 7.8938814468514575 3.4586357879380154 -0.6936846613561989 -0.07552435559056025 0.4391680740967146
Ni 3.0563093780339505 8.381839948719604 3.4187968215152993 0.20601889676941296 -0.12702380902143284 1.1043505142481627
Ni 3.3235581702719816 4.309031342942845 9.410634420560527 -0.02268561452297383 0.34390870197107226 -0.6221509149822705
Ni 7.312286886665839 6.045536609733406 11.503408422404297 -0.4910349381693349 -0.1213720100522942 -1.4960940763143267
Ni 0.5017339623407789 9.191558797821672 0.2569034745129108 0.1135669121855786 -0.6255547984574968 0.7256241903772729
Ni 4.596013354082492 0.3700882870774249 1.6204491044077585 -0.5329963702027853 -0.4182110122290733 -0.7864066117719684
Ni 5.984879232343623 5.736706784871404 0.34743332801285626 0.3011227171537975 -0.05609915698641306 0.6139812346872845
Ni 7.970483769017194 8.703384337333535 11.347832732390849 -0.4661551442085197 0.5665029866006631 -0.2466490115859494
Ni 0.040108014870120355 4.931010165066656 5.844004925386016 0.1857832864488284 -0.27073202067708213 -0.16173215903689564
Ni 7.78011624549572 8.949100255503364 2.587763756447769 1.2047839743755766 -0.4447828491803308 -0.254472107174794
P 8.428244057190025 1.8649466560298082 3.6438967899243013 -0.12813195448394707 -0.7219284866932406 -0.41436541323073794
P 1.7497237339891354 3.0793629607179183 1.4923586479259954 -0.33202017806360234 0.9324146752053877 1.3597988692932967
P 4.610167641967692 0.8794311914625297 8.104998094616086 1.04081778380184 0.5523850591420423 0.8462955748181167
P 8.27960153870585 1.655502787742522 12.285014858149125 0.8677547731331572 0.7490333133298327 -0.32226027046336114
P 6.304974898548453 7.770776035181139 1.2993735259647217 -0.17596295792429698 -0.12962525120002194 0.2961201217328836
P 1.7548977425930703 3.2335394188393463 5.935219547676847 0.10539774611122493 -0.36386869003276684 0.41488374762805325
P 6.6941413300468575 4.0163084318217885 5.719260027858935 1.2189821202528295 -0.12774680323038645 1.1998047759934305
P 2.390248002604615 8.470167024295648 10.123783773423588 0.07416809867298195 0.403596347639692 0.64004116499913
