# total energy = -340897.05626410065 ev
CRYSTAL
PRIMVEC
9.04399955176358 0.00000000000000 0.00000000000000

0.00000000000000 9.04399955176358 0.00000000000000

0.00000000000000 0.00000000000000 13.23680752549663

PRIMCOORD
 96 1
Ni 6.438260373480126 1.904141719488978 11.468158412410993 0.5693975345396387 0.9907429786326357 0.0687574691803719
Ni 4.428864589094772 0.3275420038941046 5.985313369649638 1.2178675470324123 -0.41606876907508983 0.3738908501554593
Ni 2.787650019860772 1.4798696201232127 4.823704801246903 -0.9399639483075554 1.4638303311846146 -0.4727011728571537
Ni 3.4928106522692963 4.345144286745077 4.9260385587403706 -0.16737778735844724 -0.03912421969497133 0.10537409196214112
Ni 5.14980700043818 4.6441841265628 2.7676709208091665 -0.0275092611638623 0.10978301966311416 -0.33381815050428965
Ni 7.256796582236903 5.987064287931467 2.7667176832735008 0.3485595704795223 0.2080312992137514 -1.2948692584994472
Ni 4.814012347101049 4.615568912494048 11.355063200043817 1.1687507349011033 0.21014937399801872 -0.37922614632544366
Ni 5.523568363212928 7.822679624045309 12.552901125601425 0.3943450042447531 -0.049946764231772044 -0.33151624184399037
Ni 1.879722921137009 6.608784981971374 0.13709617794734313 0.3582773119879185 0.07540068552850239 0.9719266172570808
Ni 2.858726811063781 1.8344034401956326 0.24132194011311922 0.28163144119840533 -1.3621941089983507 0.4308333289787742
Ni 0.45689290076417877 8.917998390121959 4.676378955589962 0.4545782380041977 0.4936852313079885 -0.06282027776033053
Ni 8.519528821014774 2.535123468903855 1.4405752515751997 1.7241131315039144 -0.5820622744915008 -0.24642892515534337
Ni 6.702137143671013 0.5641836743230965 4.784761339875207 0.8451496341391316 1.059827235024807 0.014098129964278944
Ni 0.7142661309939923 7.5377484232753895 2.3903552662742986 1.386763827917915 -1.241219077274159 -0.007562899948922459
Ni 7.586188084006185 3.7051004499418028 3.8482443502809836 0.23599564563716127 0.43757810390177543 0.10879777293170939
Ni 7.59623596732805 3.907487068282677 12.853561650109766 0.367447922743593 -0.07551458539854737 -1.0869711424294506
Ni 7.844168166595042 8.804957441751123 6.988332695555601 0.47072939384276347 0.6210674521101045 0.12015047894036728
Ni 7.110953048079922 0.41146217863031004 0.5683529580417104 -0.3517317975599168 0.7225062135735815 -1.3179989025383754
Ni 1.7288237913212305 6.313480313901564 9.3354965339449 0.9914065803585635 0.49100022827665757 -1.4151788887254984
Ni 9.465901961143805 4.883813934390122 1.3320861480971578 -0.5305931600779313 0.09061338871319878 0.19842874312698086
Ni 6.359215818814864 2.1217946087995276 7.061214669036777 0.7061789371684677 -0.6985008517979197 0.019619059782508146
Ni 3.4584886745856958 4.290464266435446 0.357442370276121 0.09001200768377401 -0.4726556643311989 0.17648874852077992
Ni 6.05473149136459 5.628722944116018 4.839972242949009 -0.5848097553296508 0.14654902353855406 0.5868126446922927
Ni 5.370688597530823 3.05388727389235 9.168765883197596 0.08180273240010427 -0.44140673361924626 0.4687933531623153
P 0.25329709970491254 5.582779427216758 12.375938093944704 -0.9099193223163491 -0.5279963458850326 0.2763475670916466
P 3.8619233993577806 6.116728107180422 12.56991017525348 0.13795999631796238 0.990325945699875 0.043409220223570404
P 2.471643637188125 8.55232236280153 1.287367188715252 -0.20919138096012357 -0.16455137365324565 0.4206461040331272
P 6.293294107263937 7.802357757416837 5.83642562529811 -0.5364784152141148 -0.8273627424693557 0.1373257051680732
P 4.89331013374922 0.9022764079051295 12.630018403996758 0.011628585377863843 1.2990074490375372 0.30887690717791966
P 3.835632493132161 6.1584480763647305 8.20835555161594 0.4861866089380982 0.03716195376227794 1.2113037777719655
P 4.753544167182063 1.0643159361690393 3.696947284492062 0.120605821310231 -0.42326400127194846 0.048585107997555034
P 0.32853503502708464 5.58935441477301 3.474397069512034 0.014991331202509664 -0.15561961838125457 0.5335316738809651
Ni 1.2910490008667657 1.0309707104195174 2.3971328394168787 -0.04139938888239321 0.88054498291929 0.3313689176328487
Ni 1.9334442775113405 6.664921086182735 4.630870455061344 0.07174329128157321 -0.6280253714851765 0.1405077024404806
Ni 6.091070280912076 5.743129536394687 9.29582593502228 -0.7436034005635129 0.07577066727341145 0.16367796990935682
Ni 8.607128999102615 2.3510509493269574 10.190699829427007 0.29763552993614545 0.07326332747052544 0.26126033374122104
Ni 2.1995458715520746 5.3139827213579185 6.990450800212649 1.0438496286496282 -0.42126162612993906 0.2338793706251069
Ni 0.6710665635095423 9.150175942452236 8.946559340194373 0.4636627168039692 -0.6944732186957653 0.9358733231779495
Ni 1.3893391862331355 0.9617027190944323 11.428817919466093 0.4015350942352891 0.6078262708294823 -0.7831608511411609
Ni 4.089271456014002 6.824113563438793 1.5473034883720833 0.45729460849409626 1.2904328199946486 0.09102450810868841
Ni 5.650663686635232 7.941445424029774 8.005978881674395 -0.869662017458199 -0.1275951081438706 0.4029029211170932
Ni 5.30874624571133 2.7146830327853326 4.891000296305112 -0.0862196305208773 0.8442271223248622 0.028361581861828574
Ni 0.6999322963613864 7.356452411511105 6.748335701353061 0.040317468672124115 0.6529470744275206 0.14956621309832305
Ni 5.105599931421726 4.660680381449463 7.161920506640114 -0.3734275373657956 -0.4607817957117484 -0.021464854741995294
Ni 8.216102641493087 7.320583909931879 9.16599932378431 -0.4308299865446645 -0.46027246017549767 -0.5374469497749711
Ni 4.633448899287323 0.3985184067038886 10.48717840861759 -0.01815147409804616 -1.2929465875554378 -0.6724861729017128
Ni 8.14995482995742 7.007417343067573 4.793590996479291 -0.047024962599286756 0.03590031344103495 0.24426199941101157
Ni 7.143375785891702 6.181374614817413 7.091593462986505 0.6200150995861903 -0.5626812988617277 -0.5333344702684945
Ni 2.5624634790586702 5.289373999018767 2.468479141801698 -0.8777982734120883 -0.661533273434635 1.1009106353286784
Ni 2.199582047549633 5.11761036261114 11.35432159209387 0.3823382095918641 0.10359565990547964 0.283326312402325
Ni 1.142103374919145 3.298446061387014 3.89189973533467 -0.11562019517018152 0.4389073642361602 -1.1575705499145676
Ni 3.788884060287225 2.822767869490659 2.704730111457058 -0.5168015056104778 -0.7418859036517739 -0.0352038015946426
Ni 1.1037749055059434 3.3385290666818013 8.241037852210201 -0.31633567744881 0.18124014716283626 -0.0702502516758145
Ni 3.7375050997548045 2.579909353881244 6.966173992651098 -0.2809223309465227 0.2109009074520626 0.25456363844733576
Ni 4.113599814372074 6.888425443098368 6.150932512871958 0.11466451612513157 0.08554008795534947 -0.7463794206467532
Ni 0.5376883737112712 7.358586795367055 11.135821280040513 0.7662602187310803 0.05715588038570157 0.8701973211363788
P 0.14877378995921806 5.683276348434195 7.898138232952587 -0.3968513156063746 -1.2784095702815272 1.6493050852540885
P 8.548008375092682 1.6639150077019416 8.018156626852514 -0.8157984346705242 0.7132183605137523 -0.3503475156178805
P 1.895423304077386 3.0277772476545226 10.631658107666617 -0.4491143866761491 0.032617786035021246 -1.0421856106836438
P 4.0289027600883 6.2337031952857425 3.920556551800614 -0.6021032523027758 -0.3067452055468975 -0.6505515776121505
P 6.8862277512466905 4.000784965985978 10.54354061281369 -0.42309456557361974 -0.09528122650251333 0.0779195952956142
P 6.435601437659578 7.756540856509031 10.375260724970943 -0.8878937099748773 0.20444461030375755 -0.44416269909782863
P 2.317090731618941 8.492586746833101 5.773472154346856 0.9953185138184601 0.32636837909446376 0.008716553937391439
P 6.947500847111353 3.986920514921693 1.715291255034545 -0.5814925180309599 0.7532213832692511 -0.23633348859255424
Ni 5.443501836616639 2.7751964327012675 0.5945353362746548 -0.629718185806567 0.21026944451565077 -0.7784585605694851
Ni 1.3976415776728048 1.1034674095266963 6.891505829290471 -0.09124793697340415 0.6511555297447366 -0.05570860641621373
Ni 6.892133482848111 0.662501896087574 9.22524746818564 -0.25725481212625373 0.33430948831841134 -0.4496872284604836
Ni 2.83315942478933 1.5951896563402335 9.207827820961295 -0.06963704357184781 -0.0904642647298442 0.006469666884743696
Ni 6.58214135976956 1.8224924929995054 2.4974280794479267 -1.07560532379467 -0.24455690494361104 1.4464735850737218
Ni 4.1780473540224925 6.924393428670879 10.528755482611542 0.0168990897481838 -0.04219900196555313 -0.9726400983843378
Ni 8.12246107181298 7.043349152642525 0.44110840862947825 -0.046005520195836896 -0.22449895785147145 0.03885656785588147
Ni 7.57802135255736 3.9799837673898555 8.343358043704587 0.7196026667735413 -0.3537046050155715 -0.804483266768021
Ni 3.1581012788589193 8.508757417741739 12.400863356262493 -0.17155274467174325 -0.13152503932589607 -0.17978258878070327
Ni -0.07639014084440943 4.778098625524876 10.25181465530235 0.39276017625613646 0.44764320144726133 0.04754381121723425
Ni 8.57998795693437 2.343453989839678 5.638920053427812 -0.054298099221932294 0.06405183617458646 1.4810428384081589
Ni 3.9481488895384 2.5387410686597023 11.346988717388768 -0.6923399744028463 -0.4357855307777269 0.262823821573599
Ni 1.1246032361002338 3.3248997596016467 12.674772634976284 -1.0593225274742466 -0.09659994531393686 0.15066484547914052
Ni 3.094983207118775 8.528581864403781 7.929681894023697 -0.08970218975283906 -0.6895657540918189 0.6054873382836605
Ni 5.431093469454083 7.891622031392368 3.670619297868945 0.30567048442548006 -0.3703558404190073 -0.35692131218065626
Ni 3.072436516640457 8.632560725386222 3.4554417511913336 -0.03597461832239611 -1.0967927565055628 -0.3028402140655365
Ni 3.3040623850079665 4.201417048445266 9.334411254018146 -0.018607844909174404 0.5102904439648372 -0.7743733347565179
Ni 7.175879919697989 6.080760121607911 11.5308740261783 0.4120483350617871 -0.36834318086435275 0.049799697130946494
Ni 0.6517947052102051 -0.22603215474503083 0.14326599433094062 -0.4904386993462328 0.6286599197453818 0.08153893721575634
Ni 4.572465211403129 0.4748823199500682 1.5503612645657132 0.0035972304329550953 -0.799768377790855 -0.14480427293330544
Ni 5.802213984407062 5.572722499895503 0.310669518632833 0.5926991853800566 -0.4633415860191246 0.8674477834156996
Ni 8.049222764755854 9.09582150612063 11.21586429223839 -0.10935056011138587 -0.8750389654993961 0.08307825667841821
Ni 0.22736795345487743 4.888055570103853 5.831342897641144 -1.3433268397802025 -0.5323173418578897 -1.071178655481884
Ni 7.814458628600145 8.595109523913813 2.679302002773208 -0.5279163845767166 0.33604241184911804 0.840687741713036
P 8.510511953623325 1.5213092253264429 3.6506058316196586 -0.3219347688031423 0.26557361640459426 -1.0883729078729836
P 1.930477845711546 3.186372820950866 1.6708553728335345 -0.7538178792026695 0.1698085082871269 -0.22386158137778867
P 4.8574506761693845 1.0310159304164654 8.271694296941192 -0.5845878691268319 0.16389831345027903 -0.3197588441977461
P 8.520297560962891 1.6316641058785633 12.53255574457454 0.341512948045386 0.7775638166693577 0.6931598992009804
P 6.2346799472198215 7.661723566908275 1.4605100350297961 -0.1145264478853705 -0.9603468828392816 0.4203308867855535
P 1.7753189921832575 3.196628716258693 5.9884109394405804 0.6026604103578267 0.006033607788589608 0.4499749349042315
P 6.876623023894916 3.9803274393666617 6.03912154841811 0.6771360129688984 0.4325040318129777 -0.23914781811289781
P 2.4280696481289454 8.311155075077973 10.144583572139405 -0.5147168551673071 0.9713977413368046 0.6149883357955602
