# total energy = -340876.06416324433 ev
CRYSTAL
PRIMVEC
9.19386567264452 0.00000000000000 0.00000000000000
0.00000000000000 9.19386567264452 0.00000000000000
0.00000000000000 0.00000000000000 13.45615174209753
PRIMCOORD
 96 1
Ni 1.0348247308556027 8.83171918606916 5.374292495034509 0.2252494628642508 -0.32576262718966476 -0.5059419371881544
Ni 8.574759837809776 8.948554829479667 7.229802117899306 -1.4073509080406472 -0.1446780317680863 -0.17425677386646762
Ni 5.242112290020907 0.2575220128310494 1.1864490421210838 0.8017298723926 1.5819136431833078 0.31083737333840017
Ni 4.689239185166421 1.7635948714143561 3.309285016039543 -0.873211168262038 0.3669925803737292 0.4671406480502406
Ni 1.721266314421755 5.612615877823867 12.719938238251467 1.8239727214057295 0.7819388058086018 -1.4054773451670182
Ni 3.1735936737723627 6.589932979663676 10.308367077959412 -0.9964695967037678 -2.181584374785191 -0.22818823377760059
Ni 3.003553130423502 2.905096024247619 5.208513308368114 0.9546341487252205 -0.0936748012473419 -0.49941056382753996
Ni 4.8488998543092325 5.578947942179449 9.156292060356996 1.4061113792065911 -0.33870196095915217 -0.8400452230330308
Ni 4.436104484975872 4.365881739904307 12.294360637643821 -0.6422893376033584 0.7369570988915888 0.13816619879149752
Ni 6.611014513370025 3.690417631804958 13.184632978615069 -0.140070614903062 0.3217072261733685 0.12215233986174447
Ni 3.676957812639631 2.4127277485782552 11.15097841991901 0.35423682336995765 -0.3652090061107452 -0.40803124348259406
Ni 5.237634877498015 8.719177077870544 3.752974531780861 -0.47214272925052236 0.7436260262713321 -0.5582662005131676
Ni 7.324651551233335 5.939908297541417 9.593078821843307 0.4338422910084271 -0.9036455734924953 -1.950381522550983
Ni 3.1747245192350233 4.974727098227724 1.0618078068585532 0.21165449778863546 0.3340796316957924 0.8336292922043578
Ni -0.17205491929088484 1.270463504904335 1.4671239665669178 1.849840333201111 0.8591238369310366 -0.1595328373927317
Ni 3.253957252545674 3.7166201486227064 8.842749985956155 -0.24333923048642608 -0.13828961174323925 1.3043507156273215
Ni 4.133865348882309 7.562837026039441 0.736325659267815 -1.2551259171632385 -1.6707174894915937 -0.4888662126527903
Ni 5.392588287479183 6.431660584218925 4.057594879051896 0.08353745570302389 -0.6483841376471865 -0.5571225738270277
Ni 5.349919557461228 7.929571128966864 10.1212461711916 -0.3619352204554799 -0.13230742601787537 -0.42717284940805145
Ni 7.034116205985033 0.906073837692183 2.6721492140319523 0.21072350133393386 -0.7227674376547681 2.056777370909419
Ni 6.491080537269138 1.9638924262885533 7.7629479454429715 1.2346517084692865 -0.16652829487395834 -0.041798166982708655
Ni 7.6799025160887 6.4902347016385304 2.790994636451708 0.8390144677756711 -0.6121192417778812 0.0400619010178923
Ni 1.4238447638764378 1.7480112693069585 6.3698189669828205 -1.0985578188257854 -0.4279552361000307 1.150521099266954
Ni 2.8706098345692426 5.748032323511099 7.761238805837211 0.034317799445263475 1.344673326505768 -0.8831371691264985
P 7.984587220418587 4.547221544014224 1.7346994713769872 -0.3972084418354772 0.14592193147751642 0.06747654558541927
P 5.892495532899619 7.349125621327667 2.105833758356683 -0.5795521064751373 1.5313819529823431 -0.9671014279542955
P 8.04306020531714 5.929565198797569 5.056216006144366 1.259492164551734 0.08020453467504897 -0.4314524506200118
P 3.0314932878302168 0.3508103277946732 4.6652882460218885 0.9040296963047914 1.5695448372053098 0.04583479894592751
P 2.9659226387269952 3.0110001615190725 2.633947783284786 0.45954766619433113 0.4207219515763851 -0.9676886679163333
P 9.259877504736716 7.086015577015274 12.786398853539938 0.15611866950486017 0.9435454950112266 0.27850240865112036
P 3.207666139500985 1.772558890325691 7.812439443085645 1.0615231346699912 0.6255257449917743 -0.3905932505118047
P 2.4315475913592834 4.144245223088357 10.798615248232927 -1.346878561687203 1.1840115177149158 0.36241267431253066
Ni 2.8442050527093925 8.042425828594183 12.007987355330043 0.2834790359301053 1.0627675486000536 1.330611191985747
Ni 8.258702321794432 1.133465714342487 5.1209132380203295 0.1280563640510053 0.4782596407815376 0.21646940267877554
Ni 9.12412088602413 5.32368945904683 11.34947029959917 -2.511336325639907 -0.633311045364148 -0.6948532277430033
Ni 7.599060856306784 7.797611576726465 11.03288689447436 1.2972079339349532 0.10272611281633276 0.11076029597471893
Ni 0.7442075602039048 7.207540091856325 3.6740268083022634 -2.039675678232126 -0.23476768676733115 -1.0448266478509167
Ni 6.609120577066706 7.572849145623485 7.698049367911461 -0.5493807250980796 -0.01726572905898317 0.9563719573519336
Ni 7.47209357306008 6.34236976199648 0.06517255472490237 -0.4954361525608242 -0.5115459136384931 0.686216892224244
Ni 0.6905788230636917 6.071555258353114 1.2501680467025176 -1.0749918585803873 -0.0876314232667394 1.3408950904102586
Ni 5.574038417975701 3.499690890968402 9.780321087636382 0.24903190999582916 -0.6380022801922303 -0.06128275806988156
Ni 8.893290503658093 4.152280661579133 13.279593657722256 0.4127181074353021 -0.11580274349463282 0.3000024875064253
Ni 1.379548719656118 8.070899230202803 7.625587916578451 -1.0397474335557964 -2.5883740325512004 1.176822456165644
Ni 4.331901212831185 4.325143721651871 3.7918489534862942 -0.15300017848053651 0.08523464089978869 -0.21109759684390095
Ni 8.17922135411393 3.4817444654146317 6.225313465812771 -0.097871870047825 -0.2602756012304485 -0.2829211065441063
Ni 3.2569452588494525 1.061909858766159 13.222054769563588 -0.4993282885263787 -1.3736013223940278 0.07009007194886639
Ni 7.610663514630994 8.633628158926983 1.0927083889723959 0.04095073138074883 -2.433793396957421 -1.1655877637920893
Ni 5.054401137084779 1.836005756486842 5.837439907826031 0.004917491906275402 -0.8481727372361715 -0.5093095681088067
Ni 1.4755510637301275 1.6640253075069127 3.598417377404902 -0.02737273558599802 -0.42254563504868514 0.2285196489750903
Ni 8.395902377398382 3.69586959407616 8.937858686298696 -0.616395757666048 -0.959236166273606 -0.12407166837164439
Ni 7.53094350644619 8.06409576969574 4.8134133720590055 -0.3826320866831991 -0.19414014305395597 0.14930164658302675
Ni 6.354422919732643 5.5828001718449345 11.574591291458603 0.2963538350102444 0.12450284237179204 0.09247743850513104
Ni 4.761742008894407 7.806308973536847 5.888465861629015 0.5466270736123424 -1.0494572046443926 0.24868172574526204
Ni 2.760632814859101 8.729915512833045 9.613276825070296 0.09638474397933723 1.662864311995762 -0.4399964835352809
Ni 2.930627388880211 0.18007840575644585 2.1152528736127474 1.2895267632406113 0.3219836197632068 1.4981926107145682
Ni 1.3108705439969677 4.090433528023698 7.2087968932770226 -0.5186228750899327 -0.39964301941889885 -0.08924119095602051
P 6.253933969270192 0.08823812461696086 6.405006648602669 1.286144734142256 0.21525918442075828 -0.3811806989486532
P 6.427734803629038 4.141165278129078 7.792390380480571 1.3342937830436568 1.5484983009476556 0.37713763922753113
P 9.066125982134182 9.1947849366421 3.296151579101244 -0.12445193452919856 -0.1439709783987327 0.2802101353708465
P 1.0935367562584588 1.3454118968686448 13.15085839413027 1.2371791028768306 0.4442112929475769 0.6621842767550725
P 2.5653091412475004 6.832099398252969 2.1483287243157405 -0.36748906039417356 0.5697667449535994 -0.5183382539699783
P 4.504819436097223 0.455408016771459 11.475217556887378 -0.41715197483693967 -0.6398028237360788 -0.7224036265574462
P 8.746354144436602 1.77986801343801 7.718246451751893 0.6231528738842236 1.1148352158295702 0.25846734437711616
P 4.308677508451665 7.348362530487009 8.116589064440516 0.1611660021207805 1.1403631848973457 0.579519453464989
Ni 4.527739742913591 3.983858238567088 6.996700850742398 -0.7143519598975632 0.050805255577325396 -1.6447269789651031
Ni 6.749667199730888 4.4164296126986855 3.904060082525107 0.7863163660510071 0.8126953702651682 0.3605941330465532
Ni 8.744285524687832 3.111332816267173 3.2630095325662896 -0.29677935258343724 0.04198097241747609 0.9323177446162071
Ni 7.318298590138224 0.8122688274846444 9.924773264386241 1.4097325208989464 -0.9444731490318187 -1.499354235122837
Ni 5.848245458007049 8.27838638793717 12.505757027010084 0.24710024019075508 0.18406656086803785 0.7353900115147851
Ni 1.489636065752861 8.394670399414672 0.7413059762362971 -1.2787492130091331 -0.39509628058848084 -1.334264215357302
Ni 0.5655054761203069 2.7671604593996624 11.541893308629717 -0.9768119703738404 -0.644690233735367 -2.0380401995112316
Ni 8.573730124868167 5.713895500723626 7.310350493370175 -0.3698997267181952 0.7388895400276113 0.2275899380719693
Ni 1.284824322893571 6.280936352390798 5.880674979961871 0.18453218765054671 -0.7635957845250398 -0.49033636944041353
Ni 4.8955311403792745 1.149279163088637 9.33263499854044 -0.73181669234123 -0.2524522485312878 0.06404232309288971
Ni 1.173569355871967 3.5244683586258865 1.4932832722165805 -0.0827103318160382 -0.7173493519629904 0.8694290755117864
Ni 2.9326592331667802 7.487364583738776 4.196610723101989 1.1404436604262937 -0.8815425709458689 0.2079155995714935
Ni 6.270869069613452 5.743122799307353 6.17144844632792 -0.39534053538880304 -0.8158187463854982 0.7518317020105761
Ni 6.383475534870919 1.907267408365567 11.61590208753481 -1.780935025588965 -1.0138176010639122 1.3688218987275134
Ni 0.9216206643373802 5.282831920542243 9.31952914319879 1.3413653451784577 0.5051502945247945 -0.6364557616407168
Ni 5.579913298062207 5.298672950885043 1.4063966458354824 0.12957614312964136 -0.08063365179266758 0.35608441810165775
Ni 4.378017642430422 2.8033659019359054 0.6863643550955317 -0.17057572547045463 0.38760202909396474 0.6914817401676091
Ni 1.8107777894174029 5.028033130687129 3.3583866937828932 0.8992222476138192 0.023678317453546316 0.187238016617484
Ni 2.2938878424778295 3.3563585270425436 12.914837155274654 0.4989565070092568 -0.9209799510058848 0.4605853634302261
Ni 8.391755944035292 0.6773442536043414 12.35432118998838 0.36912016823969335 -0.6122156581464295 -0.3133691386213184
Ni 3.220601908329958 -0.2344831051490862 7.053943696430351 0.6713232629418632 1.8769963247906125 -0.6247608418012918
Ni 1.4923666438212368 2.21478382328488 8.990377723867015 -2.0426239622271725 -0.9435717202634717 0.9258138820594185
Ni 6.258209116750983 2.9621071845237092 1.9647731986082517 0.8164358111442067 1.0356092430177068 0.23936404788876195
Ni 0.8624434293376897 7.4331483585899125 10.805626490101425 0.855849794165455 0.8823221294243707 -0.23445452640228653
P 4.527114560056185 6.562921402677519 12.010248126868811 -0.5636565182908035 0.256591467510642 0.7341785077051872
P 1.126910488205275 3.825153731441485 5.02926326989773 -1.8417590988548733 -0.21111996544140413 0.30012358646532183
P 7.3240999193003296 3.631144780603547 10.957586377459485 2.180158183861626 1.444796968702247 0.708676763889657
P 7.114967059632498 1.5850316147005645 0.42063130094169954 -1.527532497329266 -0.03274454142087264 -0.12802165415832792
P 6.7146109903884055 2.330249580728424 4.194806886681061 -1.1900153007068346 0.5795089119420277 1.1346327101714717
P 0.6736611910649765 0.4770963456041144 10.619755949048423 -0.06589917379597038 0.6709314268200831 -0.6552878067455554
P 3.5377167188835617 5.619713542028534 5.470975185159226 0.5088976773823687 -0.1742176930984161 -0.010066125986750406
P 8.886726083655333 7.357602365364847 9.023372668553167 -0.8719744676414596 -0.10678408493579028 -1.2581929861243364
