# total energy = -340862.899326343 ev
CRYSTAL
PRIMVEC
9.31276841534181 0.00000000000000 0.00000000000000
0.00000000000000 9.31276841534181 0.00000000000000
0.00000000000000 0.00000000000000 13.63017792491166
PRIMCOORD
 96 1
Ni 0.5288441844540634 7.868842364323346 1.5228183164354128 -2.4510917790265525 -3.155994677696074 -0.34098227235289663
Ni 2.8627264094389595 7.227937636584098 6.780891222917958 -2.421843680794713 -1.205612126703827 -1.8448302815810291
Ni 5.804089836039067 6.9386737344000124 8.883945305463293 0.7393657083330815 -0.2592996104704244 -1.0381034701944702
Ni 9.447896764585062 1.3741269295569483 6.786397862928307 -1.9616354981982473 -1.8705024895361528 1.789602985676608
Ni 3.909490900903928 5.912406646389766 5.034278698086307 0.8428081304901485 -0.32148533997054957 0.7922034209594034
Ni 6.002172421900935 5.5911720099666695 6.437083366942881 0.05222013364698103 -0.07556755012366986 0.7885624817727065
Ni 5.471568124201555 0.2253410592430481 4.247640318742207 0.6653307928038541 0.1716710154171624 1.939069439972273
Ni 1.0346672051915995 5.452737706307211 5.449154152990819 0.5612497086215237 0.15495010311805574 -1.1235597401867619
Ni 5.081502815841219 7.903178541759768 6.225706804056198 0.6103986595423488 0.21218183104701524 0.1308868915212649
Ni 1.5480149428720782 2.0760489164671863 1.1662743182682962 -0.13269052038890694 0.43698237929930545 0.24704213325931004
Ni 1.7384331202635979 2.7347130937239976 7.062926554197202 2.22624623646894 1.9048382867035454 -0.7123377576810118
Ni 2.9507134461678235 4.167920226605237 0.7282771217475243 -2.7508345851136884 0.2765969640982914 -0.8280268584159158
Ni 7.26312127595345 7.274780862107614 4.828394806057232 -0.704712122814954 -1.1938552432782148 0.26932434169627806
Ni 6.918232207556251 8.420800840178874 2.816498757912879 0.5591306053959919 -0.2270158107360542 -0.7054826824323914
Ni 7.700877271770234 4.410853105532962 8.92431801943736 1.6719721878343012 -0.36712884884127744 0.374921862523135
Ni 4.366058689078068 2.77895805683776 1.7363619605505898 0.40685984888231225 -1.1674952652274473 0.256351583585694
Ni 6.202555261580758 6.8564606141372675 12.984202681300406 0.48155116704861584 -0.7328595317834474 -0.32306322598063075
Ni 2.607789371922803 6.584686091184428 1.4620273575388205 -0.800988109130569 0.550023243778085 1.4793477100939232
Ni 6.374748351030028 0.22549844503059233 9.590983727383993 -0.9468714740606661 0.5842819078506388 -0.22064847375712968
Ni 0.6134804870788793 0.9568403988894069 4.621775205317151 1.5319537663254132 1.087333925085508 -0.17553332658604606
Ni 8.952634423319427 5.733713244531867 3.4919426814417127 2.082756054361368 1.1963083328043977 -1.4722195836895742
Ni 5.210149399813755 5.8469658221842495 10.88142053159509 0.450833683360101 0.45987059675138864 0.3424280036604877
Ni 3.0009558321915555 5.629168105421132 9.297880170749938 1.3846038441521187 1.433289739393596 -0.6651130203660932
Ni 7.537428871936588 1.7390105119102097 0.9023234521270478 -0.5314966457288073 -0.30504287814381015 0.03357552196260024
P 5.270291258746333 1.0765094740339771 0.7975818136010946 1.2125574476734085 -1.7386208382017863 0.5577612358522911
P 8.271451971844751 1.3276189636992062 11.145110640218514 -1.0082097679588313 0.4094422648975078 -0.20897463696362717
P 5.97706519804181 0.5864622831248383 6.3726259710903035 0.3499860185134037 -1.2916679779533302 -1.210714738037715
P 4.545320169814087 3.8271753401877526 10.771520550600451 -0.4569361967134131 0.7764186473213209 0.5471369233692255
P 1.8631031520893069 3.0631930640352256 12.658183144425225 -0.878531552033687 -0.9232438073393969 -0.29694338896512734
P 3.2791934164790515 4.884677453726005 7.142690416346093 -0.4722265472135803 0.7534941773146636 -0.11352680297626255
P 1.8090239054461537 6.851319965928723 3.756995248095771 -0.4503744843354953 -0.5128039544153105 -1.3032117169268718
P 6.057993156252418 2.274429510920854 7.643395139519469 2.3999985598951636 -0.19657009265168726 2.2080896201645714
Ni 0.8124878308521764 8.349884108099037 8.074285762402667 0.05526431978994353 0.03619290498078928 -0.5437253265845152
Ni 7.69917303513588 3.4788032963738935 11.473679081830433 0.5692093297882326 0.5226170838509903 -0.37001979723582723
Ni 5.87995164818908 2.3195126231990537 12.76072231320241 2.454079400899967 -0.5702753091589017 -1.1227668119718213
Ni 2.718192242416101 4.937238719104679 3.3334235299718036 -0.19498115089801257 -0.9250353520221811 -1.4100459383743071
Ni 8.990984403976652 7.695559680960309 12.772022426492713 -0.5632603112936493 -0.16589683193754654 0.6610079970587841
Ni 3.5597871311954643 8.511637584066822 12.735520099104647 0.5463262545424721 -0.2643777963242802 1.2213364794176191
Ni 6.668491694859601 5.7013513740161175 2.700901225153772 0.0511199586042668 0.9090258639678023 0.06810440897740529
Ni 5.5310301510340905 4.317529852457185 8.829042810085292 -2.024352160501178 1.0461250549473662 -0.8655058291979805
Ni 8.982938171998061 3.269936524596273 13.499083300674956 1.2503413512904016 0.46706917138235693 -0.22731868668845367
Ni 7.484327465985278 3.53082442117993 6.60598811783701 0.5243474362785356 -0.4577980304930761 3.4785053736073444
Ni 7.198770045661702 7.879077096897967 10.827718452075933 -0.26661054230954084 -1.8211740756146702 1.2854042564318058
Ni 4.962951272915897 4.379785709837843 12.947810244580568 -0.06269429370542752 1.0995849745387192 -0.39701098111269045
Ni 5.924969571087823 2.3922267195981823 10.173183556369246 0.6770228844298017 -0.048446268426845594 0.27536849100782895
Ni 4.149043244868425 0.18633732223756255 2.5031958064159006 -0.4307577385458323 0.5455536380425056 -1.3329534669656786
Ni 6.875328283105587 9.204973198425831 13.069132336132776 -0.35032951789575145 -0.06230605712807334 0.15202701593398982
Ni 9.18540707182048 0.7177490369653503 12.957855927954764 0.6874327669092161 0.5836823265934271 0.206308917206006
Ni 3.225477367807154 8.280913744634391 4.456005132298015 0.033691478715174236 -0.10015192433125332 -0.34668883581937066
Ni 4.685281767506519 5.360122223636958 1.4705327090041538 1.55800366933493 0.062131222113105906 1.3286309283309248
Ni 4.314242445178894 1.2029954957159656 8.85400009837167 -1.318549889945839 -1.1786073159802086 -0.511409645170945
Ni 4.361970383709316 8.17326745361524 10.266072834433215 -1.3167251780322742 -0.8564077235514541 0.9774197791611683
Ni 8.269496290461065 3.5901467564850598 2.3781933087549647 -0.4817727961411187 -0.38592541272249015 0.6782498148583673
Ni 8.602129755520501 0.6613266977691719 2.960815006152984 -0.33209988226160225 0.3001549539238895 -1.6639596019424696
Ni 1.1843233948860155 5.827194814672038 7.696143591544866 -0.5729906512075358 -1.1566979175016274 0.7943312659356836
Ni 5.182220407101025 3.9828848294031003 3.4152315448050703 -0.13452217428100702 1.6568003651898693 -0.5842639101285099
P 4.002814153979705 6.525354443110804 13.479891547363055 0.6590197629841619 -0.4842210005712951 -1.5762613299935369
P 7.521336407979405 5.692476305641582 10.696609572113651 -0.18241025621153747 -0.1856195071774545 0.7360651832049387
P 0.4943329269699585 3.5729367603086266 8.54474540733892 -0.05358333254309481 0.1902804029882336 1.0765756581277393
P 6.957103703249126 4.064567121861701 0.593250360079926 -0.8922129061755214 -0.35706812217116574 -0.5609558315301888
P 1.795427263445292 9.029353010170865 6.050217925836994 -1.3237283488229845 0.8077274847369316 0.9973789958919145
P 8.987976379753174 2.90425204415255 5.3106444159065616 -0.7177720413227058 -0.9031917737845283 0.4090784538001858
P 7.749452672233587 7.613951890649657 0.9867734993819888 -1.598112107320041 0.5814925180309599 -0.5914596565460007
P 2.0726870070409458 7.257943376670931 10.57509656880732 -0.21848206223343017 0.13133889145701896 1.1308017664611558
Ni 1.8135778492395929 6.4450597531577705 12.88823273941871 0.9545359325844593 1.61249382996301 -0.21120995405204915
Ni 2.625753702347229 4.736464743148119 11.491944214677204 0.007463141146264567 0.2793670706442608 1.1041360842445114
Ni 1.0636764790496023 3.402997360834843 3.9998983261643155 1.0292164521174856 -0.22937608343811464 -1.475142927983956
Ni 8.467672004007872 5.611669413421392 0.9616858323367002 1.0586532693213637 -0.016183294628081806 -0.39319083603565186
Ni 0.14307485619988927 8.49189451486009 10.613615110574282 1.817069052307361 0.7034445689564401 -0.0762594339843719
Ni 5.849778278269359 3.003004641260178 5.1762779295251695 -0.8851724543889723 -2.1887425830965275 1.5763667452231498
Ni 0.6907392145029537 5.462134289717395 10.030979444023522 0.009697429793422009 -0.6668397732492128 -1.0451925158307676
Ni 3.7522820559610883 1.949572207553691 13.138373701160589 -2.2246776064302396 -0.46817088908696797 -0.18301343701317513
Ni 4.206111890198069 2.9062822276841853 7.314239993492444 -2.6735269123704604 1.6160218977209264 -1.7316631759370307
Ni 0.9247290418461388 2.2643624081791205 10.549989344948195 -2.3464751340557264 0.9759966735613964 1.9163861394421446
Ni 8.174152166622147 2.0535678933232955 8.942910030458265 0.02616688820335493 -0.7463004877797018 -0.0939761345378446
Ni 0.007722147635009938 5.514490674189206 12.117991351561539 -2.082514370664207 -1.8316904017649616 0.5256083052688303
Ni 2.6562902702382054 3.3037511869970464 9.66029307562181 1.4077386303973691 -0.3011260595879072 -1.8401341616569404
Ni 7.541470613462872 4.735514840761756 4.822288423755886 -0.41698613868303663 0.043638562625557105 -1.0948849979598885
Ni 0.2475529433774695 7.990625437915995 4.687418116598983 0.06255596835535032 -0.35690382867915954 0.03755250433247726
Ni 6.579210183310107 1.9270259950303443 3.010974508537122 -0.9128102707108988 0.06627609751941488 0.2740351169083861
Ni 3.0319952895811935 1.8059693173802067 3.64360577274653 -0.8533013167119885 0.5830158966540218 0.044050453351995096
Ni 8.260658473160504 6.634621155847866 8.720956025116388 0.45124351720400996 0.7577804633948433 -0.7548509484528743
Ni 7.905069033763997 8.649615562070087 6.601680962408656 -0.22505328769304467 -0.02957488544363939 1.046140995786966
Ni 1.682901081735421 9.238266345790954 2.568211968378103 2.0183378359862982 1.9339619435423787 2.720833667876224
Ni 3.5968333242635655 0.8840909139700018 5.768932272421496 0.6489857757869275 1.18341219356802 1.2778680959557605
Ni 2.447954326264728 0.6263833278269574 11.408704827326451 -0.8857072438465197 0.33066674935950147 -0.9824827955063725
Ni 1.8075804263296238 1.0565428983833967 8.921851067063367 0.3772104014469955 -0.5398313908467477 -1.0582130964601515
Ni 5.116788895664002 7.874476589262058 1.2390843361829105 0.34633428069342936 -0.11034917657922931 0.006866902323162367
P 8.518407966761771 6.012099833115263 6.567114759590437 -1.0385197317962824 0.5093244805071421 -0.48528775127291257
P 3.6112494898918763 3.486598083603155 4.8758964443132555 -0.052345860591567914 -0.05266082072882544 0.2763480813122789
P 1.6411240022724993 9.276858458429016 0.4670362712379546 1.3733935772585961 0.29761264711801005 -2.236464828873155
P 5.111909004973282 7.247270943977104 3.645622918402274 0.7819958842987822 0.08190249120276218 -0.479014259559375
P 4.579376964195697 0.7715386565083483 10.969539809636565 -0.12220787569002825 1.5930601467184304 2.0207184204033326
P 3.9462763364542046 7.794200524846012 8.269211319745157 2.048206598521272 1.0815471432004018 1.089377437878098
P 8.128435786086373 8.799513883745341 8.955762582256476 1.4488562263732854 -0.20241652413013525 -2.2494363014321586
P 0.9434952016378761 4.289842991725293 1.8333404752601605 0.5603475085222285 0.21114876179681055 -0.07115270888542585
