# total energy = -381170.8213863233 ev
CRYSTAL
PRIMVEC
9.23875777316356 0.00000000000000 0.00000000000000

0.00000000000000 9.23875777316356 0.00000000000000

0.00000000000000 0.00000000000000 13.52185586896890

PRIMCOORD
 96 1
Ni 5.2182628795748345 5.110141697399773 10.94453640873882 0.543455103642264 1.5112838966808875 0.7046938679825089
Ni 4.522528986993862 8.535050828844609 7.962601691565582 0.2767419743165879 -0.5864418916164351 -0.8202184181150907
Ni 7.840859808811124 4.2925485898406714 7.657372536256564 0.6716310239902691 -0.5634575149061198 -1.4488842513977434
Ni 9.211974610607124 2.0226412384504857 11.345323883408096 -0.8819750304975972 -0.5429899910803875 -0.12071817851837918
Ni 1.9804478317177243 5.730986219502147 10.932339400731685 -0.44468900391494376 0.2689767285488722 -0.24293376751789125
Ni 6.2689221293821 6.092064589402847 2.4692261592583566 -0.5626902977227922 -0.31868309463506406 -0.3536714377847909
Ni 8.333036151459334 6.3258790710303305 6.627169743902262 1.693211813939368 0.4480692332410864 0.9078375000866559
Ni 8.564448556066779 2.006972305273616 0.6005405041526057 0.7056667734187395 -0.5104429103823016 -0.41722113751197826
Ni 5.874122293623159 5.305716960619791 6.5424826708092345 0.05942307915332346 -1.2186275651268885 0.20412502218080975
Ni 6.026035187625085 0.13405067973060414 11.59262510362732 -0.020669098313577307 0.03229999768428631 -1.5659370652493936
Ni 1.6707831488036269 2.3177086840889616 2.0114567982948732 -1.2077402287904233 0.28931775409906946 -0.8475662140004242
Ni 2.4574171790775345 0.22833312664290964 3.3686728129026164 -0.39435811687087563 -0.3901595054084958 -0.32590738029764516
Ni 5.644465252991899 5.882437175615602 -0.11738765621774937 -0.07785506060626592 -0.552834487974635 0.396774182511536
Ni 3.833326896155842 2.1699994248721053 0.781497280954132 0.5882910290100319 -0.9198453231808094 0.015839281025101754
Ni 3.519033595599285 6.623902919155008 1.2652349422557903 1.2141353336834897 0.769402621014804 0.6768490778560988
Ni 2.749703758627427 6.817704340883305 8.840494323333877 0.09978014281413138 -1.369870394596686 0.07537677426910244
Ni 1.4631051129057213 7.259788138905933 2.4380582860475744 -1.7064455390208226 0.2626335599396638 -1.2674232464733528
Ni 8.94490060100987 8.398317213857778 9.249612385883804 -0.038121489462069835 -0.442829839219018 1.5772000397577224
Ni 8.530690135177462 9.211180077438955 6.455117281838865 -0.37143390397453446 -1.004338200818567 0.9310617607219192
Ni 8.538432214188203 5.455661999216837 2.960596882229077 1.3394455024479255 -1.6076982083465794 -0.7595902629100725
Ni 7.503441897557806 5.894244308044871 10.633601396631432 -1.9417840106899589 0.3358791467983764 1.034385912133567
Ni 8.55592118264564 2.8528637278803304 2.8469730959265735 -0.6218863484669741 0.3941493432941792 -0.01996898692275916
Ni 8.497495278512078 3.731220145288648 9.823222835014441 7.81615361030912e-05 -0.7013897433099404 0.33752208171843806
Ni 1.51592309107327 0.1398812597588602 5.697596425047829 0.8161439909354008 0.01972370368117248 -0.8521432918481453
P 4.133946835213716 2.4768093316354642 8.246398776601191 0.4726381808297021 1.3007262315008568 0.616231464174042
Ni 4.105805579048183 0.7049310759403905 12.538316359286215 -0.9146401248307862 -0.9230702578760102 0.20059258354751905
P 4.5072203653699985 -0.006710109767901099 1.264940225882947 -0.020816422524718988 1.0196727742931084 -1.1991373176127607
Ni 3.5474427757401297 4.556435228007489 9.500294067570843 -1.1448502741344218 -1.3195161105138502 1.2087902673214925
P 5.572218167235342 3.570105448548421 -0.0979862649020502 -1.4169920306748371 -0.4121262394875741 -0.016087135369849716
P 3.821381182360033 6.971076958612791 6.594325036156337 -0.4627620593665708 -0.33509238923102286 0.0733808268849962
P 7.115959157952218 2.7344690470657187 6.062240031571733 -0.33855180853453304 -0.01572898069948259 0.20191927277874255
Ni 5.933582938626893 3.8256402496917175 4.307211422296456 0.5258996112570039 1.4094224458576954 1.0510901122621252
Ni 9.125777000618802 6.22939872364469 0.7342696751128355 -2.0683967003159025 0.6612784771113515 0.12744367016767083
Ni 7.993918308776451 9.032844336216604 12.42511201258644 1.4198346423299548 1.0972265016088718 -0.13527833572074122
Ni 9.133001709194458 5.8963137897852125 9.10821412209921 0.6579656106880345 0.964986438493822 0.2265069894204357
Ni 1.188427605664268 7.925228144761108 7.563977010090119 -0.975709481338281 -1.4233974199805486 -2.3889937241442274
Ni 3.191593542736899 4.205731983081803 1.4748826813101277 0.21673988273134281 -0.5108933676561589 0.797897128910071
Ni 4.075179097042686 9.044928631378953 5.346095875326646 0.272449260478505 -0.6549142254562204 -0.5938081021735193
Ni 0.9153659571566792 9.203456475943755 11.512751423332142 1.3829585952392118 -1.5638557572403327 -0.4620429218123592
Ni 1.7941298037826268 5.310484159628791 13.768224139583449 -0.10158197190956055 1.2948497181154217 -1.4480049341165837
Ni 5.928039683965265 0.900379768178967 6.537641561738079 0.43898835398574076 0.30072651015664337 0.22782905066596892
Ni 5.106279896652173 6.689978514721618 4.902930218769222 0.22237085576487509 0.8622567261330635 -0.6197572179391133
Ni 6.765172764206607 9.1213423968895 8.909213127498306 -1.0346162829768182 -0.36534476035766117 0.36457522918148827
Ni 4.97268745930693 6.129943496257307 8.540242086835224 1.18424368833038 -0.13732364828554414 -1.1661138114988885
Ni 3.6773119937043126 6.398495707097663 12.337949876286995 0.3033346372034518 2.1778956130796945 -0.05122203139976984
Ni 4.180436264309239 2.4968666747527895 5.680072349310868 0.2544736498366908 -0.5298321135421907 0.12805045051373432
Ni 1.3042446730612225 5.373307712460579 7.519111754610454 -0.06689547627096866 -0.12345331806135514 0.32278554683921185
Ni 5.069565073276654 2.895094089644169 11.347406299409315 -0.19216707848798517 -1.8837526696778395 -0.5910066281689822
Ni 7.874553558396054 1.7949520532241017 8.03318580092365 -0.35398099860540966 0.6511087356672013 0.7743707636533567
Ni 2.445794821803654 -0.20717359972369737 8.990032856589071 0.6506572499520793 1.5595090502358626 3.313042800993739
Ni 7.442170456031275 4.460684742485629 0.6893859421176308 0.27370524437279314 0.16298608604865478 0.8958893265858442
Ni 8.43378480493443 4.157422518705712 5.111505338046534 1.8370372678991718 -1.5314308039424078 0.2507758892701294
Ni 4.798268951378795 7.572954311014627 10.189854622210316 -0.18250538702850505 1.3112566987185352 1.9075978517265535
Ni 3.1543151551374486 1.0306481004787869 7.153210753154137 -1.1281964676278247 -0.0464462072776813 0.08178267779544625
Ni 5.7033069012250825 1.5986931219291505 4.095689139290711 -0.301459531667926 -1.1416479651470401 0.06349853477427773
Ni 5.9946141724514215 4.024208870429014 8.97722793832071 -0.6760839175553001 -1.4712248238764727 0.23448589386085422
P 0.08386389977577506 0.42334205401166364 2.7022479554692267 0.706487469547822 0.9617622751295694 0.3448034458711997
Ni 1.7933445093722293 6.244550286386473 5.460747011493104 1.1440899989296296 -0.7149746810832267 0.892665677442224
P 1.4782381981319668 3.7021365358306384 10.793929875085485 -0.9068633090988447 0.1412155271407826 -0.8263237596818801
Ni 6.36317593614532 1.2700982243455923 0.22829617161183213 -1.3093419981943257 0.44418018259932535 -0.17908299161051738
P 0.28713412434190916 4.071446638903856 1.23934979073754 0.1442319453696032 -0.28543770231837295 1.1275197532757744
P 1.3986370611909837 3.9671318249297802 5.941409090333336 0.6434995558613755 -0.21762717043230265 -1.3511090548287825
P 0.6833909122010797 0.8091950767467349 8.413907617593607 -0.21836379148801102 1.0947315031011597 -1.0400361684408088
Ni 5.803436557929629 3.3054612322445145 2.0675462205885595 -0.3157515228105659 -0.4251841011127968 -0.10943514940539217
Ni 1.5149068277186382 3.0478846656341845 8.590042686715293 0.43617248180350043 -0.6073876406301668 0.7114826087695681
Ni 7.257617030830129 5.934737783348066 4.698898720562891 -0.5774805686580893 2.2002451844194884 -0.5438615950520633
Ni 0.46929933065967033 2.084993614636035 6.590673879085878 0.02743161384839147 0.7130311842036108 -0.6308281310412943
Ni 1.8234074271537937 7.7747380194556674 13.410178853858435 0.9348711071656803 -0.32827099543381527 -0.4156882458072196
Ni 1.705816518265118 1.0342419772510758 0.067936281381363 0.15171616956179032 -1.4020464651085982 -0.6936016147240893
Ni 6.888944402042998 0.42221030618491456 2.4329741976470842 1.3763274630759395 1.9883371758591497 -0.6973734230616958
Ni 1.2365338173694325 2.1769192544413714 4.266862071614463 0.40277230907649997 0.20005316610428128 1.268901630791092
Ni 6.777229343095649 8.655967690530261 4.507321067829685 -0.006941721425155787 -1.4261302455306795 1.3018636875394094
Ni 6.582032868944176 7.79065639909231 6.6744823463150365 -1.1861231647412798 -0.2493386426029706 0.8253791363804237
Ni 0.11205689298481677 6.7603501326509905 11.931239434011772 -0.26468710003458285 2.9081858414740687 -0.3899784997459413
Ni 1.6412745564882254 4.541643976818711 3.502134059887534 -0.19515264347887035 -0.012539784338223565 0.060562077853773114
Ni 9.120279939746021 8.53144771331455 0.8318429675425943 0.7035073038735755 2.135380622535619 -0.5229155889280156
Ni 8.228933828913954 7.671910645482461 2.6824788615943067 -1.167871931840576 -0.016975194401757862 1.219012459270133
Ni 3.146619269915554 6.922277840074923 3.7308154876983495 0.7634386901218851 0.09689125130211054 0.1324732621717783
Ni 8.119473026862334 1.2366077274315876 4.595361809992997 0.4961480910261843 1.0103898063292855 -0.38582256859603875
Ni 3.579824621721809 2.4322877579448194 3.2449344345941946 0.9784968142754309 0.5182783472663203 0.7880539175674041
Ni 4.708911686233345 0.9226230013845278 9.732166562315204 -0.4377436829453622 0.736071868073158 0.06597322156701542
Ni 0.3929197485528704 7.6328861326645985 4.607666911466035 -1.491423924532167 0.8758663464966979 -0.45868274709087453
Ni 8.917507684223656 4.661452187572037 12.09946520260709 1.1319471929195086 -0.545768582266789 -0.009258542483790507
Ni 1.2067480623209497 3.18398080633493 12.971489375440276 1.471677595143175 -0.467893209945549 0.7244782496982878
Ni 2.4959243214603126 1.9060943091897495 11.199179669757372 0.6590084501302521 -0.415721155927684 -0.29876887220964027
Ni 3.3743361714152464 4.245874385589762 7.268146443059892 0.3016456795368031 0.10880600046182554 -0.9228861668896622
Ni 3.501424523290846 4.257644562987952 12.544712351289956 0.39423007593344367 -2.4628774588075713 -0.05873582327831174
Ni 6.681959272977797 8.062987261860341 0.7351196408276185 -1.3911413881603203 -0.08477569898549915 1.265594163684414
P 6.8881775851481395 2.0039235152097206 10.060017739898326 -0.19621116665037175 -0.015209103640270581 0.7576434235963467
Ni 7.2932324420310914 3.1850247859628693 12.230545621714839 -0.5654089822055359 -1.490392397943859 -1.1823292449164864
P 3.080691494473255 8.238551375751879 11.499323812790122 -0.7157388129427609 1.2294326261621924 -0.566198825096683
Ni 3.7297419440455473 4.636082558737319 4.968605776124417 -0.7746862380112465 0.6666939916999679 -0.6208501938929759
P 7.160905714500253 7.092095446633907 12.53478715381831 0.8621333131813217 -1.2046050255955512 -1.973475685366285
P 4.327785211973089 5.1255519453591 2.9317276119513167 0.8674135877436545 0.408642908924664 0.6903311715029337
P 7.165922359969027 6.841734349841463 8.68214016741514 -0.03842230853194028 0.4644990966623356 -0.7039641889053361
Ni 5.165749780413676 8.22601438145883 2.941395971956973 -1.3093383986498996 -0.5165173987111555 0.18790316100530866
