# total energy = -340873.5203649839 ev
CRYSTAL
PRIMVEC
9.26325001158517 0.00000000000000 0.00000000000000
0.00000000000000 9.26325001158517 0.00000000000000
0.00000000000000 0.00000000000000 13.55770273561667
PRIMCOORD
 96 1
Ni 7.920857040252065 2.1511860691390043 13.439005757461588 -0.7577501243775402 0.7810031813682099 0.6366488514881294
Ni 9.040246721801644 1.0308144830674528 11.750542194302335 0.19416868229904624 0.46305336535474445 -1.2205427798717303
Ni 6.15111308814893 3.962605383924746 3.107561073540659 0.6635053095593412 -0.7511261913031193 0.28792344485470417
Ni 2.020778032720748 3.271705867213873 5.720117214129151 0.15876947686414594 1.21019306120629 0.6906682431273783
Ni 6.97997945344721 6.190333689526604 1.6387060146707824 -0.9027785975065097 -0.6743268256548773 0.5412997478621581
Ni 4.154123081960508 2.1148092855749687 3.509614848612774 0.7547979837277516 -0.21996558875749214 0.29472555537820205
Ni 6.3722361338471964 9.38598827253861 3.7045877389758552 -0.26635523176562514 0.1779319087252097 0.9169895988995691
Ni 6.434939074500357 2.342574081671864 7.051320374918669 -0.3251656170356142 1.1188065417724924 -0.027131051888837146
Ni 0.6635293913233874 4.756354767687181 7.664535496416129 -0.03563754669795153 0.8202664977442067 -0.45873005538904227
Ni 4.824615658464717 0.9781992218900343 5.751611338508924 1.113708558424295 0.09736073473936134 -0.2745233693987143
Ni 2.7500551950404315 6.41019693319668 10.964141346929345 0.14543625009034952 0.42221319140993085 1.8061295225767218
Ni 8.6266981795473 1.4256049436520302 5.284318344876893 -0.2465608227475173 0.4575967131155474 0.26940070346016826
Ni 8.303123586556383 7.73023787748641 2.7948661679182067 -0.6865735042327143 0.7923697713339386 -0.1423568398340774
Ni 6.226821632093127 5.2702891524379485 5.27218441343036 0.750861624787823 -0.48601331658502744 -0.9572641301488997
Ni 3.5986430200300363 3.6166970946840484 11.458469136291358 -0.18391486578152197 -1.5172064328129096 -0.8469072402601867
Ni 3.9705069363515664 5.159750787714334 12.97499288072796 0.8131319435819545 0.6410572649684702 0.40475360117258674
Ni 2.944889136650404 5.588472533808222 5.760722671412816 -0.6837092953110419 1.1628672795371329 1.561285168299679
Ni 6.365279432941521 0.6520160976407443 12.11429613506738 0.24210510096900886 -0.43381503731491744 0.4058892574389268
Ni 0.6473112928604606 7.9727590311635215 11.58189824000344 1.0974332183030389 -0.8718343425191695 1.2062505316187744
Ni 8.430808227413696 1.5216185320506115 7.65244232327051 1.3505092164612547 -1.2681428982481966 0.23047137338482243
Ni 6.529229698360381 3.400353886092744 10.946327190455703 -0.2731077199981103 -0.8797769944050139 0.4542493939098693
Ni 2.5607143608033835 0.7939513226169551 5.907416428020513 -1.5616816324071492 0.4460843416005737 -1.0869294905582378
Ni 0.5826204587128164 5.6694148141195395 5.102346426179745 0.5373765015483519 -0.4039750711353495 0.18389763939034137
Ni 6.912089092677967 7.575875076032096 7.778799540373117 0.5237779369283108 2.2179605994213802 0.3795675888252624
P 8.030960032215937 3.24021081650908 1.8567814510508505 -1.4992997277358178 0.3843850648185638 0.27134805699452624
P 1.284590485746424 2.0625923441564638 4.229447201021102 -0.6981041305801332 -0.24981018292275045 -0.5028604700493534
P 2.8017626576975356 8.385798094656463 11.851954404921727 0.38196977050885184 1.04667732790641 -0.39408635126672775
P 8.524311475006101 6.143193009221695 11.64237892693187 -0.19731854078193758 -0.306768088365033 0.5215176801392244
P 4.796835171093049 6.357470513016773 3.9442882329648468 0.0431996753159256 -0.31313079735826715 0.9486596763093402
P 1.672665089930715 2.9454727214134633 12.52955467330999 0.8023903887947342 -2.117521225756695 -0.6894431124710255
P 9.001906129193662 6.7673785979396515 7.982056555396581 0.3162541734785973 0.8498238996863494 0.27926936872413194
P 0.610578800488465 8.721155541911056 1.7452148655542254 0.9775421636716455 0.5007729913927053 -0.023437919307966088
Ni 5.287120478064598 7.477471569080034 11.133585646046152 -0.2797005427242796 0.10759629642444049 1.9339002370665082
Ni 2.531544385900621 0.980413138689577 9.965982599817659 -0.15989047784246657 -0.4062201584157843 1.0186589883166133
Ni 0.5933000598768033 9.16186393377318 3.9672416406534956 1.4957518624835595 -0.118018520199029 0.01194277418417298
Ni 4.154790035975433 2.5144536892681675 8.186113915237954 -0.6373003690291992 -0.9045030363967841 0.7802729880704046
Ni 4.097404200941259 7.591076069622262 2.469535262687988 0.5187393460631389 -0.3718676490778434 -3.154221644956052
Ni 9.068268053678702 3.8199235409818275 11.714655436674267 -0.047793979554827365 -0.9945155583011904 -0.03060615492163116
Ni 8.441516544653325 7.451034252988422 5.762240918121792 -0.45965616674773735 1.1343285486674917 0.44485689695137576
Ni 7.1463474271701735 1.4114043810842516 9.608520258593405 1.5474822009783156 0.36987864367227263 -0.0841545204617325
Ni 4.36059166583084 5.087747543853053 1.8584766258387848 -1.4209163054299077 0.8598344898448159 0.410608517291467
Ni 3.560580324928274 2.705202537536724 0.5842165167235328 0.22148176829170244 0.6270144137221588 0.25048715438511704
Ni 5.797525564486387 7.557468997870207 5.654456517684804 -0.6315259284392671 0.6801166928637771 -0.9330978173153414
Ni 9.124357033683856 5.404106064932489 2.3251323078565544 -0.4151421434957625 -0.04655830737551337 -0.20884891001904032
Ni 3.917308090411088 4.433150704704557 4.169603825706934 0.6887913378196395 -1.2588427038931933 -0.10654394390052618
Ni 6.389243461227785 5.331296918303175 12.047401573695423 -0.2174975868329738 1.2178534059650252 0.5672702037839907
Ni 2.7327236539025885 7.087340523349724 0.12017770288932338 0.05572300459391694 -0.18099820635535924 0.6431719973186277
Ni 7.152831702315279 6.334191965245849 9.830419564659044 0.2062412971928642 -0.6261723774368377 0.6687699003923901
Ni 3.994582123640318 7.807076537955897 9.184977595690416 0.40126924216841214 0.9341951641445781 -0.5713428311914677
Ni 3.4647983177848745 7.866935660795418 6.617501062235708 -0.06351678960672287 0.11519159227319516 0.25454615494583904
Ni 1.2763554563121415 7.825806829875042 9.186007669113467 -0.13181608820375362 1.9004707537634689 0.4285689584246297
Ni 2.0850186729083178 1.7824901843883687 2.279104143901541 -1.053227213209786 -0.6443796444734837 -0.27508746943230045
Ni 1.652109937720734 1.9158809873733733 7.940936061401391 -1.1595454142527515 1.129454508404642 -0.8226141720407768
Ni 1.553706430768671 4.245616204257931 3.364682962194504 1.8772956011985864 -1.4554181958615193 0.22767041360091758
Ni 4.378627213984436 8.794029531291823 13.460928165402166 0.7396598425347325 -0.6004274072622497 0.2941516851526031
Ni 8.250591694630831 4.839316436543689 13.593495465443741 -0.29248303920092855 0.4105714934059445 0.6533805624205135
P 5.40273510390181 2.6076049333526954 12.685874799533106 -0.5686539715053949 -1.1015279571977028 -0.6586189280013174
P 2.661202099052087 4.029013624660823 7.694768892442689 1.1897394213376284 0.34755992557041426 0.02490859031622162
P 2.8774804648919403 0.26665562576719015 7.970451555536886 1.7850428771097513 -1.4367121348115837 0.5049546335742207
P 0.20912806300484474 1.333852450348803 9.562166954556115 -0.2081302866854609 0.2338032659715328 0.7472546241628549
P 8.573277015601846 3.447707621152421 6.785549389546276 -0.7971725920392206 -0.6055855544244215 -1.4034078642324992
P 1.991821112572753 5.53857140494154 1.6234670417547663 0.12912748562799697 -1.1040581798187243 -1.898149304719144
P 5.11525939696871 6.498031071662222 7.529175326437055 -1.1709459427802091 -0.011819361232431257 -0.025735971313523415
P 8.091412003068726 -0.032463986676475515 0.1259459287934041 -0.16716978511269917 0.892971895828733 0.06720555131221974
Ni 8.4305581196581 3.604497394161045 9.61441817000039 -0.23767406178084877 -0.5010830664339564 -2.736499399437939
Ni 8.406149455361884 1.0381602404818353 2.5810610898837 -0.5903054883368994 1.0266155241595287 -1.311895874964431
Ni 0.704302513435804 3.191634332422041 0.8920815636879027 0.8896562011919388 0.7619420509717006 0.29217476393189035
Ni 5.063292563305802 1.5385610166797485 10.308721931162442 -2.3493321438885473 0.16540060902741838 0.8598877116802545
Ni 5.9824200386239355 1.789798888801922 1.4306765731405224 -0.5582163211118386 -1.0526484578881807 0.665772251216647
Ni 8.565273567422746 3.597457324003503 4.009243069743399 -0.38069707444401535 -0.08439311883509983 0.3511394153915566
Ni 0.5958224429082489 5.657520800853376 9.97265306629193 -1.5293464106095531 0.5130137564332714 1.3136568235195958
Ni 0.33367801999200986 6.997848263097076 0.3111599850631038 -0.43211579523562355 -0.14818501648008026 0.5276428192003558
Ni 3.3286655927385116 1.2423871178020016 12.324060583361469 -0.06661651157796915 0.7015938889009465 -1.192169885155992
Ni 6.112309333030584 8.444601206972354 1.543992060276284 1.0653108838471976 0.7692522114798687 -0.5661741425063346
Ni 3.659845314149615 8.891497449972949 4.132875964960042 -0.6711306873150829 0.6976981533909662 0.8672132988073903
Ni 5.375112091783665 0.43966998151388637 8.121999255253202 -0.5003503020329899 -0.6677548288643145 -1.0872372516066438
Ni 1.9544809509871592 6.918351049818096 3.2193981459433365 -0.749180123320342 0.6623359718415882 0.33685719444092954
Ni 1.3772878305707952 0.4435966732767574 13.4702960903368 0.03685007894881395 -0.2598943066316298 0.6671729882189155
Ni 4.730056400348681 5.382272584193902 10.1220044493841 0.2174374230189997 -0.2762820039610339 -0.6613023883707515
Ni 7.448088539422503 5.272160328979822 7.546868134332982 -0.3982474246229529 -1.422640487209866 -0.156208401005189
Ni 7.2442044023600065 7.395464014994878 13.048164220440379 -0.15949658483815757 -0.012953989057506724 -0.5967497013003464
Ni 1.6636982637300564 3.5771430162989115 9.653979658985692 0.7436679352528612 -0.2387593244252275 1.030175216486329
Ni 2.544651884943939 6.1069644376609755 8.824953039458826 1.357995497535971 -3.260622378410494 -3.244947905098031
Ni 5.946404521817985 4.00843068270022 0.615655061602061 1.1462543535708 0.4342004456787941 -0.26125442020395007
Ni 8.385714725404599 8.53020290213794 10.09282891653121 -0.8663157266937854 0.33147047620771947 -1.3122090353294757
Ni 0.7192033777192538 8.843180336891713 7.118499318071992 0.08720076348722401 -0.10018483445171777 -0.6724293515218484
Ni 4.95028091077684 4.377645309462464 7.025804752222683 -0.6007012297489267 0.41121838296132407 -0.09034059466778635
Ni 1.611888905320672 5.017522844031572 12.618343852871906 -0.20526299243999485 1.3936968075923224 0.9744979775286831
P 6.949299568760659 0.13151314216798657 6.020948675211125 0.03531101659646822 0.27708984457430985 0.34067245442196165
P 3.862830915942004 0.6603113382013742 1.800639670519516 1.5226232329531066 -0.48115701693399066 0.051955310021368585
P 5.60537796543653 2.974262903057727 5.145134305212247 -0.98736429196839 1.0394214176749452 -1.2236640991095311
P 5.916021061138066 3.918688314691975 8.973979282468719 0.5658108456296449 -0.6058668331102662 -0.35780165790308055
P 1.6609192886678685 7.800712685063488 5.189739633935421 0.7389291350162952 -0.9921036064255881 1.8238547077706266
P 6.228581649632513 8.732067650655246 9.777598659327024 -0.2532796295285896 -0.4074401468658144 0.5248883963836702
P 5.230031067037058 6.59799080464911 0.41371991238317857 0.14621683701011592 0.6898529463149345 -0.4576046835353474
P 7.936465616851351 6.1128280750421915 4.121988866991412 -0.5408732018477007 -1.5530604663970413 -0.12595551565791857
