# total energy = -381162.7786159633 ev
CRYSTAL
PRIMVEC
9.29342042502075 0.00000000000000 0.00000000000000

0.00000000000000 9.29342042502075 0.00000000000000

0.00000000000000 0.00000000000000 13.60186018535988

PRIMCOORD
 96 1
Ni 4.648122693604422 4.301729042956783 6.646752628333855 0.2995759414919679 -1.2322582685364454 -0.8538749298272714
Ni 1.9603540543453122 1.6409206156615297 5.919937469022151 0.771966010866606 2.0553522084271183 -0.7338566055893941
Ni 7.033158170256635 1.1830059227642291 5.078812312062523 -0.6861790970077731 -1.1961751496606432 -0.16900760965238637
Ni 3.215458330923948 5.370165681649858 3.914479658480981 2.6055263759607707 -0.18755580496821891 -0.8630655951876038
Ni 1.4671522449961811 7.811816674084151 1.0048222481678128 0.32908577802562683 0.22486405450037403 2.704906455123006
Ni 2.218897003960779 8.771501709743431 5.518546287047072 0.41758957659499046 -1.0781681994258399 -0.06071094472681157
Ni 6.973615227115502 4.356699623365679 13.148890345130459 0.10592687914181757 0.7259900583571239 -0.5758278635460147
Ni 1.2684124542870956 5.538134958118225 4.729352762095038 -1.5478382987661536 2.0197105479641086 -0.012001652446566428
Ni 7.142346564039242 6.378130035183056 2.722833642968459 0.10972722672451425 0.5761885893195431 -0.049696081673546666
Ni 3.432032194972792 6.72578759097619 10.182488240494608 0.15257337535576304 1.3503924883777323 -1.5420219491946925
Ni 5.48536691829376 1.7736027756780652 8.007673645851083 -0.3600809408555605 0.5198809158667498 -2.1150869052835897
Ni 3.015333820606929 9.051967837581143 10.782793000136277 1.427607087186522 -1.6242229454744803 2.2214146194082516
Ni 1.443398262997003 0.8059049531331465 3.299906710825486 -1.6554191685716262 -1.9880741520057503 1.4861593336991177
Ni 6.881768355402718 8.746799798885132 2.819339306221223 0.46302714010249935 1.4861297660127633 1.0609420653555406
Ni 7.232204643831906 3.3718758860992866 5.473279895997933 1.3414805306000832 0.8482868942165326 0.9567941324910167
Ni 3.9687736779002285 2.296617876988606 10.443317371476192 0.8210774236812762 1.0517706832689175 0.0013374878645009223
Ni 8.867865183667327 -0.0777980084153831 1.7410377019991452 -0.09600422071146691 0.5557043533232623 -0.8256485879917265
Ni 3.4374409655219007 6.612565852832222 6.019802703672685 -0.6289178013924588 -0.21923539545968695 -0.7251014851045835
Ni 3.1313342913869526 4.316486994214488 0.4990845443278008 0.8720369454482787 0.9438280592486521 1.62068382197297
Ni 1.1348752996133125 6.650640995340293 10.550908226328573 0.44748842103695197 -0.3808662530320279 -0.4696662426855717
Ni 6.500459325110748 4.868088656021692 8.714399218743528 -0.5864061532824933 -1.37551319470476 1.4717187327937555
Ni 4.0330748521773465 3.2881700504707276 3.748060524499885 -0.2540267921072593 0.5546687129698964 0.5500682380834075
Ni 6.013651388850597 1.9323065122195222 3.175136968756564 1.063020545151124 0.23252388503847696 1.760030157115498
Ni 1.5031828350630094 4.904184300029833 2.0749502893350087 -0.24773041757558623 1.1272793551301938 0.1517359670561322
P 3.1432205758067298 6.425944682047599 1.7397728675116304 0.26759424637904883 -0.3543509803503188 -0.4853319742472867
Ni 5.952937474765844 8.271515703657446 7.227701981751077 -1.5222475947812428 0.5117410603684348 0.9087430426200607
P 0.3963206919207933 8.008437564990494 8.958905386507839 0.3194343709787918 0.07630597095159115 -0.5205877121257874
Ni 3.356876305916707 5.536434262223918 12.029253466598545 -0.41313976835375293 0.2853837091519859 0.4435368925883716
P 6.1539448600006725 3.6574533950401094 11.009195585375391 0.2631002151634372 1.1348561390361875 1.4096232490145917
P 0.3196100136673444 4.852912500855551 11.517021520731529 0.5135238633004704 -0.006875644073910739 -0.40904477234877296
P 8.65608672443522 8.031364432592987 13.12280278532221 -0.3685900067678362 -0.29366291844164266 1.3050073753747136
Ni -0.20732598162029076 0.4272436182525871 5.380065962175573 2.217480574461168 -1.004917984581437 -1.157717617015393
Ni 0.786027256694163 2.4009736922737277 1.8582992898986086 0.608117833927972 0.18933397991456424 -1.5312909359304336
Ni 8.76378817098783 2.2100032008413684 3.866613897805407 -0.27111228683463634 -0.1480639175211837 -0.24706270208460032
Ni 5.248654212698665 5.341950857960695 2.10880528973595 -4.024625168565966 1.760914102382348 -0.6152824699972114
Ni 8.207902242474201 6.384189345145288 9.581612864853428 -0.8650857109414263 1.86254646791387 1.2672746367106305
Ni 3.638327536294292 1.0619777116627833 3.724787941666418 0.6036322873527927 -0.9237927378643316 0.23278485200934748
Ni 1.9265167114427273 5.321440279606944 8.48564261017093 0.9037347907721919 0.5991757942433358 -1.064450335619115
Ni 4.856899378115976 7.898868140980199 2.466833373116285 0.02899818700456296 -1.058895724349473 -1.7881289722342433
Ni 7.490450204001374 8.931906142179196 9.455795754329378 -1.3790106663350572 0.18076732129147577 -1.6470887943290602
Ni 7.0785565278724345 6.80489318361195 11.957041733057851 1.0142426044164725 0.9466094786485311 0.5470536196267998
Ni 4.870700107094372 3.254983246981266 12.69607123452195 -0.3895802358662581 -0.0753826878063734 0.1462911418914771
Ni 2.907827535878255 7.617119521156616 3.5570770222792634 -1.6900164469305217 1.027695644597585 0.1852343559238939
Ni 8.98839155007865 8.483368510251054 10.999062040002972 -0.020345653535887537 -0.4959660569223652 1.2636115860367463
Ni 3.623727573179774 7.5315085343896255 13.304169456332833 -0.7611133844228183 0.412356096110193 0.044876291687400136
Ni 5.099113788462055 2.2165829423340986 5.466846061202147 -0.9702448586792839 0.1714784397903821 0.43996665873860996
Ni 2.8363704280567834 7.83615614155514 8.117331357353157 1.3563083396415352 1.9141891317908257 1.186047574308338
Ni 4.619350264704008 2.820227757191145 1.6202539078486298 -1.52245431147541 -0.24622786488813078 -1.763757485368414
Ni 2.978819972690352 2.8672338764993777 7.9515516106809585 0.6050240254939967 -0.006363480324182589 0.47493263329083363
Ni 5.136575565237754 5.82885172842272 -0.21361762708720922 1.2199372850772474 -0.2502526697768077 0.812599211006936
Ni 1.3199909363275644 3.592287932685557 9.770692145277636 -0.487576033086457 -0.8941859707414922 1.6656657860002992
Ni 4.978875518076545 9.326597697541127 9.385296798129234 -0.5578057159369813 0.05327685704626954 0.853702151694833
Ni 0.6694831208331722 4.011876560729723 0.020825625298105672 -1.6810787781212593 0.186432232886737 0.6780379559578774
Ni 0.2212261501946924 2.5340740561987 7.846409572047977 0.8494338633367823 0.402750454699629 -0.16326119408691236
Ni 5.850468223778779 7.211814879940593 9.488222356047505 0.9929780386107415 0.5984689979842983 -1.0799047225009724
Ni 4.472895255969639 6.06738594437456 7.947865840234607 -0.1633812646045444 0.38026358645102254 1.8732800522812898
P 7.401939670135893 3.169669649660274 7.591497561699756 -0.37252585148713263 -0.37335811758044085 1.0454550254635349
Ni 2.9409121117456545 1.5839519499123274 12.865319285608113 0.8899739895426738 -1.0825408745722387 1.5133073548688196
P 0.15307378259188634 3.8300693816022116 5.250249892944853 -0.4396108180610881 -0.6935586773012958 0.27812574203799195
Ni 6.7403875540907086 3.9512648742670318 1.698246148745931 1.799725675932907 -1.6904563626814177 0.33919252744232553
P 0.3678168428637984 7.563050402505904 5.012271423520224 -0.16450560801697475 0.7058974013723069 3.4603071054317636
P 3.9593687366705073 0.7205857797600423 6.445812155724376 -0.07886884658276094 -0.39651990040888485 0.5845212775549546
P 5.101688065853985 7.825478001759735 11.597897509913 -0.38599123296341914 0.3491444964487148 -0.00297476635760778
Ni 5.358009888044646 5.687452340270335 10.957223062318972 0.377593238707711 -3.0721623164604512 -0.06035998914529604
Ni 8.618281091112584 4.403194604563601 3.003535823678934 0.6442091803338905 -0.09913479592064861 -0.7066633330040539
Ni 1.6907798149673163 3.252009352521275 3.781167404575734 0.20906359713300768 -0.26386923211897784 0.29746326602433937
Ni 0.3142402754830232 0.8745359318756073 13.202468771195273 -1.0302248387773418 0.5967085636497659 0.6667292158132776
Ni 8.164762185963957 2.225476745453509 0.6003372866123254 -2.2453963270348294 0.6256249895738 0.5881902417661096
Ni 7.00093788246667 1.1303401105618263 12.1054241971391 0.021650745500556262 -0.45449262026892695 0.7449308611256849
Ni 1.2960232056640744 6.364682456171784 12.895528477269508 -0.6569294561140364 -2.6245314563083637 0.302793162877685
Ni 8.895513108725057 4.823749748307264 8.307920818557829 0.4058159809988301 -1.101538498720664 -1.4023621965768043
Ni 2.254778899304608 1.1475050576480867 9.459209227564235 -2.4247947930032367 1.1402461997035072 -1.7417827808695359
Ni 2.383334780757906 3.973150878808528 5.945808492140035 0.20823801590791877 0.37207925086801724 0.7431151480731848
Ni 4.505041196398104 0.1646989219043949 0.4834362834161357 -0.09347734052455514 1.1867628552078078 0.48529854990619004
Ni 1.5134892380509157 8.50103530202744 12.515492645543222 1.7597529921947113 0.6497000282451326 -2.0882011366363393
Ni 8.189584911284694 5.768946341894276 4.791921642849211 -0.3465044877227065 0.5344423586206924 1.0747401475808975
Ni 1.2020574341485464 6.920075833415477 7.076218303353267 -2.0826434400429035 -0.45159061613078355 -1.9889624681479747
Ni 8.873673571284497 1.3271004027709803 10.29834930997182 1.0372881733820263 1.5586976100781607 -0.600661891870559
Ni 6.52614633850892 8.009766524077301 0.5247845685142355 0.5057375344868322 -0.13934427825999873 -0.2040651154771518
Ni 4.969359055804573 8.499390366654255 4.688928242963572 -0.4161608145682639 2.822280913980133 0.7668829399167437
Ni 2.3336428630154944 3.690537970907509 12.198909498830936 -1.1986596066453938 -1.7999118238017837 -3.0805088886529335
Ni 7.936776001924898 0.8658447253162836 7.265270632858932 -1.9994039751962729 1.3211150795698536 1.465953033954572
Ni 8.337322412004934 3.1747252702422593 11.883958276703574 0.5105943483585013 -0.9695827996152527 -1.217265394672039
Ni 8.433323442541518 6.057051661126091 0.6494585883552266 0.20311200753526312 0.28751721055522095 0.2130158969125364
Ni 8.301013019332482 7.922417667735253 7.187671503635561 1.1456195482002787 -1.8466040856520003 2.095211249405585
Ni 9.473991341714429 7.345500729337377 3.099605625524905 -0.40215910097253316 -0.860538457890376 -2.704652944351303
Ni 6.007164581559742 4.536899040800758 4.087100291753177 -0.518221782996772 1.3414651039811154 0.20634414131931558
Ni 7.270632936307102 8.248653889996266 5.3645738307230575 -0.5423590423646079 -1.5611118759466083 -2.93782037651105
P 1.3374811531203863 1.6634478661959615 11.574679758258641 0.21149946026800998 0.46874373087130244 -2.634987104424049
Ni 0.9485886919554393 0.33000098677895673 7.451003352673631 0.1392478618914505 -1.4211947559022748 1.7967737923934344
P 5.26282667848456 6.554714312165209 4.88846726780878 1.2426398688810858 -2.907788091815018 0.1517040853769323
Ni 6.55577376206658 5.8442323388329855 6.67042018152529 0.4764863509311988 0.9086168014548416 -1.3566107013733022
P 2.719970340208699 1.0665500743950196 1.6921394423407434 0.959869943202863 0.3635426741519158 -1.45666338112253
P 6.146630938313132 1.3513469360400945 1.2391065830679218 1.750059419056031 -1.1097210345314568 -1.8641120126287765
P 3.6201124327268475 4.55685201394326 9.488766021128471 0.4039434465664656 -0.8959461479657086 0.059683017682929475
Ni 6.6004751131683195 2.04193169675094 9.959744474783303 0.6550780047275945 -1.3431964848499256 -1.086665952484206
