# total energy = -340893.0628390938 ev
CRYSTAL
PRIMVEC
9.10695408023966 0.00000000000000 0.00000000000000
0.00000000000000 9.10695408023966 0.00000000000000
0.00000000000000 0.00000000000000 13.32894784145985
PRIMCOORD
 96 1
Ni 6.464826301950886 1.9539880533649192 11.385893668990713 -0.42492930478951335 -0.05744410105008171 0.8839049005304584
Ni 4.399696981792224 0.4230498883155634 5.924583575898902 0.43569194262265615 -0.9585648512381942 0.4555130911136413
Ni 2.464232472892929 1.5139673562432152 4.864239973988945 0.8701253302478629 1.6831282044511207 0.2536059025197568
Ni 3.3931873171485614 4.423110960563669 4.915449287108242 -0.07848986597678739 -0.3431155166458156 0.5549425354565732
Ni 5.188523124625756 4.665046300914585 2.9102154928079678 0.45475641545327483 -0.23409585751128714 -0.9086805648132416
Ni 7.422058238421742 6.323522803460906 2.621697171977154 -0.37336763066213763 -1.011372481957529 -0.3329462894222976
Ni 5.370079359860109 4.4993088448035286 11.782096256871341 -0.021647403066446587 -1.0854873587950724 -1.8834631634618788
Ni 5.959226428970305 7.8945087987893094 12.390403446532776 -1.6675915422681025 -0.12098583035746906 0.8060593530058892
Ni 1.8165276894690856 6.470609217750134 0.3488919617749661 0.7648697661414569 0.31587802108610114 0.43918658603947586
Ni 2.672390120803825 1.5549031145386818 0.12176270726092925 0.1311252327843161 0.22846899824281297 1.2846920608561294
Ni 0.5836674148796313 0.2749389416996967 4.474634463596468 -0.8074732026342804 -1.1116815006919372 0.294419336991693
Ni 8.572694557299899 2.415947402707709 1.1281658205426215 -0.12230197806573131 -0.4807890920716107 1.2354667481714143
Ni 6.799843819284664 0.7832781864478592 4.855655759134817 0.15571654897043502 0.6068654495781096 -0.5642283316338734
Ni 0.5014370843005242 7.594498412687516 2.3448821977504575 1.4918944364106823 -0.998557589581048 0.9235284284593513
Ni 7.706832690457167 4.11989492664875 3.732812042518307 0.31507069469345733 -0.4851694805274934 0.9899899025166952
Ni 7.675750656405459 3.8491360768417384 12.673643376816749 0.2157122127977769 0.36737721740665763 -0.41222831228307716
Ni 8.374417954494804 -0.09018070143382168 6.7082460758061755 -0.4833838493819804 -0.15610041467241503 0.42060265238970146
Ni 6.79237611699272 0.6398145184656246 0.4341439796961056 0.0012474992538559161 -0.1435439181636431 0.048645014701213005
Ni 2.0293025630653663 6.441157328467034 9.466245207128512 -0.5365519487645275 0.13128027030494166 -0.7076128414015168
Ni 9.343370540782404 4.887538294444405 1.5015727918293933 -0.5537248609993882 -0.42533296798583525 0.07937689656743104
Ni 6.196462581049705 2.1071396990278473 6.889706688023377 1.1308956117265425 0.06760484363316745 0.9777895037957612
Ni 3.577411889909183 4.2242788335636865 0.6511645152539761 -0.11523093015156285 0.13014667092113072 -0.4937590219687174
Ni 6.101222055965391 5.891461584147931 4.8433267647899 0.1177909775692552 -0.12612366580466663 0.420555858312166
Ni 5.082800495470679 2.8045593444171972 9.39717442510045 0.28740793867086634 -0.43720735082591805 -0.41516014121789147
P 0.3098841456443828 5.4220891742372865 12.49806130341595 -0.5733485487675868 0.3515690467298074 0.41390981375055813
P 4.266243677662798 6.085658271554501 12.679281492047165 -1.7691130932533725 0.567580793045874 0.4335039338324018
P 2.3409152085817135 8.353490174169336 1.3428249229245155 0.8217016875288364 0.8309460889452398 -0.23387397130846818
P 6.4522040636867 8.01600467229761 5.8433304214855575 -0.15022287284571548 -1.012004202004257 0.5208918736297674
P 4.754130525085053 1.1313477902753102 12.666099176111084 -0.7550378676526998 -1.03086915722956 -0.6510858528490657
P 4.02855217788267 6.0052074397898405 8.178722262457438 -0.0019337266876031216 0.4195796104418258 1.7396235684346881
P 4.609940122172456 1.0756314456142058 3.819423728673821 0.454326784115024 -0.07324378708649966 -0.05511082493121477
P 0.2959259172262601 5.834360982476613 3.6657402368964425 0.4768522189110497 -1.1037491332187377 0.23631086288473496
Ni 1.3737475852809686 1.2719136254901104 2.324274982206301 0.002110618585099591 -0.7415007523982133 0.8679452918774085
Ni 2.1840843534969014 6.6197173758305965 4.756848040162999 -2.263533402955172 0.3546669689288408 -0.0044780903760116425
Ni 6.2308504394087 5.67704745882903 9.134141004383993 -1.0367145602667436 -0.6309875394372939 1.0735597541195512
Ni 8.680611962372485 2.3593294695991625 10.351646954504893 0.6316848226146347 -0.3097598240035052 0.31093430392758065
Ni 2.260637408943329 5.2516889576707735 7.0589976775909165 1.2422230930586415 -0.2997967992535224 0.7598160057676333
Ni 0.4266571528007323 -0.022494176415973857 9.29448896510923 0.4161785551800768 0.33421435750144374 -0.5320676877409288
Ni 1.331154361354851 0.9056401312829468 11.451338972625576 -0.3597086451178063 0.8215510208835851 0.40422883901736834
Ni 4.2536123324445985 6.764126345639543 1.4859243127461674 -0.30831229292370127 0.7928053162094604 0.4233082242463226
Ni 5.679214913884495 7.76406078948469 7.976162659179294 0.12856132871188183 0.7038852560382846 0.37799767323498124
Ni 5.232537033378145 3.032606579895902 4.9161823969064145 0.6265922385830757 -0.3720481405197657 -0.22678621122375134
Ni 0.8721310939863574 7.153940405278953 6.853518384855702 -0.7431861105204363 1.0154793050370512 0.060331449900205766
Ni 5.041709918956964 4.399241634091496 7.227461755733933 0.7611972023858762 0.22191731316722427 -0.69094772204101
Ni 8.24764915461207 7.1250167193286975 9.294248541523245 0.31127266110360585 -0.17259738388617374 -0.40665544618099
Ni 4.55194703900771 0.4684325722563417 10.599245909557466 0.19709254081406055 -0.5575385783185236 -0.6462691481867129
Ni 8.23298695864862 7.443869393286622 4.647817765309832 0.19463713729503254 0.11200522412541357 0.43237959041997154
Ni 7.343173802747585 6.2439735601436865 7.048001030618329 0.7941032090852775 -0.30990689110433084 -0.5447116017571845
Ni 2.5578064253925765 5.135274764502598 2.7027636338332 -0.5673272822741714 0.6789224154453597 -0.4330825300242671
Ni 2.4205737353471073 5.139072364326672 11.721516798766459 -0.9409821051594246 0.3526000590974831 0.7365868600363636
Ni 1.0900113260032027 3.525201722543686 3.7847143948381117 -0.3781097733328133 -0.02017056141060397 0.6095170282683438
Ni 3.6313250576754035 2.805233259014275 2.9490967222777487 -0.5606694106380214 -0.17962060928154228 -0.6773087911013368
Ni 1.0978706273177716 3.2778932793241773 8.351052242579637 0.2291022609514377 0.5312333647650915 -0.25899493474581203
Ni 3.6962576397992475 2.490824778615456 7.230034470243047 -0.5019981220490579 -0.009760678931189641 -0.1898284030524795
Ni 4.1752743140113155 6.776921616030005 6.158427387607878 0.5107473289965978 0.5408341210796492 -0.6844544010071825
Ni 0.7583952559938651 7.468922623780689 11.399849165322632 -0.036601967493749867 -0.4979463205771876 0.5740203780236307
P 0.31189040761379133 5.536445195798171 8.222654208623696 -0.34718557295013114 0.02216316636060054 0.15107082266830757
P 8.556775601682439 1.663093728231706 8.054416893635642 0.6399478339543753 -1.223806024004034 -0.08405861831381652
P 1.8026851193669478 3.193890735493836 10.396872088141217 -0.30744891648214145 -0.5779616220595659 0.8725632502653939
P 4.0610002550365625 6.279417825168371 3.9223095416533615 1.4021171704455335 0.3916672003022738 -1.2348008324526412
P 6.867836337957401 3.8270426064024057 10.280057188996402 -0.06693815658344601 0.5308227595902342 1.0081254357751412
P 6.330844794488615 7.692607628286418 10.234139016159567 -0.7569471688602706 -0.0007836722435599407 -0.8015979748004258
P 2.2569035577973575 8.551156611055454 5.844476986995991 0.41636933103464424 0.5676070182981192 0.2886348690994319
P 7.043345555726084 3.969101982075594 1.6750092668643617 -0.5870311884610019 0.6546609717948338 -0.8624683279232372
Ni 5.518695742423786 2.7446629078634075 0.34766980854621166 0.20633617089951561 1.6332552308800774 0.6522577616699798
Ni 1.5160073139424777 1.165717434726276 7.173199791628954 -0.4132932632124818 -0.5705365332400884 -0.675737847069791
Ni 6.914855541534597 0.8833180762978482 9.2903434796418 -0.6972890908780055 -0.7663522642242543 -1.3692273616960484
Ni 2.6323377370477714 1.362281930176632 9.277920683670533 0.6655976733119956 0.1014603587300317 0.3125337872042166
Ni 6.14178442914626 2.0446751014419506 2.636359367940603 1.1875442134585223 0.1958329573753466 0.0611950834520817
Ni 4.066473534399315 7.004713856796302 10.729763131712595 0.975300161715004 -0.37984475374604904 -0.8711522288504803
Ni 8.288794372849871 7.138358406960034 0.3766426720481465 -0.5180214940605078 -0.5399566035707024 -0.7431408591047975
Ni 7.803758002034176 3.6531179986322564 8.360702881748871 -0.8995976286753667 1.0904187346584189 -1.3799743157999071
Ni 3.1581823688027293 8.499684106965136 12.518587467069375 0.39849862140181047 -0.6928187138114777 0.5722769129699629
Ni -0.05428655288081788 4.795120925104606 10.380811064041133 0.5909546918851243 -0.057651074854565235 -0.4219866772214217
Ni 8.6539832288339 2.332300030083936 5.8131672790939195 0.08692488411801805 0.5306129575722732 0.1032120513138158
Ni 3.572412172155187 2.862251898099462 11.56588806161157 0.28160084507078603 -1.077014545437371 0.49861917827449614
Ni 1.0095878151005853 3.1645117018428515 12.718681817895778 0.10340025606522192 0.5592943846673658 -0.7247929527252291
Ni 3.213397830993033 8.113321582897246 7.970297780793914 -0.6252858610668264 1.1845357656495017 0.4391351639762502
Ni 5.787441955393578 8.04822507560114 3.5418346633558864 -1.0124461746376823 0.15703938154691663 -0.060766480555095356
Ni 2.9314920694721947 8.79979466956109 3.4106244020002476 0.5033458943262041 -1.2498482137040667 0.04734969292855717
Ni 3.523489615188948 4.53115586299246 9.90154212720286 1.2017436448873562 0.527979376604168 -2.3899316625774643
Ni 7.452229577071992 6.250330214045853 11.537376920678174 0.19819708673214897 -1.0187836868199358 -0.1384904149001357
Ni 0.4765769212315666 -0.027156936871430785 0.4070407738533608 0.29063673002080914 0.5490467387974286 -0.7986808011536309
Ni 4.628919014338807 0.32969541340766606 1.3912356690751364 -0.9486504203379597 -0.7084386797369219 0.9781849394619668
Ni 6.050514536012297 5.5093884354209 0.34760423847730676 1.5750955918202099 0.7913035348529533 2.0735180807028675
Ni 7.876786666276967 8.859518073988601 11.176242480621427 0.8164772059051035 -0.23841068283655714 0.3650696523194035
Ni 0.12437822445391211 4.774730455065996 6.1067508877476335 -0.6179276209295422 -0.08751726628637832 -0.7838103117997017
Ni 8.086264822519976 9.24228335122074 2.4493007110906486 -1.1443933891026614 0.5374826881089131 0.5640061883207383
P 8.542887496810229 1.956938706465638 3.5801020841250852 -0.6534798070025392 -0.42899421888750633 -0.02080176723669966
P 1.7668947900897098 3.1822247274011795 1.6214266815288698 0.7686192058815602 1.2648577997390216 -1.2258981306463725
P 4.922818634296828 0.8140141562470138 8.196809583825765 -0.8983912670720915 0.3138108541444273 0.4432931520086817
P 8.322781525232225 1.3367278172117645 12.506511646046064 1.6114486765279474 1.9615054003782864 -0.6742018700412389
P 6.426367635147382 7.790234175322547 1.4094960225697393 -0.41669329003296623 0.17049653549308702 -0.30768700063487653
P 1.9150831458147006 3.2815451678840173 6.158867253486781 -0.5716220529947832 -0.6038973680887213 -0.6538194497301449
P 7.014594901902105 4.164036332757344 6.109936500261928 -0.3366175676262977 -0.1804086524004764 -0.44975793379741896
P 2.4424395319360763 8.493454950419174 10.369295320689716 -0.1400924692799329 0.0037016172213033024 -0.847673686112566
