# total energy = -340894.1527144745 ev
CRYSTAL
PRIMVEC
9.06584821321262 0.00000000000000 0.00000000000000

0.00000000000000 9.06584821321262 0.00000000000000

0.00000000000000 0.00000000000000 13.26878525002452

PRIMCOORD
 96 1
Ni 6.449598428018063 2.082597550080869 11.462983393487008 0.006300231186414956 -0.6203367445916672 -0.4372759992803244
Ni 4.480695678435038 0.21469469395979485 6.007322843668553 0.9802032554435763 -0.10656451272581648 -1.1115801992273824
Ni 2.6782509650485613 1.493199570273332 4.9632689574032325 0.1525839168787243 -0.49534102174385664 -0.02088224276564791
Ni 3.5500773094130973 4.403799155205415 5.093157175702627 -0.6227013881691018 -0.019341637751405398 -0.4140409400117837
Ni 4.953398062037468 4.613111455173058 2.3726448533459767 1.2018531738820268 -1.1364975312943524 -0.12471444416196585
Ni 7.2920695563701585 6.135049763790874 2.5890448333255183 0.009345188660325842 -0.020820793400093175 -0.19420082108856232
Ni 5.205410506359217 4.92267390296824 11.47452693781951 -0.47314468815247546 -2.0222939924205687 -0.7459392477855411
Ni 5.495345393108404 7.935663175869595 12.457757142877583 0.013718892247989277 0.3636591451251221 0.212279275856828
Ni 1.8769841161209697 6.403643644211065 0.445625415207014 0.008817855401946104 0.8353455035645162 -0.4845891825439912
Ni 2.722492303572561 1.5224550619571326 0.30216108944047 0.2169532842937296 0.5372255777927845 1.0192711679793156
Ni 0.676722948058504 -0.1804294146390349 4.730666493774082 -0.15294207154909145 0.29112652517303406 -0.09617751306453759
Ni 8.641910871299228 2.301519648990201 1.2538620881217473 0.45643534581759454 -0.2435580313654515 0.21697359600870378
Ni 6.655674220228931 0.9828195221410372 4.667825661373887 0.6564085506135598 -0.7310834137196313 0.8342676971193052
Ni 0.903311128085847 7.213260139200256 2.513240744786907 -0.8462850332951554 0.7030301071268408 0.7335218479577948
Ni 7.601722662645923 3.9702249718221614 3.8466474903560774 -0.4492647962110843 -0.913322434460627 -0.16148199069930252
Ni 7.540854558783191 3.967722797758099 12.59032522586298 1.25714474736548 0.1677256576161692 -0.3436901582023629
Ni 7.756095923380895 8.959152092399702 6.864155181929638 0.4680155944560262 0.0398883515545055 -0.21442820387903072
Ni 6.851396813957337 0.6376010939329682 0.22084405869766963 -0.12564595483729973 -0.03174695339429371 0.29039890297839016
Ni 1.6964558837381003 6.646771557435781 9.334218918754576 1.0320480080290095 -0.3861807232664059 -1.0902456994156642
Ni 9.22722015363252 4.849421850658011 1.3734125198803802 -0.4097968200234491 -0.19643948061109395 0.0388640240550492
Ni 6.38300977403061 1.9682409426747767 7.100657773393424 0.2662091931060641 0.10806526564105905 -0.1973725339483246
Ni 3.268247290827939 4.373374169122107 0.2392676751215368 0.8785004416854355 -1.2530646637588354 1.183828198059516
Ni 6.00682240885574 5.664659171443284 4.581167032955197 -0.23827878524438315 -0.22360627083387297 1.2517873397083086
Ni 5.153000838734783 2.8818517807395407 9.321586566070286 0.8472057453372118 0.5165338537713878 0.5586384962509218
P 0.15237242806852802 5.799785636750705 12.353782744667736 0.17440821184266736 -1.9481999415186315 1.394371979282476
P 3.9679675756556705 6.235653479692682 12.606513204155696 -0.25110216226129656 0.3918309795736477 0.22429584070172986
P 2.467751038985294 8.353254269126248 1.41807451375428 1.524235314635233 0.3924806973425047 1.1255009230735327
P 6.367606898179734 7.667631378029013 5.785044567808076 -0.8110488358006807 0.04844318310305206 -0.4514890575559128
P 4.737902853694135 1.1947427863494415 12.756954606587827 0.07462781191821986 -0.788451667226455 -0.7906928978521479
P 4.105732202748026 6.2380559294281035 8.045766993951586 0.05265619274313512 -0.07828777726831034 0.6716351377553271
P 4.740278105885382 1.097810738911203 3.722743638359898 -0.5241093521258006 -0.265847181780955 0.41269136796242467
P 0.12674962170164691 5.478664232681322 3.7019910055698806 0.5684351706263695 0.4970469486913698 -0.4088961625860506
Ni 1.5445213361307832 1.2266001764259442 2.893364501188645 -0.2888444140070767 -0.8629923187475074 -1.8268207323774859
Ni 1.5390002346633413 6.581914480427443 5.055406984388297 1.9948664923372355 -0.43487973113400585 -1.1083431803473234
Ni 5.981592153709779 5.642393448612353 9.232168293502683 0.592467786095541 0.7690506369920239 0.41370129728417787
Ni 8.666977941180141 2.164172050908522 10.131659073216804 0.20633642800983173 1.2819764616971792 1.021469461182215
Ni 2.438223571859748 5.131433186204333 7.155630356263911 -0.6545118478114793 0.31836453495338074 -0.24063751528454685
Ni 0.5897424820337481 0.05981827865759293 9.29595197410093 0.1825724928210146 -0.2206415317785942 -0.21515685451493913
Ni 1.6182629442361545 1.0902770191748417 11.403817855889605 -0.2999202122052641 0.43653552156987396 0.0884415778728606
Ni 4.365196774173613 6.740503360509476 1.51423415093796 -1.3298195493223872 1.0844656023987775 0.10092711193438102
Ni 5.73681425613847 7.972271070328593 7.90739948796336 0.6289807934199103 -0.610544955312226 0.4422886220035673
Ni 5.380299781249889 3.1068933270881556 4.558384556784949 0.2558311923058498 -0.5187100354871002 0.04153462890867685
Ni 0.5055270996667424 7.486269087624788 6.916261143644123 0.028385493121228532 0.2584580884057355 1.420998837841385
Ni 5.13491447185868 4.417724297822804 7.403053668298601 0.08361536012881082 0.38946093667957443 -0.8905537733055436
Ni 8.192290136852966 7.200051198579463 9.357345897151038 -0.2766530141472074 -0.37528001719350207 -0.6896714264317477
Ni 4.53231661727841 0.2991775188445175 10.468500657819101 0.28973118748740423 0.3162994248942359 0.15492413497612673
Ni 8.266394378880666 7.046566390954194 4.873239646676505 -1.2359372600499294 0.2732267620744778 -0.3269553619461853
Ni 7.341034201732478 6.07393688203057 7.101373975390022 -0.4804941865390112 0.3573691983513523 -0.40943403736739165
Ni 2.337547329173474 5.280557320913609 2.553723382705978 0.09399156115681231 -0.8122292292620269 0.6605351711874237
Ni 2.2531261520555472 5.2472675268439115 11.609802083035085 -0.4881987542721205 -0.404983972015838 -1.6032702544822133
Ni 0.8502623181733096 3.4331550670065356 3.762682325395478 1.0267713330111026 -0.7078213578678971 0.4834237014809803
Ni 3.483198548287781 2.7309416739628 2.9812705903001424 0.11945602397650394 0.45653433328930404 -0.556129613786139
Ni 1.041693139430966 3.463380604432563 8.280093781881407 -0.12713848022242621 -0.1709811884389894 -0.5809438446163414
Ni 4.012997642960733 2.553468632375543 6.773117748898839 -1.332604568266692 -0.5324710938269345 0.4197508459123674
Ni 4.0407754014110475 6.753639774345803 5.813983661394646 -0.04503595719371599 0.8535540561527428 0.4147708761992728
Ni 0.8892019487528756 7.470304129194304 11.382175863405077 0.01967253872826289 1.4005071456459364 0.424876597174707
P 0.26885497684426723 5.679980454661636 8.051498423093978 -0.5282840523287805 -1.0448487593381037 0.2731673695914521
P 8.534380847480957 1.601083162165872 8.012263245867716 -0.19876375786889638 0.6064543301826201 -0.247266076344658
P 1.6620872537494769 3.183055516625066 10.3722757465294 0.9190624222681979 0.6183554524955803 1.2325017520058192
P 4.004439482393796 6.0158157301294715 3.6876343285849202 0.19730645659707957 0.6088629396241126 0.5745687943279331
P 7.0135304406301255 3.9591011762547543 10.355105936891983 -0.6760363521468162 -0.17667823882376668 0.034708864236095066
P 6.152501521302902 7.695953087362818 10.284356965230623 0.47116365316670467 0.32623622439197364 -0.7019044781628299
P 2.273787219780177 8.469532836320678 6.138100421662457 1.150566864903225 0.044913572683238784 -1.3947082795759722
P 7.1051227035620865 4.084672237708835 1.5521556867805906 -0.7723681314010311 -0.4923796251226875 0.2176593092218187
Ni 5.494855837313262 3.026832822886221 0.3523550637994814 -0.6787511799748182 0.6426202385802159 -0.06295911733103995
Ni 1.426973550208206 1.133122217097879 7.190288186805591 0.3215431897916785 0.41524987271822034 -0.5800115626100592
Ni 7.058959405249749 0.5878123629821581 9.271670006661855 -1.6239740626884678 -0.12716239148182615 -0.3725160812951197
Ni 2.856023179621739 1.8112295201548694 9.17666535852079 0.0594935273799427 -0.7989497385443014 -0.2861172448839008
Ni 6.473314686538306 1.8727050358375008 2.2744816637414353 -0.14012795050355867 0.5421037318206922 1.3145199428508394
Ni 4.082233524581181 6.858250595089334 10.348657399168188 -0.49182066729542395 0.3404803930158136 -0.15790969996701193
Ni 8.231019439757583 7.100335935787358 0.5525190164915987 -0.05075537617599646 0.5085359231675758 -0.8349107300199428
Ni 7.658683385995571 3.9131554582958135 8.12916101048452 0.24143841391928741 -0.45361227454650266 0.7167060619520366
Ni 3.099568121857133 8.348630686616568 12.449782822925593 -0.14701233632821778 -0.04804209100989146 0.11607810864320654
Ni 0.032310682479412746 4.874824356917078 10.325675474340658 -0.27768094119108955 -0.48950744578121497 -0.3098197307071632
Ni 8.546429359550302 2.28764890146116 5.788520413953589 0.23730536558752033 0.24426508473480513 0.26754308142613925
Ni 3.7488732256332327 2.7789634711270677 11.43921817938725 -0.33190653530387354 0.15603125199737644 0.19416893940936236
Ni 1.0123379234185255 3.2974121240311574 12.768645017658871 0.01014197353000834 -0.02268998539834802 -0.9976939560291721
Ni 3.4742414904062824 8.416941851735078 7.956281634108351 -2.3654838139477454 -0.4859186999886922 1.655074640748014
Ni 5.680551603089302 7.917685599170191 3.662344238841775 -0.3086318810466491 0.3963165261488271 0.08876579398149874
Ni 3.1519052626971016 8.07006437333236 3.5546147663662246 -0.3822083688822192 0.6720331445246942 0.2785944541442944
Ni 3.3095331628849665 4.5775461332407525 9.398253723344038 0.27540628622429986 -0.48845380770572006 0.3565279333969795
Ni 7.222271592170102 6.296077357000562 11.559990687464127 0.8462456954167878 -0.5867365400387186 -0.9358198442321949
Ni 0.7855965305589988 -0.08477837153141984 0.49851738594814476 -1.6023359155934018 0.4260695890415437 -1.0194573158481925
Ni 4.564092414722389 0.22474690628672325 1.6875640999626211 -0.37865613275458654 0.2923097468478579 -0.6299449571053924
Ni 6.10561295514591 5.7346112550603285 0.2210779575775711 -0.21044453664093435 -0.3400710733925369 1.8784569684965389
Ni 7.860307846809865 8.65818406856369 11.295770172147211 0.19642482532307462 0.5703449860545726 0.8797448556154978
Ni 0.12095654479245928 4.76311497714398 5.956875025563912 -0.10899189122038648 -0.573308953778903 0.05649639242483174
Ni 8.05961145052126 8.836772209462106 2.271417407097765 0.2225397772425716 0.4302931402045879 1.1229629871430273
P 8.584678172507832 1.3949801724108302 3.7278649359279736 -0.1973203405541505 1.0920894374926224 -0.762052608407636
P 1.7842586221817347 3.264503095579904 1.6904171223465356 0.009805159015879887 -0.7481748219842792 -1.040092732710357
P 4.850391896400239 1.012736820733086 8.35319080818984 0.41384193662710017 0.3816278137884008 -1.0784019127032007
P 8.655962935789432 1.2878037166668297 12.396840083435334 0.03764300716375452 1.3200881809672362 0.3225418062595219
P 6.262579048425525 7.857252656014253 1.4811011960396687 0.9211686699779232 -0.4233082242463226 -0.7110622334026979
P 1.8744910079049655 3.2267710359616895 5.981183283962355 -0.4428846037163534 -0.07546316333532165 0.5839546064182073
P 6.790800685536351 3.9754922295439736 6.04813819821136 0.5404029470795016 0.09369022786630961 -0.6559902321292186
P 2.4919296557565045 8.497655096997203 10.18034267728932 -0.06236802071426033 0.6906494740743009 0.09354058966232279
