# total energy = -340894.1782983455 ev
CRYSTAL
PRIMVEC
9.03064634149700 0.00000000000000 0.00000000000000

0.00000000000000 9.03064634149700 0.00000000000000

0.00000000000000 0.00000000000000 13.21726375250874

PRIMCOORD
 96 1
Ni 6.37320692534193 1.9386358970824977 11.374261354811985 -0.9571170630480741 0.48718008319961903 0.4128168377966955
Ni 4.879185859919491 0.49664399628463196 6.021758560631283 -1.0513153408990539 -1.0851837115117244 -0.20882139921521456
Ni 2.702068659784655 1.5873347319038016 4.7226206448653905 0.3611667177205715 -0.01999932594006233 0.6076763755151792
Ni 3.373280464187415 4.200081270797413 4.782918269088371 -0.3591172913907105 0.4344426435965873 0.4128314930847148
Ni 5.085165867542967 4.713527687275137 2.7236943480768177 -0.15472564581207546 -1.1923429203987466 -0.8574297370580651
Ni 7.131889568178686 6.107579500016972 2.5788734883173086 0.6534183576369843 -1.0613925226293979 -0.025810276194884584
Ni 4.922262041968857 4.496945701092759 11.600263207974592 0.7401228982140803 0.9224894456718759 -0.7673891901292009
Ni 5.592453383358707 8.006923055779389 12.459108359319174 0.046013747725953014 -0.8508651964666701 -0.09241470358799568
Ni 1.8309364113129514 6.465653649794627 0.3526431191939028 0.06197952702659003 -0.17115345235079554 0.16750428563398248
Ni 2.806535174238966 1.5807333295813515 0.32158040569386015 -0.3784481305088386 -1.0633668727469492 0.06903643387337141
Ni 0.6558010067786002 -0.044295319277178086 4.5477692744587195 -0.11431741719835795 -0.5135292626171091 0.4939189445853494
Ni 8.660263211487035 2.2345159869494626 1.2860227083884732 -0.32111073023995024 -0.42193988314388625 0.5969705590619009
Ni 7.096977090232596 0.7176103611640676 4.9484247268777075 -0.5853802831211402 -0.480749754193243 -0.6185976504133733
Ni 1.1698660225163624 7.53227229508449 2.568748327874174 -0.47443152528469906 -0.6671889290585155 0.2197169630817958
Ni 7.535026642154732 3.945362865999842 3.929757006419232 0.9880266081427372 -0.03360740364180018 -0.810801752786881
Ni 7.5767211353459105 3.7787564755116345 12.783882904549904 0.7805961757377783 -0.3913314142294099 -1.2681696377210738
Ni 8.174983380294838 8.667162625131839 6.966938495126463 -0.9194941104889777 1.3147276879862713 0.4954310103545016
Ni 6.842078072512386 0.7451773115464354 0.2948957494385832 -0.20237127271449662 -0.18397451537486378 0.8124590858846459
Ni 1.8622005082217363 6.460912560575356 9.105094778654259 -1.206478331358864 -0.4419572068060776 -0.01609536289996583
Ni 9.136485304608891 4.707928686673333 1.419785541959419 -0.06697003826264596 0.2083917678769637 0.6685886376195195
Ni 6.116005092858075 2.1276382899779227 7.205364711237396 1.8910751714811818 -0.37577649721394635 -1.0065609195014988
Ni 3.3636628260568964 4.347064067240909 0.3504875039622082 -0.4939217727988267 0.17326484226684352 1.078018304111537
Ni 5.983958985116812 5.6004184132470805 4.803748357456309 -0.4592620166331122 0.6166407837973187 0.5565458753879512
Ni 5.319411797559425 2.9338131008225643 9.186130378654633 -0.32843914558056336 0.8455651244099953 1.3587822551033244
P 0.20083705465133578 5.507375666149677 12.449261342776905 0.12908249132267446 -0.2751923704412809 -0.44715314918472016
P 3.9623585420201577 6.237241517179404 12.636378136759982 0.24187215902259634 -0.022344686243787323 -0.4092936551347855
P 2.45118827959316 8.362369287532646 1.1194849508108684 0.15814675567848246 2.0977347871583873 0.3408226068465808
P 6.487002097250538 7.704712482973932 5.931432231890368 -0.7955885353815524 0.9000084909605404 -1.078241990086569
P 4.665430465976412 1.1954588736542875 12.500967210269955 0.5408814293778169 -0.48787685215632753 0.5779289690494176
P 3.8426482968951277 5.997911333390663 8.379586214383195 1.2880812890433364 -0.26095951467135053 -1.7503239855713273
P 4.86834908456116 1.0947220160524687 3.799315644495615 -0.9755351605439457 -1.6643105575239856 0.022078319956278104
P 0.4188648472794374 5.64708879245696 3.4640465853949562 -0.2993759096660199 -1.1478512657442748 -0.4573120919955931
Ni 1.6965965194541743 0.9966762909979688 2.4548294361135587 -0.53266598344656 -0.17105446487908604 0.25807088026964586
Ni 1.9595599041702085 6.516396850410011 4.715747420094369 0.7155817185396064 0.014925510961580747 -0.08107639575704101
Ni 5.983850617363228 5.753587202290958 9.242078843700469 -0.8895021921125779 -0.9802109687530604 0.1357287929945985
Ni 8.251075604602587 2.479508385862931 10.173314557503318 1.7654736967285727 -0.3221756811693548 0.344883921400148
Ni 2.2826132082481885 5.239237721200039 6.954646882676276 0.06973037461660249 -0.3868139859750306 0.046627727160868084
Ni 0.4945046362159748 9.361799925600858 9.270932661156637 -1.3705136846076398 -0.8596876798543065 0.11046898998654522
Ni 1.3658491048717791 1.0832801874032976 11.387121897968486 0.07654405510432624 0.7164574362763403 0.1270006690929813
Ni 4.146430202127542 6.948820309791947 1.5476622003815648 0.24799832652499226 -0.37221603355619765 0.12003015131241909
Ni 5.686913941898826 7.956134701933344 8.022760099900976 -0.605134582929932 -0.39306279509821984 -0.6906548733909396
Ni 5.3381232963448095 2.9012666521630432 4.746280034666467 -0.34126303681810904 0.20200489051401335 0.3163868424017196
Ni 0.9328115615528711 7.330012913667373 6.732411712015303 -0.12376853530892876 -0.8380482472076599 0.7651003940950243
Ni 4.929938091181008 4.363572088370101 6.894442274108455 -0.3592864699787232 0.8087957781004459 0.6477652731162651
Ni 8.077163421393637 7.244799736766363 9.116435464066752 1.0720867691184504 -0.07210298861383711 -0.5445989874387203
Ni 4.636956838722396 0.3263431684638466 10.48257174348553 -0.3974213291772317 -0.27264877808382076 -0.31668560458906103
Ni 8.200765875001535 6.982233700480135 4.598008565019942 -0.5452394492361964 1.5588778444097668 0.28856982018945143
Ni 6.914684467413204 5.973293792034988 7.054542987123211 1.1157217321995818 -0.9413618570963465 0.011249347661574174
Ni 2.4776119501752234 4.985485595538586 2.6142952947052396 -0.1443450739086998 0.46993080920086805 -0.39450955484707545
Ni 2.274142462176427 5.278232051197767 11.51707379887175 -0.554598007632961 -0.19351845030955706 -0.5315889483322973
Ni 1.0914619527988374 3.315962953187976 3.72138658676463 -0.7211093332260547 0.08047218651413882 0.07133114344481908
Ni 3.8765222505360444 2.5762266059360357 2.4358885589164228 -0.8090336051428647 0.5138781613160956 0.5249632154856636
Ni 1.018774282082832 3.3593461772058277 8.212850685655301 -0.42435080657822405 1.0145907317845106 0.28566910160288866
Ni 3.414451179902941 2.510339011757383 7.097286841394921 0.9489712940124884 0.5149382271494938 -0.6689408787526158
Ni 4.026006535958088 6.900407015878603 6.139193985995678 0.6933663587848317 -0.05673859034262487 -0.5428845758507748
Ni 0.7506363371331947 7.3119245294650925 11.104906981828377 0.2481731615399597 -0.3660207033787632 0.6043532246792174
P -0.005673051900086294 5.567275941942851 7.958960391108029 0.6227916338900629 0.3825276998948509 0.051063651445034636
P 8.386869430488606 1.6950432483194802 7.98962395004904 -0.6168706404199376 0.12641034380715005 -0.3855742000306585
P 1.5164622210603165 3.1875020119610933 10.40230374840637 0.6197803578675649 -0.013927151604053433 0.33321239859949064
P 4.07041022298885 6.198084635551301 3.8223799147165964 -0.9757665598284614 0.940994960675231 0.710378577072112
P 6.739462840515123 4.102559323218566 10.570730717154778 0.6512169791102913 -0.0400223060292085 -0.5068279393375336
P 6.286530783767546 7.684583172745832 10.198585917638944 -0.8245872366067476 0.5310215058646016 0.9666941652135481
P 2.287381389405854 8.71858312420712 5.918227621116242 2.0281255115006815 0.07980087147872708 -0.34308980561420266
P 6.895331792752452 3.8945835427999294 1.699277718290748 0.3909408636592106 0.14973590590696792 -0.02390920251742979
Ni 5.26899370020479 3.011846914048679 0.41237632803363666 0.3934523172271546 -1.0849073179218864 0.22716313494719587
Ni 1.4515950898945733 1.2313556920287592 7.309199983527084 -0.7480730062990922 -1.1492540596290726 -2.377707609707447
Ni 6.75344228072737 0.6213120661360985 9.232086433755473 1.0680545080306056 0.8052918787122454 -0.15463668564269498
Ni 2.7152714644295552 1.718324254047628 9.182720406675212 0.5192098579416543 -0.7315616389076305 1.7336066728166468
Ni 6.478675841516887 1.937200024347519 2.6754779222491503 1.0674536412218132 -0.0541947408748486 -0.6650492570076932
Ni 4.003475073858892 6.918910809802954 10.38288695615808 0.36907645948595147 -0.13056756050863322 0.4045774806060387
Ni 8.037275057428849 6.847993145728809 0.4965952307955194 0.5957801382982255 0.39185077706798965 -0.21636630144200802
Ni 7.599532547475198 3.8815884430160636 8.416779833542213 -0.8344636151801951 0.11623751703920628 -1.4598474352774664
Ni 3.217149623212261 8.417076941799955 12.205495305608153 -1.4233547396680712 -0.18034874569681844 0.5125617564975172
Ni 0.054322045677473875 4.9313649332698555 10.146509793654486 0.2313424631358661 -0.22670522147417085 0.5294245936911269
Ni 8.67539857440417 2.332092118405102 5.597537637130991 0.5497843882944015 0.6013535186209449 1.1611312706826324
Ni 3.419589617552016 2.864069420745572 11.615198993612212 -0.7742774326086019 -1.2753054774349069 -0.7974775248741491
Ni 1.127810303479906 3.3277118238056334 12.754051068117644 -0.6381262073646042 0.21837330456970777 -1.1048961023389874
Ni 3.222053264061906 8.1843300990414 8.02441180507851 -0.345485816650205 1.2466829286022076 -0.07732644179630553
Ni 5.958221643640775 7.959114815156886 3.6216096868466363 -1.3983936988473593 0.4469235496724174 0.5899817864488937
Ni 3.3250297219044462 8.422522421417517 3.6206181219013494 0.4358279539798881 -0.37585568719131396 0.42744307235030254
Ni 3.366850644141472 4.264244011564864 9.621823835000944 -0.22458174737326486 0.09996063425605364 -1.0443389095812208
Ni 7.289627864165325 6.19817494201262 11.452203958512168 -0.10081166940243928 -0.938337725558042 0.12028211942222511
Ni 0.38147255390551615 -0.35786373572277885 0.03817344426433425 0.8066944154867269 0.8605137753000276 0.42992624378347244
Ni 4.661068663894683 0.40850308390764656 1.5672903097493418 0.00797119113093466 -0.6483692252488511 -0.14407330830455187
Ni 6.017643295188957 5.389760530927257 0.330937961215779 -1.0074422936651874 1.7225797255785236 0.7586510389252548
Ni 7.959123845803017 -0.31301122557925987 11.210988175811078 -0.4700917602587646 0.784710455016468 0.6480154414538583
Ni 0.015864136059983432 5.154331586267516 5.727806513713489 0.22204561121497243 -1.6233554552678622 0.45170503022146075
Ni 8.093978484491315 8.613159361262822 2.3669603461851447 -0.091605577423139 0.8989414831486068 0.2707507897301595
P 8.665302312028658 1.5064020812693328 3.478704227131712 -0.7090639720257466 0.3064605844269432 -0.1707734433035575
P 1.721764930223898 2.9780181136384227 1.598033338376314 1.3582945168336285 1.3420981095794242 0.31177094089626306
P 4.704515102435459 0.9857401785321863 8.43766320272233 -0.5396547560595674 -0.019358349921953757 -1.7391666834029276
P 8.391420876139106 1.5990384492907992 12.298888441775478 0.8539883154766841 -0.08783711151964227 0.42722195747843195
P 6.290567482588524 7.7721894708718064 1.4282707370649923 -0.3324222985980275 0.3984927078645395 -0.6561694380195603
P 1.6620994512301537 3.334367410004875 6.013471136676 0.46424789988347787 -0.2817409701930761 -0.8470386236317282
P 6.843107566171428 3.7708907827307123 5.9975446891577056 0.8671155968872615 1.4670511521147571 0.4964602229499644
P 2.261318944669068 8.487082510614773 10.000088703400396 1.0594006890103498 0.08687397627542458 1.188275178087276
