# total energy = -340896.71245901403 ev
CRYSTAL
PRIMVEC
9.01483669397876 0.00000000000000 0.00000000000000

0.00000000000000 9.01483669397876 0.00000000000000

0.00000000000000 0.00000000000000 13.19412473530102

PRIMCOORD
 96 1
Ni 6.27114392057028 1.8952701969774544 11.383613618772431 0.8240277645588518 -0.14775872757593908 0.33805198607997905
Ni 4.568115110540748 0.144832362143274 5.967491776073256 -0.32314421573021124 0.9145028279219735 -0.00943697704318375
Ni 2.7198843300741613 1.5148531143131931 4.665970258544546 0.09708742647331667 1.139979833415998 0.7511745280425515
Ni 3.5744998388221085 4.126811822603509 4.858670500666942 -0.020798939023222246 0.7025241140246997 -1.021991395123956
Ni 5.24314606269364 4.28378716942293 2.8661599675304656 -0.8960325370319278 0.6007991887793717 0.22854227468290964
Ni 7.274143637016365 6.4264334929766065 2.7764920939757225 -0.044901488498380736 -1.03473969592856 -0.5593915723668624
Ni 5.0280881247321085 4.798363047893005 11.33355513353993 -0.8251474799855918 -0.9992517874345951 0.5170730141043095
Ni 5.522939541085324 7.745763819880023 12.401025354225018 0.1370732228376349 0.2872379887519053 0.10169252934549583
Ni 1.9640714286391914 6.521576076697515 0.43578440507254945 -1.4643095848138783 -0.2996152793703356 -0.5008100152782279
Ni 2.717152834634761 1.5728094977452303 0.31604844607695753 -0.2527648946757002 0.6967252479547356 -0.27504838866424886
Ni 0.6261407897221921 9.169801471960467 4.611610794849542 -0.4048235351785738 -0.2508172840310261 -0.07366801910811184
Ni 8.380498453174429 2.306788465337862 1.1646186055124883 0.6724141820131968 0.3128088952424742 -0.1255395111664225
Ni 6.9732915007156375 0.649343175735161 4.8225976326776285 -0.6188943557181857 -0.2370829651640691 -0.09180200970466125
Ni 0.8771940680797063 7.525134713002487 2.5445791163341673 -0.19649964442506804 -0.29682049023401785 0.24101855277304945
Ni 7.519085757755498 3.9496161976633744 3.8057394081820686 0.9521244949294894 -0.06706131242487161 -0.03168730380095188
Ni 7.522745781347566 3.910347570158326 12.549842274071972 0.6589613989424007 -1.3500371619208427 0.9381834593683649
Ni 8.026395678060037 8.713785970963485 7.03671718541198 0.03186728102224189 0.37928631013941777 -0.3197521593295267
Ni 6.6697709728305465 0.6442912613977346 0.4036663458266851 0.47080087051064723 -0.2864247488219906 -0.6860448854227539
Ni 1.990403765861929 6.380268515599805 9.032552390225192 -0.4999990893411582 -0.48231015670182736 -0.19285639124552592
Ni 8.675626168339779 5.046180901454477 1.349218115615592 1.2597053090038048 -0.9159788982468676 0.3170339890674153
Ni 6.320842713829079 1.9295626347711188 7.139670223419016 1.2292151108347475 0.0753448925899025 -0.8381449206865242
Ni 3.274945838967829 4.209216442443647 0.30578685776451586 0.48398651596298586 -0.6696967830820337 0.30822204720274016
Ni 6.042626831813286 5.709997397083888 4.872814779031364 -0.1480055534794225 -0.052541007321509514 -0.061412084558894235
Ni 5.332239691167558 2.8197146287405763 9.282805151107397 -0.2621206248589873 -0.3623265423566276 -0.10822698802990392
P 0.294998803004348 5.688506027026029 12.313732890070545 -0.15289270636839475 -1.050569720982281 0.8972833787198935
P 3.980753442705256 6.07841573245494 12.758203991530575 -0.11582639764371665 0.8332338565381522 -0.5540231089660974
P 2.4555242516569136 8.701859342361745 1.376451034998053 -1.3271625713155144 -1.0734527962280416 0.5714449039869707
P 6.3051298539252 7.858016563152029 5.860500091343938 0.26458656990097656 -1.1035565575919575 0.3934214639892192
P 4.625052817455781 0.9467291074271437 12.46926586306058 -0.037461487280567744 -0.20122327515298247 -0.012583750202281554
P 4.158444883649241 6.075395762249662 8.068285819999996 -0.6832521531689653 0.5015666909385942 0.46245815497290677
P 4.706961621292068 1.0929767988905033 3.785182876662381 -0.49839163564472233 -0.31658224624197734 0.1946224820070132
P 0.0901925370351825 5.563966061694936 3.700859899629158 1.006845283511137 0.5253319116789921 -0.83054628240366
Ni 1.255216810187186 1.2498259379998535 2.4045895243230584 0.45374108681488307 -0.1330468752870612 0.16759581690652428
Ni 1.9900431724045824 6.281799457234873 4.717189854709705 -0.3199475631697845 -0.0648283093292948 -0.436221589873881
Ni 5.9952358366815055 5.559476673150971 9.219975347099322 -0.04687866682940959 0.6965139032748778 0.14104197767739582
Ni 8.613009114471536 2.332958535504794 10.086010850641435 0.48286628631561357 0.3437945449907111 0.08296949901469582
Ni 2.603421658187634 4.994075146867889 6.903495932595268 -0.10299093644194521 1.6725859101589 0.4534322973252126
Ni 0.6700782010162356 0.11161449285250243 9.09282288216975 0.1193655211452267 -0.2333175845843659 0.24260723741640802
Ni 1.5569433856219785 1.0902903776332709 11.343872613838258 -0.9006918901808102 0.5291646551615209 0.011950487493656839
Ni 3.9550521440328748 7.084687834526446 1.6190646234863693 0.8931955818037649 -0.4314725052246698 0.5150402999449968
Ni 5.433494333990493 7.877452550503013 8.243636107922159 0.4862902243954979 0.2065320889604056 -1.0889719749095632
Ni 5.4423829627140865 2.7826185768160414 4.944366437289012 -0.029205932139994863 -0.342018684037211 -0.05438603095004828
Ni 0.934261588639384 7.064269230004193 6.787690442284754 -0.6929835215241162 0.19792866356211072 0.7704107505643442
Ni 5.127999556926427 4.3364157845226705 7.1404887705671936 0.6379246328767595 0.737885010022497 -0.2883397064565163
Ni 8.17749335152471 7.280787571467976 9.071712839693037 0.015421219651076668 -0.3465605377716225 0.536062924943251
Ni 4.738459459791296 0.26955352568668306 10.256848311444905 -0.5160160335947048 0.024645309352505942 0.5428475519652521
Ni 8.221206293391555 7.25873728155123 4.819259438746242 0.1396381553513337 0.07533075152251542 0.5690010704321684
Ni 7.203999194726013 6.207291834110625 7.059120856916927 -0.20092142764184753 -0.6435401792913239 -0.48176456861100253
Ni 2.366232296781454 5.208718402353471 2.476866876913617 -0.31218797382902364 0.33550427995746085 0.5094756613730258
Ni 2.5394704085272086 5.300146873463708 11.247449923343769 -1.2259701215348886 -0.5305278540576347 0.4094198963000046
Ni 1.1127733796988333 3.310103701059126 3.745033499637764 -0.7502309331823597 0.8432624444187476 0.4444025830227766
Ni 3.3898940183335013 2.750480684930023 2.5436821401090173 0.5109293631004168 -0.3795511337650302 0.1276115632041028
Ni 1.2849206962361144 3.448670751881002 8.081296031941063 -1.7650296672126184 -0.04700439377399647 0.46395993632941385
Ni 3.7300418266485775 2.558915410714626 6.934594413840484 -0.7762103879652568 -0.388888352005556 -0.4302782278062525
Ni 4.070703480640373 6.751787954704037 5.966726416460038 0.2685440118868278 0.51738977401378 -0.03195752674320303
Ni 0.9060361357655765 7.283690348799618 11.076282519526828 0.20163156633499468 0.6286226387495432 -0.09627341521245356
P 0.03196751147742213 5.489665779808663 8.09653471144853 0.9449770852514306 0.5037068772100486 -0.1531233343219621
P 8.53169528983987 1.6859637246606027 7.92593524232691 -0.33035101789129556 -0.16766060870618868 0.13944969348961145
P 1.7827109492667037 3.3878386356266255 10.27452820865861 0.3098456988490922 -0.5469348346607483 0.543645108165883
P 4.083603711576949 6.026012488266041 3.708433263717081 -0.3488871290222701 0.36757390679849594 0.15117238124317836
P 6.786116451843436 3.8293312351289726 10.529834686845529 0.724042961933082 0.780022048401863 -0.9786917038950564
P 6.362031501494498 7.528938973977494 10.286574734584917 -0.2907256901901896 0.859548583173281 -0.2642736666462481
P 2.246190734830761 8.448244948973427 5.834191192695927 1.0554267919642661 0.1407172473481254 0.040378918037678846
P 6.821184165570395 3.849560528086118 1.5747846484078465 0.3197601297493267 0.2122412235300409 -0.9205762878095629
Ni 5.22209641962103 2.5894306320425846 0.6108921938946464 -0.5310240769677629 1.498496257997916 -0.10591479495695953
Ni 1.5225878439732783 1.2109269187885858 6.975377533866388 -0.3283041626645959 0.2577039838485304 -0.4705769274252992
Ni 6.92966870721313 0.6464728518146818 9.231863211904395 0.41911346943868466 -0.3028895792462332 -0.057420704011314015
Ni 2.7703674141026897 1.6991434155266223 9.16882155924013 0.06718138294250364 -0.4670208346429247 0.058517793730234705
Ni 6.41072964790916 1.9618537788765096 2.72878197363419 0.050114657268204015 -0.26295494783482454 -0.5264025190353515
Ni 4.107790517728474 6.876661468983175 10.27929164823016 0.21895411677384224 0.26614774374050937 0.09086947058806286
Ni 8.070009456726112 7.098696890344362 0.2652985228899928 -0.2556872105288177 0.9820624201395023 1.0724968600726754
Ni 7.435644431725487 3.9617681971759557 8.321230411041293 0.9649926091414089 -1.1996445962664821 -0.6703747829856648
Ni 3.0843631819237016 8.239524441024765 12.373753671045892 0.2599930369930232 0.2975648245992101 -0.06699317819109751
Ni -0.02228287269673501 4.822775224955372 10.203135211522195 0.4514823726876935 0.023450260603140257 0.380674448736196
Ni 8.5406470224185 2.290931368051044 5.68094167777454 0.44623577957677335 0.9241012702436858 0.8895361306743068
Ni 3.6500982571548297 2.6342704284636382 11.345772941358476 0.1318623680606568 0.4326274447647194 0.1636532873190085
Ni 1.1422609096733538 3.4336159750367803 12.539128140970561 -0.9171832029676141 0.058268653833906094 -0.4337623297001111
Ni 2.94745486100562 8.382238316606125 8.055699305371311 0.6286414078026206 0.10884508122987706 -0.7700132580156094
Ni 5.488214391142843 7.893985760522356 3.6391903050700942 -0.12616428923461495 0.3626967812118528 0.46606746959071993
Ni 3.0979034662470673 8.328897529428126 3.827192915926907 -0.12136018297775228 -0.34368758709920166 -0.9981325862284873
Ni 3.5035711057620267 4.276863775041875 9.122654778896038 -0.21096364236919796 0.04441503578026544 0.6529126216451593
Ni 7.145339654052149 5.934214408862022 11.564742416848572 0.43023271928029777 1.0549141139939056 -0.9937398564774305
Ni 0.5265025070718146 0.04585216255255412 0.2906004643083625 -0.20981590191799995 -0.07239532304327531 -0.20191798722716195
Ni 4.463903601367572 0.5004379104911568 1.6356492180733841 0.7572456739372959 -0.306434359174698 0.6069250991714515
Ni 5.891330831947074 5.633984296275218 0.5911785495815062 0.1563366990529372 -0.2488321352801973 0.2638026405471005
Ni 7.966428986103293 8.515008827601156 11.493876787643527 -0.49893773795617946 1.059699194087375 -0.3125170750336682
Ni 9.227225980042919 4.861890600241048 5.838109942093642 -0.8981074172830855 -0.3690150101203967 0.22928532349652125
Ni 7.80615420914915 8.86993195283101 2.4236685241512688 1.0220117068389303 0.24711540969940668 0.5505796305021874
P 8.467347387376364 1.759533804795749 3.526221783785255 -0.38049961372122854 -0.4295027830928087 -0.022549088945109548
P 1.542095950015731 3.4222843256396627 1.5724759487971847 0.12506000042684268 -0.8841676672735418 -1.216449069418331
P 4.650267314960744 1.037851074098637 8.142278695963881 0.15110193301655914 -0.9067406674780514 0.16625575793886208
P 8.388864221384871 1.6232655372644575 12.150970919744355 0.3579093871255385 -0.709170929917256 1.1582755464013923
P 6.156763675899929 7.789071094107354 1.5209399318732044 -0.028196002818241764 -0.14053675590620313 -1.1398193965787335
P 1.8303092856364587 3.368537870822147 5.852399359324646 -0.3415360879738376 -2.5475014627065544 -0.07583160241833392
P 6.935753721805854 3.9608576986961554 6.006901936510313 0.6307347999965395 0.4259376914493696 0.29142143070563353
P 2.575394531715367 8.53028897535622 10.229233162997657 -0.6920628094820597 -0.04266308608616524 -0.5837337486566527
