# total energy = -340890.978799205 ev
CRYSTAL
PRIMVEC
9.12237717507477 0.00000000000000 0.00000000000000

0.00000000000000 9.12237717507477 0.00000000000000

0.00000000000000 0.00000000000000 13.35152109974132

PRIMCOORD
 96 1
Ni 6.549811868667371 1.8282520408904566 11.180149752076645 0.2198221212010924 1.8220047990460815 0.6949321606100548
Ni 4.471287417956095 0.6030383728875227 6.001681994484149 0.40418307338109744 -0.3534582933327203 0.003834800365057911
Ni 3.054162658487351 1.9403386856678724 4.416175490247274 -1.0722886007166115 0.07375826482907297 0.9641258902657397
Ni 3.777184005583341 4.750359171600655 5.194502159442033 0.002893776608027274 -0.8370537445048746 -1.120114461950639
Ni 3.9492502783750414 3.3073177394036093 2.661358583275447 0.018530968924651958 -1.8282908891651093 0.06867596521015915
Ni 5.313136846347 5.074176183862715 2.3412826577736388 0.5778371806665596 0.17431950878360303 -0.3253954736582331
Ni 5.270891118995799 4.281861261953568 11.54070713724023 0.8712553300872479 1.5158748584856796 0.4235295962285093
Ni 5.866928979862308 7.969308446126034 12.471281715445542 -0.16949251970860488 0.626062848442167 -0.5612512512834206
Ni 2.1619485873182156 6.537943656340894 0.2209302845724626 -0.5224576754549906 -0.26809818259866086 0.35515573563980124
Ni 2.8129943807970648 1.5436703716077782 0.008033165084316146 0.6379002073967273 -0.2126942519070595 1.4816359919074675
Ni 7.950105842784578 8.645440776036711 6.96084245289411 0.5293919406809785 0.6779268843013099 0.7159213612672122
Ni 8.602948744509634 2.3627959591798877 1.260833813023067 1.0438090052196798 1.638721139090655 0.607615954590889
Ni 6.981783781269713 0.855335950376657 4.944949505157385 -0.33010959130445083 -0.8938702392732865 -0.6459950685897197
Ni 1.0702098889356317 7.446879044338955 2.532529640202272 0.48577034733628605 0.5695988519171674 -0.30149681266376466
Ni 7.450829033529858 4.0812237047602355 3.504573631485932 1.1244750529121796 -1.329930878089271 -0.3703776947958783
Ni 7.697279167436154 3.962660172394965 12.443951074300173 0.9757691309316227 0.12378036238347068 -0.31625982990555207
Ni 8.471011807631978 7.108657798976582 9.236381964937962 -0.9315919221937762 0.41652462566558585 -0.5873772589465109
Ni 6.873765716582695 0.9889203885196185 0.23946877887674065 0.8333986642507905 -1.4450602496659628 -0.8006075858626985
Ni 1.7873837924487845 6.672863610459717 9.211294516268444 0.6746772670157607 0.08356959449253994 -0.1575145214111223
Ni 0.30970560745973374 5.076912896928005 1.214869804853824 -0.3118804698909338 -1.434939102071561 0.22084104938391
Ni 6.490197135728458 2.1884126026595747 7.040056612568944 0.9167815966538211 -0.5013190937041624 0.3669128761757294
Ni 3.6359057547761595 4.409674884479521 0.36112023581734704 0.09992952390780209 0.13472837675454216 -0.46008194143124637
Ni 6.056692663809554 5.618836818116837 4.578850276036586 -0.0193434375236183 1.0495273957606959 0.8589955388832883
Ni 5.446889136224633 3.3089688896196683 9.082252109576176 -0.8377700538456088 -0.7811721028459062 0.06161288771579067
P 0.4820619718363547 5.534500443821467 12.426541018016483 -0.13731747763795707 1.0829175411853673 -0.6989839620819253
P 4.378695292580431 6.155150477521823 12.563474280713674 -0.2610657012319117 0.11992190786932896 -0.5279127850322908
P 2.407833133857686 8.61954234806218 0.9802869710363153 0.3626327607431368 0.07226188278920458 0.81699811140558
P 6.5654567450239485 7.792799575791678 5.6206029102816375 -1.1283921285783984 0.1953015103519088 -0.9229188198998105
P 4.898789365885129 1.3901134015143264 12.39672635364552 -0.8392229842420514 -1.9393892852055372 0.4852854372800674
P 4.0127055319822444 6.391584241609156 8.232013743402467 0.22735082547796973 0.5379619417381768 0.6237406280668936
P 4.71300303825944 1.0898959782519548 3.564055177722333 2.58079570598331 0.5030741287220561 -0.7406054942774535
P 0.3917157756496068 5.578944664001785 3.386813780524169 -0.16924620802575369 0.7458857688397864 -0.23636922692649612
Ni 0.9147372196964765 0.4151903880859805 4.378271102055312 0.3139113842780336 -1.8917171759405547 1.5648764851953632
Ni 2.010544498169459 6.471943259582971 4.773729788940548 0.3401114397121691 0.3547916674321631 -1.2295892063447145
Ni 6.202769284857878 5.8179783055011445 9.180278434861817 0.2279820313040654 0.21641592373302082 1.2240718760709115
Ni 8.752947987618208 2.4439759910732892 10.052252688437752 0.052969867328811995 0.05310844978920531 -0.25490970893284487
Ni 2.4894054279571125 5.552644851444343 7.032646505825825 -1.3625931442089823 -0.4622594086985394 -1.2445414567791726
Ni 0.6169536465868367 9.033105304112 8.892072445243006 -0.023495769129095016 0.962223273926388 0.10891604367712855
Ni 1.4687391678801234 1.2663957262094256 11.400783559400367 0.2879416996871492 -0.01250610288681072 -1.1402009482878686
Ni 4.30595345930501 7.116439186458892 1.2174705945035382 0.21071475958318547 0.10068388557532339 0.7042637224236258
Ni 5.597390110061844 7.898673881910884 7.981285214737433 -0.15685786166372984 0.8390751458102774 0.003540151942774548
Ni 5.514942067781523 2.9580675403881163 4.982400511218197 -0.9413556864487594 -0.20488863981971164 -1.276179138289112
Ni 0.9467567625603757 7.428086947957293 6.699526493617155 -0.8013658041849618 0.6526904783320243 0.6262801066592956
Ni 5.242164754187132 4.942120656085562 7.1849208697293445 -0.20590062602399375 -0.6289360562249039 -0.9063141214635939
Ni 0.8554846451198712 7.702752593566736 11.460424747232242 0.09748106236730952 -1.1196886872671297 0.31441403494606496
Ni 4.443345577559478 0.3110694028039369 10.387510073550416 0.7500733245585728 0.3922444129619825 -0.19374804982185986
Ni 8.561770335253897 7.395082188389889 4.567180931526186 -0.3675782776738702 0.014550644120665262 0.4304960002440134
Ni 7.274320163195502 6.199156823611695 6.893429912194496 1.1060171033173083 -0.1539327175971349 -0.1755595518382912
Ni 2.6240790779000593 5.225589395388356 2.4157303755264254 -0.9143331351133285 0.8871573460294851 0.4440521416618933
Ni 2.5085989089216834 5.462497523073672 11.361610248583798 -0.4952687737450245 -0.9022744041765816 -0.0018573649237129304
Ni 1.2291034495064 3.4474921826077902 3.6180350184598122 -1.35716143167045 0.03427460491215387 -0.9814900925758
Ni 1.546498308441912 1.113176284060693 2.3135114058247592 0.3793007083171209 0.8702472005377077 -0.47045402869418984
Ni 0.9840581616402856 3.372533611749483 8.089672735688264 0.3417975691653404 -0.21963443067031854 -0.9244833361734529
Ni 3.8545782510697575 2.941838831910943 7.0888695390391545 -0.31878491032025097 0.04528175465593492 -1.1672088443352802
Ni 4.290901537445912 7.118400497489016 5.797256826408453 0.3622931180155309 0.4122594226313287 0.2817502261644567
Ni 0.5136226591429736 0.47596366288919895 0.25222186176099454 -0.1212722512496363 -0.5878014909681232 -0.7331315544979116
P 0.2823594582736624 5.596003508775429 7.743201212671729 0.05940713831372349 0.1316034579723153 0.7657963917207843
P 8.665820165996243 1.4511512252471894 7.721611283299652 0.015136341420806191 0.7162484055893278 0.9038728590119531
P 1.7617134238963594 3.428207477874377 10.360579904750269 -0.22635040923791339 -0.4922037616664555 -0.1701502078972618
P 4.0083085463240105 6.4512901983169115 3.5940021165581193 0.47131663380480115 -0.5144175787593335 0.15299812159800746
P 7.022943945771682 4.020906548801232 10.293074315806436 0.8385624678399172 0.3347907988302041 -0.09793511918559263
P 6.565018870933502 7.838110421776005 10.279509341379478 -0.16609506399128168 0.27750096396979945 -0.3440110318768914
P 2.5213702365597053 8.592339420193191 5.678388606655247 -0.020268520441048966 -0.38778020654304185 -0.13800859016771072
P 7.115782375323221 4.0311509780423025 1.1570120417028285 -0.3243318082804092 0.5039017668296741 2.3071323705920457
Ni 5.4125798767627735 2.781613404315067 0.5918023412791283 -0.7589557146498671 1.1708027323341255 0.25150762522983133
Ni 1.9678973862353482 1.3036880029124513 6.643436647106337 -0.9491142473482557 1.3229603603087088 0.2622856896819418
Ni 6.927742820607109 0.7503985123634683 9.22445901835018 -0.3014150515832357 -0.8904254752577956 -2.026847930339838
Ni 3.1237390269839205 2.0560469140683564 9.14204016767589 -0.5237010609437884 -1.1164838071765868 0.40742317758495
Ni 6.714762687489315 1.7202795880878605 2.509631561984986 -1.2974694151264556 0.3745115144585937 1.4946259764092322
Ni 4.259785109893558 6.942137931330538 10.418418510909808 0.32697464521989494 -0.006099170919202399 -0.4221404291904665
Ni 8.921657225716485 7.406257100073159 0.3309242560926197 -1.2694256216153623 -0.8066802744193396 0.049871945129778626
Ni 7.736386797139156 4.080648995016524 8.151317197483934 0.02311216053743116 -0.21024399059435406 -0.39100745523108793
Ni 3.2577376210374296 8.272162236307969 12.29402663468205 0.34206907765917216 0.5625694558742117 0.08151296907382737
Ni 0.028990913738311048 4.959389315527545 10.047540068539323 0.5311863135772399 -0.7902043882515036 0.3741363905073621
Ni 8.817853699150016 2.3770177447425143 5.726199896143561 0.4487418338280788 1.1771389589647985 0.7017517546350496
Ni 3.5821475877969693 2.8831272142835767 11.55756985091086 -1.1751090730189633 -0.16089963583327127 -0.8081391183530534
Ni 1.3657566552332405 3.424284855814127 12.762624890474864 -0.8675007481408221 0.6659296027301176 -0.23720277857138505
Ni 2.8813848402986753 8.714296476759422 7.995825371253321 1.5014298867049434 -0.631145662281713 0.4327351739871773
Ni 5.59500916969504 8.056399778240461 3.520248611686228 0.9613827803029638 0.16709856555513156 -0.18596429211138296
Ni 3.1844210780182958 8.603204171062394 3.492718190487093 -0.4150318431701433 -0.30904582865561614 -0.21098575385638502
Ni 3.089986232512004 4.457293691815576 8.943930421117198 1.049405782581167 -0.10042908925203994 1.3005375125288183
Ni 7.694031601265342 6.2865127046557685 11.484724022538957 -0.2567436768177901 0.2378789787028032 0.008484640432243451
Ni 8.21092372028365 8.879356764103978 2.4316854126970693 0.8689626773983292 0.8158364869973111 0.6530949128592946
Ni 4.696829064043572 0.43135797663802855 1.3481960797309598 0.008284094385663153 -0.21357228363663866 0.18323403766441346
Ni 6.390817961950875 5.877328489510412 0.2481395981052695 -0.020881214324383394 0.005837432617383495 -0.15229235378023448
Ni 8.318668113664138 0.169408924405303 11.080520625172431 -0.439840674683707 -0.5663777738767084 0.6890880431244519
Ni -0.028077763812192444 4.97547206597457 5.3746015973180485 0.1807727206081145 -0.34231744622455235 1.4132659879735014
Ni 7.552616514804897 6.273969436439853 2.4859726775355497 0.11719885251121107 0.4678602998250846 -0.3080281860243792
P 8.692028754784841 1.8121145561821266 3.656941043633671 -1.7910055224510897 -0.13123604733056754 -1.937910643777482
P 2.0135822496719316 3.178582756812343 1.5378813112370002 0.5341448819849317 -0.26187534161740056 -0.7195368465326125
P 4.93162080029173 1.128474510095667 8.14505468575286 -0.49714696460434377 -0.1472704750856109 0.6304671481574496
P 8.60404342973575 2.001850872998719 12.409451157161431 0.17774370397380357 -1.6248893754138856 -0.934814800006448
P 6.796672509533461 7.96595141143261 1.215855933795017 -1.374451071988833 -0.2203016319406722 -0.7438283720901254
P 1.971062851014201 3.4858700221600483 5.590562010963944 0.5588138454865215 -0.08675184887526351 2.5461038110280794
P 7.083014797554809 4.073059177448785 5.947247859377831 -0.22898681841949595 0.39492607355920367 -0.35841075224198915
P 2.3577786518935215 8.57838218356021 10.241457170681992 0.627526834582203 0.6934427205487218 -0.4022555173410814
