# total energy = -381165.6522634079 ev
CRYSTAL
PRIMVEC
9.24096263845817 0.00000000000000 0.00000000000000

0.00000000000000 9.24096263845817 0.00000000000000

0.00000000000000 0.00000000000000 13.52508291219730

PRIMCOORD
 96 1
Ni 1.5920885257142665 1.3151183871498562 1.1558143526610662 -0.7771030749828552 -0.5759996132371887 3.0426475948307856
Ni 7.684858634434544 4.417281893277471 1.76087101579913 -0.791340815848792 0.7581262767700362 -1.1824053495700604
Ni 7.287876111326693 8.898298707336963 8.954091944644999 0.6629322106646905 -2.035885615062074 0.30573681888704124
Ni 8.856132193848726 2.9846092177024888 0.4873073903967862 1.2486835039720043 -0.7176923371247059 -0.35259465978084437
Ni 8.618722617248624 0.5580830007748379 7.180331633861563 1.0787212437158324 -1.0630387999835693 -2.0129675728133205
Ni 4.772245758302698 0.48527437856960853 4.758557120031797 -0.07662864439833254 -0.18465662904355296 -1.9037681935678181
Ni 9.086278373648094 5.31726850628049 12.4558309880564 -3.2791104099123523 1.2979011033472356 0.8998259426360891
Ni 5.6999460188952895 6.104025601472562 1.9207646237178015 1.0133000379975452 0.20314208944225015 -0.9332101745234895
Ni 1.0016372043619044 8.281908003262384 13.157634063568427 -1.4217817387539966 -0.7935848746879623 2.1644294602724594
Ni 5.34461251535603 6.6484014820507955 13.28063127911268 -1.485915593119428 0.14620603837683852 -1.0216743781041695
Ni 0.07828758907947322 4.513637412922843 10.239556082006615 0.36277134320353005 0.4336129486064403 -0.3836458726596941
Ni 6.2469093690717505 8.122778622971474 6.733895173961329 -1.5687436814602531 -0.4563844379750011 0.13176492325084405
Ni 3.6962742487688964 9.174381713467696 0.2942784619839733 0.31461638076485815 -1.1497065737854586 -0.8908383944254981
Ni 7.302772543442195 6.661107805970657 4.326160454990796 0.9527089066780495 1.1371601045790158 0.9232168107562035
Ni 2.6357166652702415 8.222349997688926 4.016841401870848 2.298630503768622 1.1986914883245936 0.9938889804607849
Ni 7.592652307109184 4.966472315500976 6.381702673695059 -0.45819757992433996 2.35042846227652 -1.460094518291266
Ni 1.0860903638554367 3.390361414555756 2.6070946310324343 -0.6053572404636994 0.060525825299199 0.4067220377528673
Ni 0.32925735456685085 5.093452386033925 7.487499390829843 1.1096292461485988 0.6294253371564966 0.4481234835177895
Ni 1.2636647059965587 5.961992002455646 3.3724792273431583 0.5342945201889185 0.16835326389783908 0.1340100105312789
Ni 3.456147829090656 2.24925035788661 6.150843091563608 0.22138972279852842 -1.73740059264144 -0.48767964854385687
Ni 7.271048317975372 2.1913187617748964 2.9554336497899185 -0.2956357258972973 0.9341206021529008 0.6596375990738188
Ni 1.4830636460004365 1.5184288108304778 12.634186191558417 -0.6625318899024782 -0.3387816651571521 -2.8031038268310495
Ni 4.475084115909273 6.015303117141956 7.41013589803545 -0.47715046687775886 0.9921241752508785 0.8107986674630876
Ni 3.5105586183562125 5.007696250778429 2.515259790413677 -1.1464865241862643 -1.7493014578440842 -0.6164057849683771
P 1.8289990903204252 0.6160118245976964 6.024071866791087 0.18052203804988912 -0.028042765069829126 1.2598834864528818
Ni 1.276916246724617 5.565582419044545 0.9323124251514296 0.3569084566648498 -0.006761744203865774 0.15694579339184583
P 0.4377712090350312 5.9116934416586995 5.376951264852432 -1.0812684356177185 0.458389641330488 0.8097802535009021
Ni 0.6982305192739033 2.727313089047448 6.659872289237503 0.6386769376617517 -1.7025675441226549 1.0859133905888976
P 5.663665998743018 0.565292799991038 12.726454433334878 -1.9204101729998733 -0.5877184443360137 0.15833110377514667
P 2.778406372649564 8.600545643321086 9.332172078241523 -1.3918918931730997 -0.7530532331225032 -0.3602994846242698
P 4.614862919990592 8.612642063692793 2.679670380973824 0.5794811440278859 0.4535148297366899 -0.10849798230310347
Ni 7.724982895132751 7.41334066395211 12.822373779533692 0.30752322136350263 0.3666971606204975 0.8707765906786165
Ni 7.074548483915796 4.184936364319611 10.973549127513143 -1.0159634437623213 0.3457760941971142 0.36639377044746574
Ni 1.3268266870818297 8.144531849522275 2.4331214921142728 -1.4630916532463771 0.23682328374477923 -2.2743101818557028
Ni 1.6358260028871399 7.6300782066549555 7.642794695633952 0.08208606796847799 0.6468224495870216 0.3165452223564549
Ni 5.277495402170613 3.6201102329525385 1.6454208946151334 -0.23011707536919726 -0.18049272747385042 0.056754788292540964
Ni 7.523455977282336 4.042727187008531 8.59881481097913 0.38775912349711933 -1.6681895808634175 -0.0027338539913952914
Ni 0.5215895143807129 8.196253518598246 5.381373989672828 0.32008588851986164 0.29461834037637646 -0.9062164195434651
Ni 2.6577471207065675 6.811652331773166 5.756667972969833 -0.4995434898609784 -2.071225942234581 -0.020198586435061987
Ni 7.400625099069399 0.4209822277276837 5.334075969513539 0.13778798951647236 -0.500880463504847 -1.9065784093231037
Ni 5.763412951754638 1.3198035553152159 6.631983987450051 -1.5009712019009698 -0.08177702136849142 1.660669361226972
Ni 7.564726117374043 2.716833837174632 6.43234037782863 3.5093413851515947 -1.6913040553936936 1.018450214739917
Ni 3.6137524505111833 1.312013423631985 2.284292089016873 0.8795327396046916 -0.02937793894148489 0.7112164995923751
Ni 2.48903486193937 5.775777360049019 9.015279131969052 0.3871474580550494 0.17880299847625336 -0.9994081105068015
Ni 5.013896936851322 4.931181078373742 9.449853891953989 0.8138932472280113 0.1637641018652599 0.10747262636238264
Ni 8.554645780841122 2.500521378762924 11.589481479830322 2.9133211058181048 1.8719844733983177 0.25970713032148823
Ni 3.4577280337381446 7.095460782847175 1.525588708847284 -0.6134621289590209 0.0360437809974347 -0.29133735563225954
Ni 7.646610289195051 0.9629822567569756 12.96603748439749 0.8568545812808857 -1.0605954806493991 1.4274096264637353
Ni 7.063579461011887 1.295897184420176 10.614863926747894 -3.0002896986898646 0.18986542693800204 -0.5192988181110346
Ni 1.5633398902854037 4.074137219738426 5.1449421069423416 -1.6886337076503821 -0.41607391128141247 -1.180317099582464
Ni 8.83797370184689 2.4300220731741113 4.496495426834595 1.4532175886657748 -0.04686041199696446 1.331838893745261
Ni 3.7223337640081744 2.197685785179103 13.340790871367721 1.0653175687154168 0.046681977437571215 -0.5981121288655119
Ni 3.598089018479064 6.70405056033836 11.204516828909947 3.8837981351128534 -1.2423264514057248 0.22626016351695227
Ni 2.426261001293833 1.3929550172422103 8.444101686834621 -1.8290408799572566 -2.425355036382081 -1.6651492513751966
Ni 3.7358994974731603 8.628545760759033 6.5697682809607025 -0.2272163567826345 1.1305230588784725 0.8582622602616896
Ni 1.4834425254773198 4.013701322694144 12.548423587628925 2.2743793445307414 -1.9488414317573728 0.2896375993323334
P 5.15699324659608 3.0964341091601137 10.975280883951385 0.2856719298163661 1.4790106384694786 0.17092410994880886
Ni 7.6244874241302165 6.240477658927588 9.236008770623448 -0.297844560623158 0.41455850307815056 -1.2867733688651903
P 1.4899943681385424 2.513079847277172 10.742797664647048 -0.44179162776249076 0.5113003732865904 -0.5916902844995681
Ni 3.5327461701610026 4.754207398817922 4.882785231827777 2.0485120455768335 1.675224890443644 0.5368712797771592
P 6.753997964546976 5.074203460415693 13.22066020249979 0.7726841199795531 1.5258368547943981 0.4313665757744248
P 2.6947941407754556 3.2995874364722715 1.2746549831150245 0.5733140959852255 1.0904153922243092 -0.25894017024847665
P 8.487048137587465 6.91443032059985 10.966462233102858 0.39591980493104073 -0.20829792261157673 0.7008999481577154
Ni 6.540698060024631 3.050959330971289 13.209529462745994 -0.9273948533932931 -1.0915312509963073 -0.5621822477381221
Ni 0.025745322502350433 1.4671322260456439 8.973568197949362 0.7080327025477549 1.5571258947156668 3.1422906978464207
Ni 1.5660936972149446 3.4921875842088066 8.778685532388677 -1.0837194682613722 0.5621413671978577 0.5544992772715676
Ni 3.7632250246229986 1.5439431092615583 10.8523104671994 -2.1265349992195315 1.1835777726116068 2.141768528339834
Ni 1.585619851718701 6.378722463175674 11.06589868976269 -4.112174316531544 -1.6798107100421134 0.7500023621113212
Ni 3.739503472984975 2.9452611978837493 9.089802876879393 2.747087202256114 1.4226849672945563 -1.7187665224800206
Ni 1.9331817055004321 1.3588466233598788 4.078610769854502 0.4008936039965483 1.142447064009568 -0.36467061710877197
Ni 4.348381274261848 3.025555924094418 3.8675111385869347 0.8015370396555035 -1.8711401231201519 -0.1490735897326207
Ni 9.078479001002012 0.47735672159903636 3.6062062802472137 -0.11193297612658142 -1.5212266097158962 -1.504898561979834
Ni 6.302003989588267 8.235472164937073 1.0097840372111766 -0.06453854600301788 0.9358062173854399 -0.21989719741340194
Ni 5.740356749441872 3.7113277772528623 7.08461466474918 -3.6874928660867785 1.1437997213827207 0.7030110809634473
Ni 6.066636665778193 1.2797162584684116 1.4259628124490105 -1.3894601438031555 -0.41805726026002843 -1.1018467739897024
Ni 4.43032089185996 8.75651461431702 10.81631968918436 2.7279774780098567 -2.192951478971552 2.52874217982118
Ni 8.553897262850208 6.841593051409783 1.9005176741116818 -0.5224214229004164 -0.36064478377883047 0.13679477236526763
Ni 2.1538096935634674 8.699137475976354 11.48836778841307 1.724037541070973 1.397601027742735 -2.1473007710119725
Ni 4.519708725515824 0.527711652269373 8.921536956617889 2.5337026091502497 0.480074068282457 -3.62509553479648
Ni 8.573007574025679 4.507686232846923 3.851754372830022 0.13568636979243728 1.5157403897903443 0.9409615363341343
Ni 8.985496432797184 0.14170739302828184 11.202920914625611 -0.06328487610157488 0.15593123608440243 1.3546831453332864
Ni 8.383133510330131 7.456643815870995 6.979726964103657 0.17005893373503614 -1.4899655948190855 0.812621322494123
Ni 6.209455746637428 4.837255931958131 3.66336348367203 -0.8811952149087791 -1.6685922156184747 0.9423298774365706
Ni 2.9580784133578195 4.154348777283437 7.063461176687397 -0.1399628856806041 1.748088154262273 1.1885094055852692
Ni 4.179225449277812 4.542025650800524 13.039100233081117 -0.1837865677337738 0.2640720921584033 -0.004721316735069288
Ni 4.477496007213334 6.608443558683903 3.7896606470503045 0.5155977151103637 1.652885089295863 1.415318756737472
Ni 3.15153797063948 4.328568649909716 10.803403595407786 -0.479078280028091 -0.39404418517488266 0.9200306997187382
Ni 0.5589165356239807 8.006702888602478 9.780041811479917 0.19507551038403179 -0.17222097438336145 -3.0613258879665795
P 6.275833582794779 3.1405319838841685 4.9400366930736705 -1.009878671020822 -0.8886411296638631 -1.385772153428607
Ni 8.86349724124082 9.045923088878617 1.1351007344309807 -1.9033251924931287 1.29624248469789 1.1609767473826393
P 2.4885728137968295 6.797578345351386 13.029402766665477 1.0733635789483449 -0.5581566715184968 1.09790732972598
Ni 6.926887138522738 8.641067265421878 3.1614202563121343 -0.3657836476672926 0.5311037811657627 0.10766314510663393
P 5.603202378810184 6.179394894483749 5.718013025364905 1.0799828840370755 0.055305457440524106 -1.0908128847730438
P 5.586365344496012 7.609840498011687 9.23483239605254 -0.09315800951192343 -1.4469353552014887 -0.660931635294894
P 7.1161512986701325 1.6413520986719228 8.425193752745583 -0.8702824246510174 1.9502128581836027 -0.5039791570348288
Ni 6.026041115974595 6.394422859059196 11.101617783469917 0.5484780107781522 0.7847819316843517 -0.5116988942765897
