# total energy = -340867.0777220922 ev
CRYSTAL
PRIMVEC
9.30450646584756 0.00000000000000 0.00000000000000

0.00000000000000 9.30450646584756 0.00000000000000

0.00000000000000 0.00000000000000 13.61808572669533

PRIMCOORD
 96 1
Ni 5.729408023189056 1.2888230154263793 0.6716476589935912 0.49634992262434524 -1.1590844154559328 -0.7773411591355902
Ni 7.425470676918461 3.8723029718232804 7.887554798040288 -1.3357068613410998 -1.5769948657254518 -0.9216132137145097
Ni -0.23886808093599757 7.205884324698771 8.441198053981921 1.8922630211416958 -0.37635628097681634 -1.3666130640016527
Ni 5.482336158916105 5.2921613515848245 7.116307980203458 0.5459513877015565 -0.41720082579700407 -1.6985995606138422
Ni 8.43874073382848 0.28410659129583365 7.66685934865176 0.607030000180432 -0.20782483962990012 0.23017004009431974
Ni 4.192182599067379 7.233983934177732 0.42601706276974327 -0.021490565773608146 0.557213333768621 -0.007415318627464649
Ni 2.5128773614544 3.6157498154777925 12.233847937438798 -1.104161538165808 -0.19962122077318523 -0.5420690219280149
Ni 9.183101249827429 2.1907739571687554 13.24490910451759 -1.552617208212036 -0.04723090796250575 -0.2413008599001586
Ni 0.40460460207638843 8.718071321963535 0.18958397117170722 -0.6929657809123033 1.707300687932266 -0.7235331121761991
Ni 7.665759555989372 7.563549552636266 6.0918055231070145 1.1293318667838486 0.22966661809533997 -0.5489706341438545
Ni 2.9671605843685587 2.7383813797762815 3.3898410511253365 -1.640054770300414 1.5717878676032155 -1.6906106288710951
Ni 3.602779333486511 6.0310694268040805 8.200743554696201 -0.2985400440282858 -0.41306546347239187 0.24054598401200505
Ni 3.6671293000946195 4.431001366119191 0.675991002604445 -1.3410383008563418 -0.4044679516113679 0.5337317057069131
Ni 5.4139387320022525 2.7160970868285634 7.302684688001854 0.6257442887604837 1.5557045888881078 -0.20724402742576564
Ni 1.2426075318892946 0.758223300158784 6.692336047951422 0.8424489473785167 -0.9169453759251951 0.8134345624240378
Ni 4.956752503075698 2.6953759509644426 2.2754458963142805 -0.06939098899931276 0.16552710730295364 -0.9124611149015963
Ni 1.1882692142213713 3.323560399428855 4.559512417854474 -0.5009460266354598 1.0806408293360485 1.2614863121636273
Ni 7.488462185584872 7.905378510595883 9.68426988074307 -1.5553934854055924 0.14993413796070307 1.7176182678081902
Ni 3.710907002941808 1.1598997740553616 4.575458481008462 -0.09272297885703386 -1.3407598503839748 1.6671629393711158
Ni 3.7933821481144916 4.1709590198549575 5.654270411802833 -0.26397156202479694 -0.7435733186565259 0.7184682960587819
Ni 7.870123735656883 5.2385115673942 1.9884037332334763 -2.0891673572043503 -0.4752465649868267 0.41666835033230176
Ni 1.9932485897419843 7.561009422375419 7.297155950269272 -0.775039507585607 -1.381301519251763 -1.8206858231243417
Ni 2.169010716582236 0.2985527680100833 2.448640909824981 -1.0757171667821859 -0.018539710675400327 0.7477572748308863
Ni 6.667237141802581 5.856777411982927 4.203385224833163 0.8699456101368889 -0.17568656433445873 0.7513665894486995
P 4.547437959834326 4.022607969016368 9.03692094034362 0.4679502884357296 0.638967472318977 -0.8491201887511054
P 3.4975918880694095 0.21135744671532142 0.8519010710972515 2.636657035927304 0.08049404089100977 0.5144582021892817
P 8.294930282137482 4.242045449132858 4.256578157757092 -0.8466213335886515 -0.29125456611046613 -0.039282342539390405
P 7.505387082817398 6.026258996969437 7.6253928852067485 -0.41115076294818226 -0.06910559654841002 0.10040029289663353
P 5.092570383726156 8.416502963413011 10.008884571319566 1.8584666414175413 1.1278377987368255 -0.966868228897567
P 0.3144299778163408 8.57308850245984 5.58581157514641 -0.977087335522414 -1.2968392377416247 -0.6645599760761006
P 1.778379622292438 3.7634960733971337 1.5324429078063855 1.2428501851196792 -1.111440845436041 -0.4623224007259909
P 1.5138990264515615 8.728222538500471 8.848705662070707 -1.2649727280503311 0.9651782427896537 0.9147653375547407
Ni 4.229475060918926 2.4038285458605544 12.828277497403949 0.6995431770195049 -1.3128291854119776 0.23186208308476197
Ni 2.055877222656846 1.8117548869285407 0.3079931202542399 0.48732020832190914 -0.16457785601580688 0.5661101220376185
Ni 7.710318837378359 5.3224940426117815 11.106352037546163 0.8017653536162256 -0.2776565157110573 -0.4468196771047015
Ni 2.614501180901157 8.68002519508954 12.768453242733115 -0.5866786902175896 -0.47731630303166184 -0.3057057085387896
Ni 1.771122107261448 6.203119055570788 9.703008226282698 -0.434158279586949 0.9935845618464887 0.23190579183850382
Ni 4.053443103391624 6.868502920822248 10.69286628406326 -0.5790062612739963 -0.8994906707838574 0.30659556734291066
Ni 5.724523157302813 4.189679686832331 13.796618884018917 0.6369512132198966 0.35429338763950596 0.08283683009157347
Ni 6.467971831669663 2.7730871888347326 12.233235700914388 1.7579858729919595 -0.8395410297031025 -0.38948896170403247
Ni 4.357300370528845 6.331000192219407 4.0820619043304935 -0.24828089076241755 -0.23754576373310055 0.20250779829236087
Ni 7.426112687863511 9.19489936400601 3.801678976515945 1.7579977000665012 -1.597244102892791 -0.2772165999601613
Ni 4.63004336809731 4.622525326885721 11.197048644618052 -0.6689604191366414 -4.060662778915813 -2.6800837396523716
Ni 7.112104204189354 2.320795130300872 3.0311132485512533 1.7735117365417004 0.4419137551626518 0.17259249879016728
Ni 0.7948504897991572 2.901675467973551 7.4826338427446 -0.2697822551693031 0.9344409616067971 -0.3000328265237285
Ni 8.444463005295221 0.656981895927122 10.771293038479554 0.5710450974453907 0.1895430106015768 -0.6985885264157194
Ni 5.419065515056195 5.971799720717664 1.9377853572442578 -1.0105682408886791 -2.1051876438920067 -1.1557622930612352
Ni 0.48629351645404806 4.557942747616361 13.552351397989991 -1.2798583869129119 -1.4284138993585334 -0.07404957081724667
Ni 6.655401809598199 0.7628932319460324 9.130899246840421 -0.782487222112904 -0.5314069142284783 -0.03192178840926115
Ni 2.0150862663801035 6.000485514102973 0.9058355731852454 -0.18264422659921448 1.612557850431726 2.8194951237048795
Ni 0.2579758153816906 2.3659871181284577 2.340513240369684 0.019138263491347684 -0.3096076146963571 -1.0516287583744146
Ni 9.02620866206775 4.9793903672685165 6.240746479654534 -0.4272178437133739 -0.11143263945139519 0.42603282226633726
Ni 2.8711752958304944 9.068181290663642 10.421757157827413 0.927434448381977 -1.1767867178317024 -0.25320969552260264
Ni 2.4875877129233364 6.163723775261543 12.339442920238408 -0.06481082582779805 0.38302983634225 -1.285146889005361
Ni 6.729307504330444 1.0333398773226403 6.203187908918518 -0.3820646442155033 -0.7237146320593858 -0.09511590456924264
Ni 5.932916188263169 7.941628867725032 7.580766611371321 -0.9884616387976267 0.06571739680246746 0.9344913552287583
P 2.153444277291408 1.2698883448006562 11.741949386299277 -0.15609758645893762 1.9999678181195426 -0.36233117034231793
P 8.92757158919144 0.2055914440682646 2.2132248007819286 0.9753533835504427 1.9330872542469095 0.12423133387796023
P 5.83980599221815 1.1300323083509038 4.235523920562062 -1.4905170964471812 1.2068388000220762 0.27954113432827987
P 6.535308544848219 7.389266842321562 2.742573059932001 0.9678714733511007 2.123864908586536 0.5635539312746681
P 7.664708146760523 0.6678439767568366 12.673957605677693 -1.312739968132281 -0.5925965983639214 1.4573195266492902
P 2.4834472075530916 2.351127821327829 6.033288551592403 0.4288466375660485 0.48681344388881975 -0.8289295727358434
P 8.564612097083902 2.183032607802366 9.04076091015553 -0.7137526357506676 0.18958903334816382 -0.9464017335130992
P 5.072947179623134 0.7039110351089207 7.693836834652852 -0.06235516519845391 0.16004345848056306 0.09833364017559193
Ni 8.48831514419401 2.448685571455941 5.507916108048409 -0.877190207514444 0.586397411531745 0.9608253651375969
Ni 2.7163017859704635 7.9158646893650175 4.619527414907535 -1.0148157033111234 2.1226991704132088 -0.580743041459445
Ni 6.062546572124386 5.93258122603097 9.313735589934598 -0.3221129462522194 -0.16979693832290113 1.166314614655785
Ni 0.4887899155345795 7.795473680408638 10.694228463807539 -0.3673813311717157 0.6393418249392603 1.358157477035132
Ni 5.622536462104507 0.5722671560519266 11.474640220497605 0.7669937544629951 -0.10507301578195452 0.6050538502906676
Ni 2.1255865849801476 5.739754634361442 5.1066322843240215 -0.33151984138841617 -0.7735521244068033 -0.004781223438727249
Ni 7.559837054562721 5.743997489302636 13.459693400958443 0.6043293134198173 0.5203005199026717 -0.6497473365433003
Ni 9.438956568189168 3.06530451840302 10.78199694269962 -0.5102012266851407 -0.8366544521839269 1.0481109750291433
Ni 0.5174189514305441 1.0353961732480874 4.316606181119183 0.3693248280513317 -1.3716735092436956 -0.6137572916019366
Ni 3.5200715756525778 9.093926860010754 6.634145664613204 0.5281231012708839 1.1012132541707615 -0.08643560318642533
Ni 6.118717877562957 3.5981456892744172 5.080730399268548 0.843958699154824 -0.9442713174336576 0.25405224602855603
Ni 1.5007796723570799 1.5768812306115223 9.421128203380347 -0.3675762207913411 -0.8032421952720682 0.565517225648626
Ni 9.235513534660205 7.468020184914251 2.0435980654947983 -0.5545208745381224 -1.9011338412687644 0.1745136270722801
Ni 2.3773851385296916 4.060319133658164 9.547299171743457 0.10253019475544277 -0.8157732378595434 0.39171476571075764
Ni 0.4956017447066149 4.839720420947764 2.8310635685246006 2.103618499632674 0.6541097272770541 0.3047770260769332
Ni 6.473368445410656 7.279268967069817 12.086868370850935 -0.4129970721283016 1.00369645346951 -1.8458918900763244
Ni 0.014313122272014782 6.572842923867466 4.437276325269062 -0.9882428379186012 1.0976301648051936 -0.12346308825336802
Ni 6.951368855265831 8.122564300151478 0.5949143247511947 0.3831853880835078 0.6581335037244666 0.8718628817642597
Ni 3.2753537515114735 2.5326773511799727 8.04947368018425 -0.8261437824605901 -1.4553585462681773 -0.914170127172903
Ni 6.181030157258519 2.8416055743324358 9.867542605189751 0.6070042891488191 1.3916633221020613 0.28650728123346786
Ni 5.48612309304125 8.375563135033069 5.112338738129798 0.3074034079561867 -0.5922312446047027 0.5359904198341028
Ni 3.9628079060623023 1.8854279689995368 10.254364434538925 -0.23996234359439322 0.8844453464149605 0.9133252626741044
Ni 9.197113836541108 4.62300916122112 8.868179063619882 1.8863492267604225 1.4974711591675114 0.9972080175316891
Ni 4.5582497963292115 8.929432490481437 3.0717367237118958 0.2838780711407369 -0.5244983600341032 -2.581184971001929
P 5.03282614781079 5.845891139436442 12.589116324514777 0.407347330041692 2.896767315224482 3.375683358643096
P 1.6376303532234866 5.3564089686219845 7.167825171515744 0.09335701289660697 -0.8977955424696216 1.9454514322392173
P 0.36319303521943197 6.670233192879478 13.223923720670289 -0.9607500318149712 0.99632201538231 -0.43235207961614563
P 1.7226642376699166 6.775364811257879 3.0002688096695467 0.9998171730197621 0.22535436387323124 0.5098983507327413
P 4.5663074989149 4.215713695879395 3.6737643436441054 0.6235279978354552 1.1237965387879163 -0.5034343402749524
P 0.988994599582003 4.824498248395585 11.410117190069528 -0.47181722759030353 1.9222927347345666 -1.8638021946978416
P 4.0914054897075705 7.039222005166606 6.20122651895886 0.22176973184576645 -1.0100586482421121 0.5369635823806495
P 7.329401647822347 3.176567806531963 1.0077831894564615 1.6421584469069783 -0.5575105532940656 -0.10456522290760055
