# total energy = -340895.58406469494 ev
CRYSTAL
PRIMVEC
9.04516851142055 0.00000000000000 0.00000000000000
0.00000000000000 9.04516851142055 0.00000000000000
0.00000000000000 0.00000000000000 13.23851841611369
PRIMCOORD
 96 1
Ni 6.401636487585935 1.851301740076774 11.53754096129145 -0.09571471449550613 0.5813397945031794 -0.26251683185614144
Ni 4.402183935234374 0.45541879892228837 6.10857031975232 0.34349269747957617 -0.5883321666606125 -0.1734345350754884
Ni 2.6182053831276377 1.5923837962849812 4.802815244991902 0.2906652692658994 0.08647776927827042 0.3842153720099189
Ni 3.2798865828551844 4.125591732502174 4.763695796429277 1.425251956690784 0.9579105054836469 0.3551822180023625
Ni 5.1729046393255915 4.463537312098644 2.7237453118597603 0.4652331466148827 0.39875984548299714 -0.10608885864097857
Ni 7.3544545207397345 5.964320688583468 2.397019359074795 0.10589551168324988 0.32760970770073256 0.9794499222173196
Ni 5.308971106695371 4.598916346674426 11.582339871056062 0.37976633509962987 -0.3782337005051873 -1.121234948708327
Ni 5.427860799383557 7.7003779388139115 12.666918871448814 0.10263072488904905 0.1970786568569896 -0.6646283674201908
Ni 1.8938321216211937 6.598757841264697 0.3690193509188226 -0.3240273896661129 -0.8774388331901406 -0.5502199331699233
Ni 2.7909771436295427 1.6746224668510938 0.34658733343048564 -0.4071442128919504 -0.4732878985985591 1.012520222408727
Ni 0.6592987023862455 -0.050893544193498785 4.659641084338923 0.2999865466668253 0.005417828581461637 0.2340603762876614
Ni 8.530154547010513 2.178365982157733 1.2118843177064014 0.6882472923907115 0.26311127090703074 0.441684155650349
Ni 6.920241214478597 1.088115661214502 4.840730781648197 -1.1307040645410267 -1.5354589512651944 -0.896598951058359
Ni 0.7035132942759588 7.406780819598616 2.491634533483364 -0.21726335933498067 0.02525980300805327 0.16184580179662447
Ni 7.647626517042951 3.774973872058461 3.8033205251256783 0.44721305588837823 0.18554185986198368 -0.7875394398248309
Ni 7.771156381090619 3.8456166368100386 12.554603207111645 -0.19445381763963285 -0.1298021430975184 -0.3660186464962341
Ni 8.155051415864813 9.125489436948966 6.660629506274968 -1.6477169148313622 -0.8867881356155243 0.3061947323600662
Ni 6.857811462581621 0.4778815699829884 0.2726521274023942 0.4235385950895738 0.24519505274824224 0.48566184678287977
Ni 1.9557643892593564 6.416669557370458 9.35403280093125 0.1309527117621938 -0.02750154785437844 -0.9734091153398784
Ni 0.20288855301366612 4.7016151880303045 1.2994514969428286 -0.03411802472963157 0.024550178535538363 0.2786834143136749
Ni 6.405200283912711 1.957609603601139 7.166896623549045 -0.5922782957925542 0.11580557170811025 -0.5849663355121731
Ni 3.4673024709029034 4.176244675217774 0.6051859827798035 -0.33508287614932614 0.07942729018939225 -0.05843500420844129
Ni 6.048739244720021 5.757774269492268 4.6799746227718995 -0.09774999975798004 -0.49812732623974215 0.3311472885403458
Ni 5.589696951359898 2.9962029681428004 9.3874863560444 -0.5726895750273493 0.30407177247979245 -0.37155834536754073
P 0.2294750163215165 5.5653021323413325 12.461456968041826 0.6946213142378553 0.37604312061177175 0.7995531764562552
P 3.95321795940732 5.953394125226247 12.693329858490827 0.16892482013059296 1.2940483052600489 0.1228156844773562
P 2.3822802572613897 8.471351907618706 1.4652792817085256 0.6865591060550112 -0.06787660923731537 -0.21483520950946228
P 6.205736231633353 8.070768537253391 5.788700604570645 1.3093039458675386 -0.7579871800890107 0.35883472715328524
P 4.68740522856491 1.0219412096239078 12.769212489262966 0.7302254365947102 -0.12840783385315305 -1.6954121640247963
P 4.029622496392797 6.201421686334186 8.233974127716722 -0.339153446674274 -1.0939568297186644 -0.45393674776545695
P 4.8231822505477435 0.8830843078205991 3.753715917420925 -0.24809294312132757 1.9469735253106983 0.3267926111160759
P 0.1241214180572402 5.654170911302183 3.6952280498874233 -0.13800781883676233 -0.48685355309813566 0.029306205163285012
Ni 1.4964145601756038 1.0292406604759594 2.6685679759394563 -0.11006661234180398 1.4379092404434786 -0.924269420390434
Ni 1.7999251838938086 6.436957869961724 4.886946164775177 1.269455189301717 -0.5108249763120687 -1.2581814161601106
Ni 5.992035084383575 5.700418857035195 9.256424580318289 0.2805376939135943 -0.3997679750325373 -0.12210785977705421
Ni 8.530308314872327 2.3409438379381236 10.16523606045424 0.9197170251330612 0.388376445366144 0.7762666951244889
Ni 2.4413632968718 5.18005936748417 6.981359416965973 -0.1258416157878736 -0.0010081295495401991 0.47279784633601807
Ni 0.6391903886449866 -0.0736312883717978 9.196110493296523 -0.31091604909513554 0.008348629075011429 0.12919124898639686
Ni 1.5688663585955953 1.0710022027113029 11.434902722563464 -0.2420289963154348 0.3116832662784632 -0.6171472911200919
Ni 3.9670480218023467 6.677351308988954 1.6404778608766086 0.9932528895386831 1.1812162143579654 0.14187707198418145
Ni 5.546044968941062 7.802678792762738 7.983792912026536 0.31936906495849515 0.7326286467195641 0.041950119179540654
Ni 5.057750601162682 2.6037783396220338 5.104812612046478 0.33575059164031207 0.8581128791680189 -0.5002297172947255
Ni 0.582375877254768 7.3490364649028335 6.619180022347425 -0.39245164387678216 -0.6499584241128419 1.5753804700504803
Ni 5.001580105758418 4.576013980432302 6.889285030344693 0.5513972413074762 0.1332618195113447 0.2642777804113061
Ni 7.827462554020014 7.55115979667476 8.936290746221024 0.4462645759321798 -0.6783130639961351 -0.453256948089613
Ni 4.462497117739306 0.307633411448521 10.60110101445464 0.035454998373500225 0.41634593399587655 -0.4866044132018071
Ni 7.94312312161008 7.500778209009423 4.383948875856759 -0.5351401560186655 -1.1041090876613178 1.1585923063108627
Ni 7.22448449683251 6.160410893071234 6.856202327133566 0.1896201436964154 0.6053526124780091 -0.09772120340257365
Ni 2.2761261615988397 5.268503023532944 2.579274074066528 -0.37483084547122547 0.024803175086608897 0.3679544300663663
Ni 2.5575846648990748 4.96809489255607 11.436888137014549 -1.1592371389837133 0.8886552707312502 0.37518411504558613
Ni 1.2191530149860899 3.5941700020687963 4.002837943898255 -1.9096773599634014 -0.7020741709714747 -1.6294700528060324
Ni 3.8874505403921185 2.6097481507278006 2.5376653951761656 -0.865223264960555 -0.9231923852761714 0.5496352643110469
Ni 0.9388522932336402 3.4189017751044797 8.125537936081468 0.06702968785598779 -0.009005031712087717 0.8983789257769174
Ni 3.5944684926240846 2.6603106417599793 7.172404226552532 -0.2224772994357523 0.14070053517757702 -0.6058794315157566
Ni 4.189378259650461 6.954621899346811 6.033215926811358 0.020146393040887885 -0.3854592717193491 -0.7452386221740908
Ni 0.9559567065684972 7.460210628995232 11.379221570766507 -0.8394158169791479 -0.3745912186565936 0.536826799692469
P 0.18613509221048152 5.81092367867028 8.21336199809881 -0.770708484310421 -0.43626349885540994 -0.9540253114966281
P 8.434103904386056 1.578065294799482 8.175314401984721 -0.12208292007638975 0.040163716703079215 -0.8398151093000957
P 1.8997928875586185 3.1844781471830155 10.345067574847134 -0.627692670736106 -0.04437672634316228 0.2597364408975269
P 3.9518340486509826 6.051742240609589 3.8132096076740654 0.20517300382934986 0.14015751818991348 0.43264621381779683
P 7.169616505669505 4.063587103517275 10.383393762146158 -0.8717088726848987 0.9023556510364781 -0.0772667922029637
P 6.1437316026484545 7.8638331759234825 10.293477552691295 0.033744957660928984 -0.3772728792538148 0.4086927883259929
P 2.404875087779884 8.320966938763428 5.846778725978251 -0.18023407449582507 1.0054193496978878 -0.1404357115519646
P 7.063290551808456 3.9462712701206084 1.491345647836707 -0.2692865464798072 -0.2859246692571205 0.30578669828837013
Ni 5.424233686878386 2.827754798108405 0.42194715347245326 0.18479186906983658 0.5476169483294375 -0.06358466673018083
Ni 1.3208930684977087 0.8737107998677106 7.091106253493994 0.5598916519317325 1.023427099129218 -1.0019162216406357
Ni 6.588500620364788 0.8727945243146588 9.295187649248234 0.5035775507210359 -1.5631183648536757 0.14616335806436118
Ni 2.591784446400447 1.6162901762130755 9.067498149157444 0.5715377208110931 -0.8679836013145116 0.9380075959121329
Ni 6.469411933973077 1.9696034968227254 2.507825384815672 -0.5296647347263911 0.3761624197984554 0.3595422947432711
Ni 4.07881012183698 6.791311384930712 10.426458713139596 0.5999656371344828 0.5088917638450978 0.7539654605241274
Ni 8.090704088279317 7.158644716470573 0.24921338267758467 0.329363971387678 0.2014284491852531 0.7047925983439023
Ni 7.57399884673849 3.9842881126623344 7.907155009697833 0.32905209657421397 0.09931605869351928 0.9705829587449929
Ni 3.1230614541403514 8.433615465295585 12.46062300352069 -0.3026466099974917 -0.2767337467864718 0.4295740026503763
Ni 9.272292519140784 4.973087825480893 10.42669660106699 -0.19226786573190757 -1.1530091557961306 -1.1605954527838207
Ni 8.534197737259419 2.400298232598796 5.880589565240914 1.027635480783611 0.1191426065011432 0.49190422814816576
Ni 3.7950722361145437 2.8227437748468973 11.480535596849213 -0.028915397482769552 -1.2394401309968652 0.0761841006617462
Ni 1.1785582994668735 3.1682239796723133 12.60171858448866 -0.5079736229062025 0.907265686743586 0.06459691004477908
Ni 3.1135459370444916 8.291977174227089 7.942409457827891 -0.4339885867783042 0.19739258855298264 0.8813057723447146
Ni 5.516964752721303 7.906571596339771 3.5806881786549387 0.34742879930918874 -0.670450887639239 -0.11593772641060034
Ni 3.0917561265084417 8.511774764939425 3.6545193652470966 0.2015652318734335 -1.0279208732345135 -0.03629240667313104
Ni 3.626334620693202 4.244065347446624 9.331156665677318 -0.4316416838126824 0.5305628210606282 -0.7081365751154708
Ni 7.334826505437439 6.346271012164117 11.438490036327929 -0.2571216289824991 -0.8681990597594273 -0.9904871538680877
Ni 0.5914753166068917 8.972137652877487 0.35257975745710785 -0.22581382000815306 0.41447082846035066 -0.23009753498517146
Ni 4.669278711207399 0.3386710020975048 1.5825851654200151 -0.5704712272197917 -1.1968379800556228 0.23046134608249344
Ni 5.925390284039193 5.52424611323667 0.4121322413044716 0.39100796945172017 0.062332796600950716 0.6724249806464743
Ni 7.953244664984858 8.852415804701831 11.115497024517737 0.3189353198551862 -0.23853409578829887 0.3603161967948182
Ni 0.12972761339565603 4.706038275349578 5.886917565013027 -0.734640020722638 1.7205827497531527 0.44579869203935485
Ni 7.8718562402429 9.03668397416651 2.6404619243501384 0.23061329827932542 -0.24247354005202112 -1.1095186887126633
P 8.731201503749732 1.7193960501443473 3.704931706484797 -0.5331971733596818 0.23158029017828502 -0.3175235271093241
P 1.829909916947775 3.1932971863165354 1.8276703332662783 0.09476906275278517 -0.4585925013699134 -0.9533892205745258
P 4.630854836090281 1.000033811899411 8.312373124321626 0.23277456759670237 0.7046172491083026 -0.19685239977879646
P 8.571699005205646 1.4964688311856562 12.324822464100166 -0.03013590015343197 0.3647150971934622 0.6204236478785186
P 6.297734638840562 7.695104605670483 1.4712101985904218 0.22054794362352342 -0.3057211351577574 0.04651331307019086
P 1.66831798451667 3.155081350071284 6.0718993982598946 1.292589204216019 -0.6239609716078157 0.6706686600769999
P 6.845455762626352 3.870192359195446 5.783352196529978 -0.894197540705718 0.8781703120395263 1.1520822731064868
P 2.4644013406390557 8.463129849595765 10.190454894308772 0.18042356479881186 0.027380706005798002 0.29838217829418284
