# total energy = -340873.1490856514 ev
CRYSTAL
PRIMVEC
9.22498524388683 0.00000000000000 0.00000000000000
0.00000000000000 9.22498524388683 0.00000000000000
0.00000000000000 0.00000000000000 13.50169838022598
PRIMCOORD
 96 1
Ni 6.714202676153752 8.190172665734492 11.83557509263413 1.0622600128360158 -0.8239912548939615 -1.9643752657269138
Ni 3.6299856312935477 1.8824320714380076 8.148058762371093 1.3922693311171765 -0.27706079110858733 0.21050881421996648
Ni 6.163673997252276 8.091861996290929 8.734640529225963 -0.47323133432901077 -0.49171396651423055 -0.06711839091505216
Ni 5.84333637912074 3.9614485818215304 5.7705586242765845 -0.8187433762314609 0.446060944561806 -0.5409871017177457
Ni 2.029266164103224 0.22190148888648528 7.657056146781851 -0.34279849962602893 -1.099868824327725 0.7739722426633574
Ni 4.5752053106776085 5.433138178175115 9.933335132538035 0.35802200144400276 0.006990572385220219 0.6434635604171177
Ni 5.145530808254686 1.3991812110832065 6.11701217608502 1.0060469559795577 -0.5951443044864396 0.9281957520280336
Ni 3.585069177364608 3.219510680785822 5.742191794161266 -0.9696799873147494 1.4418499702587813 1.8437272783248375
Ni 7.391805528986456 8.342772374276807 2.8264460452298494 0.5080001052687638 0.7601895870569683 -0.890340371743157
Ni 1.7010873083788365 5.0458917409130395 0.9549538839816816 0.2639772184517518 0.9158786252235775 0.8278687355714969
Ni 1.3740892507860782 1.8544526907096293 9.388892176507154 -1.880707969314245 -0.3755700376300951 0.1367171250497968
Ni 7.197296711756696 2.7470346033821404 4.351611036969607 -0.26920838494370414 -0.10813622808831054 -0.3264534826091023
Ni 7.573602316330392 1.9604569979795923 10.624175839424558 1.644223814076439 0.1761097679148064 -0.9603491968321266
Ni 8.510288884216347 7.18925252448497 4.9296864447840445 -1.425881619854983 -1.1565408230984726 0.5572953519594661
Ni 4.235135448768295 5.007275952014591 1.066547609907538 -1.0445312280976848 0.042541472906636416 1.1549120292457982
Ni 0.999093594139659 5.803050867864285 12.01238024037631 0.41170457856912324 0.3691440794990933 0.6952836304122026
Ni 9.481808996985377 0.7334057120361448 6.006378771139653 0.7985956976389924 0.40712261562539565 -0.28074389638712943
Ni 3.4915555003307888 4.412716417782897 12.377668444882776 1.024114869224862 -1.2248403788058195 -0.9621625958917815
Ni 5.800237247316261 4.630444523272904 3.0144706202195906 0.5652434031619491 -0.09820997011353409 0.4733573183839138
Ni 4.918291742813819 0.7864825880528936 2.3217793812611576 -0.3149128289593544 -0.7257141789879179 -1.1451032706854924
Ni 7.929954277476628 5.299791014169605 2.3152573165809844 1.4938862700297304 1.9954565605127506 0.4359410825189847
Ni 8.406895247815534 8.788652818762614 10.079301154076798 -0.7751585496619747 0.023938770203784578 -0.8087453844784845
Ni -0.22901579762955337 3.662254630234487 8.50660996003749 0.12167462889437755 -0.7852763548222669 -0.7046326757272703
Ni 1.3624288692362363 5.360223893546989 9.145213264578967 -0.13744808967855038 0.05237465694697431 1.5927313026241021
P 8.957636101381286 4.715019189450871 0.2722533042150827 -0.20023674286999707 0.6361996797658527 1.2024177881362452
P 3.3999882952170775 6.412388828712156 12.74074265289244 -1.5629581851267276 1.2854417945379604 0.6419237267338236
P 3.7785724711854023 0.7858525215498443 -0.4351314914938159 0.62602479611538 -0.4946550514204255 -0.431168857941322
P 9.23909963102308 7.792963244236793 12.347654032374418 1.0599683885883615 -0.18134967615750702 -1.244486178061205
P 7.494359691715563 0.9522491182614176 1.4591556086860444 0.09813232279806325 -0.18668188700369784 -0.27567856604908003
P 2.7088062638706334 5.80243279384226 2.6430791653702626 0.6995076957958792 1.6077835689715343 0.4444635181676991
P 4.130311939629961 8.82382768810561 7.478712271474392 0.3455912318798177 0.892973695600946 0.4496584321050772
P 5.921564255341198 3.9779613056935377 12.069965366759678 -0.7325671973540093 -0.20692855306787586 -1.503236858006695
Ni 1.4559333212846521 1.0753842234254127 13.479177826970492 1.1218201317878358 -0.5973297421735325 -1.388401363521338
Ni 7.876200287531273 3.2795376608054587 12.73063022389328 0.5315033305970266 -2.9334818970366965 -0.15856918792788174
Ni 3.5558259736359696 2.5840752362318575 0.7326898531688443 -1.9543453922947376 -0.2950487430455757 -1.9847571718173753
Ni 6.019579725251856 7.068534365496653 4.185027173054346 -0.2841367241187623 -0.46457031621990313 0.6846945420424466
Ni 3.329555531662455 6.6639265057054615 8.18821327883482 -1.2507876947992007 1.7411299777768854 -0.013884471291576089
Ni 8.768016526415305 1.2682694432241821 3.5953541135908096 0.8234739489379108 -1.4651385084730768 -0.8779371129827978
Ni 4.332837269175238 8.17268209340973 11.944035091018467 -0.8762417275582458 1.1159916980315168 -0.07508546828092875
Ni -0.1666530513057865 4.040645081509341 10.823109882152306 1.192505671228856 -0.47229185323387696 -0.5366756188265854
Ni 8.382209186876153 6.392342935430663 9.132494777203359 -0.5994082219691161 -0.4264951066147364 0.09933534196722892
Ni 8.300872490574765 0.4648276420057591 12.788552062243872 -0.3387338426383521 1.0958301354819773 0.27036898091070855
Ni 1.7957541085880753 7.554386671735201 0.4456977897748199 0.675879771964294 -0.16673989666413222 -1.8203112133937425
Ni 7.007040612797883 4.485584577484005 9.680907244453305 -0.9121070739962871 -1.1007386285271883 0.04608676705573354
Ni 7.305588815406691 2.3767067893498193 6.657701485555277 0.8858411983212227 -0.5776780293808762 1.3873731793671396
Ni 2.3866882235562503 -0.1081740238368325 2.2530421700236714 -0.36991463911653066 0.3952531178813193 0.25160327026743123
Ni 3.2192247062383177 0.6731619448595287 5.083902370769026 -0.7390224660610497 -1.7219122671978537 -0.48623828811164
Ni 5.566660616903289 6.350664451378301 12.974470573066027 -0.30907565345228705 -0.002640780056956742 -0.03667344416163361
Ni 1.6071123820748494 2.5460221714430142 7.2121074258217845 0.45931112470349283 0.2578227688145818 0.2671623010479528
Ni 7.932242073856661 7.276945235729271 0.36213879448976205 -0.5882817730386515 -0.38482086680440175 1.826597046402454
Ni 3.5500326828026623 7.650105120280423 3.6206425660770294 -0.08054597717486774 0.008603682508610988 0.19848402184494848
Ni 5.902044186227698 1.6419643769287282 11.997487423941132 -1.4012034003820126 0.2604190687868483 2.71831424388848
Ni 4.647898195656054 2.484961993058201 3.937824316702076 1.172031462534904 -0.27528210194160974 -0.4065356327736741
Ni 9.283102811397088 3.45939720121469 5.967264833029423 -0.6103716629591552 0.9094161574276853 -1.4893043070860028
Ni 5.921896354815719 8.93436146320862 0.27410199128991525 -0.21179333735934494 0.7305735639627482 1.7568964965825227
Ni 4.173927670617028 7.434969235688759 1.298200830863911 -0.7910446247646119 0.597432586299984 -0.20364756832375894
P 8.056419602371236 4.729299466855266 4.620605153841684 -0.03153895114854568 0.7590752709468669 -0.43726160110262113
P 6.615993481549624 6.424233709970064 10.458996018287685 -1.0513603352043766 1.1835065530540392 -0.46724014974258243
P 0.8978991942590057 8.326112050638345 4.2909207804994685 1.1527672149886534 1.1760956053019487 -0.8156734790568856
P 1.839240689779495 2.2843185605352097 5.056440511721776 -1.8922442520886187 0.6405016495753163 -1.0972630112737618
P 5.579760096176054 0.2716610601521872 10.491589736714822 -0.18963351343285406 -0.1746406395684476 -1.8012927633097107
P 5.15900851192899 2.9133703151900514 1.8370543682388998 2.594015289997378 1.247315162869568 1.7910366327993412
P 5.275704577281442 -0.028255207791938925 4.259151775767392 0.3338238069312444 -0.016642493652687468 0.7093581062273977
P 6.891682170328917 6.99628427981757 6.72681599869576 -0.6067677476579808 -0.1590191309811068 -0.6934038968909865
Ni 4.192774315796084 5.342521146557949 4.417040168441449 -1.5805005648858652 -0.11608505062174201 0.660091913002418
Ni 4.087065208059029 7.32537640909689 5.890048937707714 0.5110118955118941 0.13565474522355347 0.6306139581479592
Ni 0.40562076318848034 5.728153211374438 7.055623075926117 0.8126575750486972 -0.488275630256643 -0.9494243223895067
Ni 2.78496774336074 3.6926048322115284 2.9809451782667145 1.067199359119162 -0.6195618140988555 0.15367560728100632
Ni 7.299159000580552 9.574889099705237 5.312405259210154 -1.466982760770667 -0.9094945760741047 -0.4973701363587434
Ni 2.7370531691757094 1.9843866101158976 11.138293500938987 1.0950307795091334 -0.18385418774691561 1.8352310679283683
Ni 0.17379319000798402 8.948346541080108 1.3771731634064202 -1.2504989599141885 1.7789159382764073 0.28734494664341487
Ni 2.684701377011664 6.9728897168346595 10.613968393075742 -0.03515469352426204 -0.6256684412172258 -0.2972462649175268
Ni 1.3576042018702812 -0.24936980542351794 10.971736389481395 -0.04875762901967732 0.5595664073818298 0.708145059755903
Ni 7.793212318842683 3.0438854086767315 2.0791936301032674 -0.9014382814285314 -1.5270815258347765 -1.2380627910333646
Ni 3.4306890466394466 -0.056730892735018065 9.771152509158716 1.1015716659514447 0.08375548525110092 -0.62452918540646
Ni 7.489175249918878 4.937415137554976 7.155859922321901 0.26721423733181077 -0.5133310305633739 -0.16545125975969568
Ni 3.138266234338466 4.261315957343019 8.144534817947012 1.0713730308808773 -0.592989720037282 -0.7787776344718007
Ni 7.663804223604406 5.6050273311958465 12.213177730155538 0.5763968486756074 -0.19822768285976827 -1.1534495857676588
Ni 8.586090589275724 8.076483945623535 7.38411927114838 0.8527045636682541 1.0364083418802343 0.48751741193437975
Ni 1.6167248168651462 7.581609603660505 6.32141386766134 0.05903252858312413 0.3573532575117523 -1.329695365039697
Ni 0.5510480455796851 3.4277186013395653 3.2593912151830695 -0.34325924131253144 -0.020157191674165287 0.9933819589173797
Ni 5.033511810501735 2.862328470953283 10.002760527686613 -0.9214574048629357 0.8071698124612485 1.0748018540567683
Ni 0.5395094338371675 7.036597466030235 2.3672262718507904 0.3560862178738706 -1.1825362187209698 1.5341338046958677
Ni 6.402951668644523 4.421784578434395 0.6278764915144545 0.3243436353549511 -0.23551947733169115 0.46968732573149435
Ni 5.277531124391307 5.683393582197355 7.4614707737555195 -0.09792097811820556 0.16409577417306578 0.24243908726965988
Ni 6.345203260019514 1.4073084232235629 8.682226929659716 0.24759414910803812 -0.7422736260084958 -0.6632566838836448
Ni 1.2721716120498017 5.779988404355895 4.383070082192131 -0.14492511478188588 -0.37627529122723585 0.12188520224328687
Ni 1.379836416692369 3.430089422588228 12.911026658452986 -0.6429372556000024 -1.084392325958681 -1.1230097812205628
P 1.8253755367182511 1.9429756506402327 1.8311679050530185 -1.4895333923776732 0.8401467816079015 1.753046269598497
P 8.650582462230584 1.0158092676905401 8.199959452748914 -0.041221211433316106 0.9256860982323025 -0.21364093209104498
P 0.30526030198829024 1.8992030949013088 11.624449309197304 0.7215258519381832 0.3387307573145586 -0.4586930315035197
P 0.9463266776324629 7.585889996887662 9.151964108897142 1.0625009252022282 0.4376004724992786 -0.1301818950344403
P 2.7031052228913595 4.046327672517808 10.40586748235268 -0.28535388435531506 0.37411556457175565 -1.1952544376185867
P 6.164771770515275 6.770364387289383 1.6914527336235716 0.17633782476521245 -0.8577981761410773 0.7370722843132145
P 2.641509995353152 5.568607088823397 6.049314620702493 0.5790006048470415 -0.5186871526689648 1.7370033572030212
P 5.660091269068478 3.523833724257131 8.010868469446544 -0.01723307604883484 -0.15986065304579566 -0.7320390927646813
