# total energy = -340886.6490055745 ev
CRYSTAL
PRIMVEC
9.14086431824970 0.00000000000000 0.00000000000000
0.00000000000000 9.14086431824970 0.00000000000000
0.00000000000000 0.00000000000000 13.37857890248812
PRIMCOORD
 96 1
Ni 6.882229797589201 2.423288808845018 11.433868290380826 -0.2481255961314759 -0.4254571522685254 -0.4292091631117898
Ni 4.729419160991873 0.5450349981100123 6.208891801124912 -0.7697183524830099 -0.029819397354277678 -0.9432071378352015
Ni 2.852580356038007 1.6873761122814124 4.576838941357683 0.010075381958131036 0.026395202164077123 0.0492556517020184
Ni 3.360922096999095 4.698285377461097 4.474613000448091 0.3475306149943757 0.014248282388898042 -0.007288563241613254
Ni 3.7224341360063247 2.7303761422908166 2.471196992304544 0.5148929757338552 -0.008007957906141047 0.010041443396402061
Ni 5.073526994525645 4.673221127771906 2.717122803259322 1.0238312765461721 0.7107174484687695 -1.406064842239372
Ni 5.120337360192439 3.4578335394516135 0.27921592435487463 2.284221270321827 -0.6292690140842905 0.27554075491963514
Ni 6.604429793101888 8.334091543261563 12.56703380504894 -0.7112170138130074 0.6094712626320729 0.47763229161018383
Ni 2.2541645390604024 7.1469857888356385 0.11414288559223185 -1.5053014538452076 -1.8078411059511894 0.09477086252499807
Ni 1.22973874514452 0.23935444366755695 13.343901229660487 -0.8884066450555538 0.03578538512972547 -0.22786607455149144
Ni 8.403552970463666 9.002078477811903 7.0064285479090325 -1.2047780608383059 0.5830652618347184 -0.6175722944726526
Ni 8.838438726558838 2.6834469453891727 1.6092957642069765 -0.3905767954515725 0.2310735257451956 0.011093024589367994
Ni 6.903518870355841 0.9068596546735405 4.835326127922558 0.6499784787174999 -0.29354156237242995 0.1508993300874498
Ni 1.068484759452681 7.8277333698360545 2.289930912577495 1.603410636714819 -1.1064117676525653 1.4252262456591713
Ni 7.655738868686592 4.1625484664349095 3.770230800922376 1.0018863968439646 0.20200386207274887 -0.2922963771114192
Ni 7.981418719954352 4.004576050997782 12.966237283577835 -0.9536766699079575 -0.4167501114128307 -0.7681044710286707
Ni 8.424878606687184 7.515920209588901 9.005041031905362 -0.8731564037647026 0.19191511037817915 1.007539481364684
Ni 7.327737237907144 1.294099570112279 0.3482056829632633 -0.6113365979755858 0.06685176751722681 -0.4290027035279386
Ni 1.8824787181771445 6.872832989171808 9.233814925239132 0.20661796380599257 -1.4416059725687755 -0.4008347257341548
Ni 0.05778945768053823 5.142567941973661 1.1980583379334335 1.9478726400862 -0.1876203396575672 0.16757113431617593
Ni 6.487317040724821 1.8112256815880687 6.964901601760967 0.35821354862951854 1.3571233793436628 0.8815091466047723
Ni 3.3558032130363133 4.876468243686992 0.12226088710535028 -0.13482145068898072 -0.25850231138010965 0.28159133198908926
Ni 6.08935123521121 5.969404814926175 4.919210010689797 -0.8462166419510652 -0.04817578837427832 -0.7113234574838846
Ni 5.786468699306268 3.1330129294204645 8.96502598469916 0.18161681377596461 -1.0370009811589107 1.26878156027346
P 0.6032540764088555 5.915985604428863 12.491418748054436 0.40692849733671854 -0.8135181232767795 0.8275506901104458
P 4.158791571240797 6.4968052577844055 12.287716417101231 0.6484108771200638 0.21179153758713204 0.1667776918806031
P 2.803457351723743 9.030451720348463 1.3740739052529438 1.457439340056606 -1.473328757593353 -0.48896545723481594
P 6.378833264170729 8.224309763988337 5.883202808992933 0.6430177311289506 -0.9136826460135233 0.08080874391795116
P 5.15763208620699 1.4311759699441944 12.555555621848823 0.49605553131237795 0.03163716728930681 0.7333958639028918
P 4.449434489956159 6.416383934383419 7.884999970083252 -0.2712860934083392 0.13171735784236027 0.9668587158158702
P 4.854283366226866 1.2974451264165257 3.7383895145010304 0.28663480795026763 -1.3741250561079819 -0.21092918958683674
P 0.45971142922824076 5.647390450210337 3.539249388879654 0.9507826361896142 0.2098344138607612 -0.6405039635681614
Ni 0.3782160542814923 9.050451931260188 4.793557862959104 1.031257393806914 0.46406663711060725 0.05788093147718419
Ni 1.8663999380154788 6.8537651464104465 4.801130154878334 0.5225931725915902 -0.6161921262956743 -1.9290020284339422
Ni 6.283347796536413 6.011343099964107 9.180460614877777 0.2885731626235611 -0.2843578389906328 0.3865298790757085
Ni 9.15475833286608 2.8664927513797105 10.197219965972973 -2.753883142132025 -1.5891795807171019 -0.2624530684977415
Ni 2.8057517086427755 5.286847342810348 6.870649236709828 -0.0020260292910932853 0.6271964478259778 0.1385876025996323
Ni 0.9617743105571237 9.080369979849802 8.766380379832047 0.1087833747540062 1.5705341977017728 0.26735873332947496
Ni 1.7267366736095149 1.3577565485351557 11.383069765655172 0.4379493711982651 -0.13988035326912684 -0.8065884860364817
Ni 4.322632421506684 6.898921015653556 1.470733973939433 1.1189191560909568 1.4070441754335057 -0.5180508046365465
Ni 5.970538282089363 8.316431393589967 8.204012474989486 -1.4445532281225573 -1.1842449738819605 -0.9957597151209368
Ni 5.426346071660366 3.245070783884285 4.510132570631264 -0.49593983167012007 -0.47349178707924905 1.4441706479721579
Ni 1.1554052373135562 7.48572793507271 6.821817825964159 0.2027044876841993 0.6726406962017061 0.39394751169601827
Ni 5.4226714442442265 4.537835787820553 7.207856631844487 -0.39970729699793095 1.0465456874245525 -0.6724483776852419
Ni 0.5196937802349777 7.669175939088895 11.308805728392274 1.9045685779819264 0.2922151302515225 -0.14432759040720305
Ni 4.894594577433772 0.543314687463949 10.5507355769612 0.4317941502301466 -0.6711926509012698 -0.2603727889299451
Ni 8.291696215012669 7.047706862550334 4.585949640725012 -0.0270919711207856 0.3070830485022905 0.9620939474373753
Ni 7.334355223601883 6.465305839684859 6.869056898162835 0.7536674696677342 -0.12736987950694192 0.6732073673384534
Ni 2.5917823589985054 5.634675508081356 2.303081873929734 -1.575313621368287 -0.6711494563681604 1.0354809449699585
Ni 2.656335142114869 5.194405782961045 11.149105689617707 -0.22612055261529446 0.5228896207860866 0.051573501201917636
Ni 1.2790445667431696 3.459798825258753 3.3951619461915725 -0.44790751085224156 0.7951766446551144 1.5670590946689784
Ni 1.5129592821138493 1.306275201252324 2.1162901417821463 -0.06571482569930617 0.08217322836564557 1.847485202705373
Ni 1.3288714176023169 3.8304243058925778 8.17894091260892 -0.2639993299389389 -0.16598244967281736 -0.14125897878420834
Ni 3.8731944095744617 2.698693906906886 7.051567963596547 0.4856975851168216 1.2582328382233363 -0.9468953853200659
Ni 4.090454470337662 7.3981584558522675 5.954604841668783 0.44922314433987154 -1.2991730280811238 -0.6298323427869282
Ni 8.828484325424071 7.737924378881895 0.4891934585945969 -1.3039712208007157 -1.3002500631953866 -2.227462625374544
P 0.1889763986959889 5.989807223863548 7.905642783749589 0.31486269244770937 -2.4030874832331324 -0.155910410148796
P 9.073815980204598 1.8412625614125335 8.008042401079347 -0.7649484418981923 -0.37430145533031667 1.5079957128479191
P 1.9788234270480691 3.236981119050246 10.345748954585188 2.8473519980161477 2.179773032608065 0.029187163086917475
P 4.347541276504148 6.527116363535447 3.6546527996477214 -0.17684021832292768 -0.32985016699547703 0.2515665034922248
P 7.3087973672448525 4.214642251620432 10.180134776660767 -0.11285368816863792 0.5409649902305587 0.711556142319981
P 6.784623649456018 7.990084259234203 10.451666890552936 -0.565539080025497 -0.26999848494516726 -0.880562980641419
P 2.589369170844623 8.894645900643024 5.585021419555953 -0.9786125139176888 0.1402161393419908 0.43893204682650855
P 6.971499477554423 3.9798865767415803 1.6246012272556938 -0.3842691080659898 0.49731588608204025 -0.6862186919964569
Ni 3.1706184448184707 2.18556235309491 13.433297053551934 -0.35910340743363967 -1.677336537470008 -0.23033459069664206
Ni 1.7470385330404754 1.4598874244568674 6.8271953963843455 -0.13727865398022165 -0.39388194856540554 -0.4475706963381131
Ni 7.16361302085046 0.758678932988077 9.155898198634222 -0.27277810457283347 2.4065656715897195 -1.0690253565843073
Ni 2.88080734474706 1.8125236843072026 8.962323031149527 -1.4096556449144237 -0.0589170860511824 1.7957633488510492
Ni 6.665701005963539 1.981812489647765 2.787279850228509 1.2853980857842187 1.0503648040603264 -1.1896712871038544
Ni 4.24964262071595 7.314757210715805 9.945997024203137 0.03671612447411096 -0.81090742512681 1.4889016723309454
Ni 7.8129160289366455 6.304280375598502 11.62868752948576 -2.0521740678094527 -0.739626675303952 -0.23425886545171268
Ni 7.904946249896082 4.119074516208143 7.934165936459346 0.46073397319294845 -0.21118912811644272 -0.11959126400278758
Ni 3.6470311470617083 8.69467121411843 12.714412872942374 1.6732965630726793 1.4729520909802247 -1.2652038702245307
Ni 0.24579509659644247 5.223592562413119 10.167693146371942 0.16969563685834646 0.32436548973182205 -0.3671229353040064
Ni 8.636608444597735 2.4175483461153275 6.022086357680996 0.06957045199997051 0.8764607855475872 -1.4747487778693311
Ni 4.087044927983881 2.7960806742988056 11.0918719964817 -0.3309331156470107 0.5001106752183581 0.1139194104289909
Ni 1.261192458922969 3.776986813666826 12.668443466783751 -0.07793450769394965 -0.695122679354306 -0.39708168644962577
Ni 3.3316439089048284 8.640246508556999 8.152303520187596 -0.024566119375138338 -0.14387430491986836 -0.876580084734271
Ni 6.062202868480029 8.23308499363882 3.3997241515234013 -0.6683289562002296 -0.20862702381622134 0.5251462780307472
Ni 3.3870101234808425 8.456725377627059 3.445679846385695 0.12728451888198725 0.7493367035028643 0.1410615180614216
Ni 3.870004247961942 4.516007404064977 9.123147396223061 -0.7236454693843473 0.5202028179825428 -0.032929917958801354
Ni 5.453722959997028 4.841815227431805 11.3490218746113 0.11463880509351869 0.12181475401666764 -0.04580651681115337
Ni 8.314831742351599 9.035342082705762 2.2908404285673103 -1.1525787531269311 1.8871578387046464 1.3073547925609676
Ni 5.33160101402781 0.6495242170002913 1.42095191331496 -1.765553400926572 -1.1250345249600753 -0.41777983822892567
Ni 6.247424200154749 5.7683332246952705 0.2010734184037481 -0.05597728669656811 0.5782336447740299 0.5316614534414456
Ni 8.489221149926502 0.35703301553979583 10.766879538203229 0.9913271332708798 0.9471216423982592 2.3478509313573306
Ni 0.3782964938866217 4.886605462106144 5.660824778353373 -0.04858716488008406 -0.025787393376749134 0.648094888541542
Ni 7.877843587485998 6.477271230947862 2.3782298327626332 -1.3812238719362921 -0.2829866696747191 0.6956628681284922
P 8.98192287220845 1.7329433204143876 3.835424358620509 -1.067339484241452 0.10533346853219279 -1.1842683709207282
P 1.9812457560661711 3.35658018649495 1.3891115409800368 -0.6263397562526374 1.5694340226590584 -0.853092286024976
P 4.767637114292569 1.2054331871855266 8.385559179248066 2.2036547243216695 -0.4506825024942174 -0.25167243294246977
P 8.982507887518482 1.8227248887758887 12.536437504334256 -0.0966696222096077 0.6685148469587906 -0.7015596932289014
P 6.606651023107166 7.797394841492354 1.3508213748520086 -0.44581231888610967 0.5458619133115438 -1.3126690056850296
P 2.1986703523853186 3.4734918398591934 5.783252029187514 -1.0918528960017841 -0.5879459869657875 0.4810960817890683
P 6.948693021327388 4.072894870172478 5.8441512088754415 1.2352800860819046 -0.24667883638262034 0.2611510618568664
P 2.3853999266562154 8.61476177911372 10.384292322652092 0.9012817012460091 0.48142878253813864 0.32215768344722584
