# total energy = -381177.63465438574 ev
CRYSTAL
PRIMVEC
9.15234778860983 0.00000000000000 0.00000000000000
0.00000000000000 9.15234778860983 0.00000000000000
0.00000000000000 0.00000000000000 13.39538612213203
PRIMCOORD
 96 1
Ni 7.370175254916892 1.1642884802726112 8.432516647234682 0.827415192973846 -0.15384221476585763 -2.012240979059941
Ni 0.6783317555615253 8.079738482431395 1.532190899970488 1.1394463295100312 -1.6831459450629336 -0.8296741642113519
Ni 6.986572897641903 4.968104940784044 6.607166891876243 -1.0050331700030626 -0.12080173937112097 0.6481337121992773
Ni 2.418599454429144 2.4639127288516014 3.47831320766661 0.1829563585229946 0.3006971995806047 1.0803220125440491
Ni 0.602805665506675 4.955062845035306 12.180183453417335 0.615503584869082 0.9838801900745313 -1.6748106857243608
Ni 0.08451278045182288 5.757934259327623 5.986773159421954 0.7868496128466577 -0.7006631495565612 -1.8955368067969616
Ni 7.69909233352612 7.009774099552815 2.4550532560903537 0.36722269410666436 0.026629943882702525 -0.466417653841287
Ni 2.1240585945092216 1.9296261158522445 6.211494418198844 -0.7077401110080005 -0.1854719258559967 0.9170749595245238
Ni 2.1980736319267966 8.023698656277343 12.860508590350141 -0.7017417273327206 -1.7267042892698583 -0.2885960454416965
Ni 7.168164632203806 2.2884073056391094 3.583855337874135 1.168172236689814 -1.6076210752517408 -0.21411427218303772
Ni 3.416891800950974 2.1862854078395166 1.3107461817395987 0.2248455425576128 0.2448937194577395 -0.8627858591636561
Ni 7.733798036739603 1.5322677796927966 12.828037890492336 -1.496636836191674 0.6470541059818533 -0.5182405520498494
Ni 6.380120021499527 9.104435352626986 3.2940590551023856 -0.5896128331452491 -1.1596462014966737 -0.7747608000029238
Ni 6.553959717395339 6.211506316251105 0.2835022131251484 -1.7039389705488848 2.9795455241639783 1.5612226904928597
Ni 5.764743606160648 1.4827352728912735 1.2667865395706415 0.6817992227725225 1.374395279050233 0.8118029403578859
Ni 7.3774788285361845 5.6006328560759995 8.783555865938139 0.8609871153920204 -0.6846307786840466 1.3995774347428156
Ni 5.6915614324014125 2.716828710550289 9.129612546448183 0.852584750260938 0.23974431404631616 -0.33561509450371235
Ni 4.505554430576693 6.001908397134016 9.641182116740211 0.622256073101567 1.1014485101100193 -0.6995084671268275
Ni 0.5491893810749152 5.693849519374875 9.555009100380444 0.16476374677436784 -0.7971965032986207 0.5547273341219736
Ni 2.817348947468457 4.654847529421195 8.714609398784178 -1.97687236975266 0.3366327371349493 1.3582970879367895
Ni 0.5176256788933903 4.178907134245139 7.62520268327469 -0.8393646520262383 -0.17488283748624076 0.41646060519686984
Ni 1.8356406553302855 9.177242280122574 3.5017953866578644 0.03538737836035841 -0.8602926604281571 0.2648508793059568
Ni 4.669299086745586 6.143714875401348 5.726259813736582 0.39801705377970165 -1.1891992325634424 0.5293238064472044
Ni 4.220669297684783 0.9316998632461683 3.1723621156274238 0.012058216716114718 -0.2310375303009376 -0.6756668846225395
P 2.2166803551949967 1.8300211137234608 12.202139020779898 0.7548404069299129 -0.3883337650536667 0.7827044803300327
Ni 2.1365607017322223 3.2565243611549115 10.489712764205374 0.5673910456325713 0.1669252732020609 0.6003603014697402
P 3.6842135782345826 2.673593019099735 8.023327070952853 -1.391596730530184 -1.754731370610404 -0.4719054164287357
Ni 1.5234906780625932 6.585654298151746 7.604775558010403 0.37320616538360885 -0.0629604028826206 -0.34359039939970504
P 0.3527049460201368 7.458477107396769 4.234348396846933 -0.36474286510760406 0.4033778038709827 -0.02979317210203256
P 9.042538023820871 1.1888899914112834 6.827695460082959 0.5130497518775293 -0.34473454030647727 -0.08128105556867937
P 5.92881774685372 6.690970365366293 7.914155119570626 -1.9195863915469973 1.3462434992063652 -1.0047310653816115
Ni 3.8765135598322926 9.03377007453856 11.705290086840337 -1.1797558277623552 0.04634721980597179 -1.0389498773551658
Ni 3.2585561823873466 3.951873992390264 12.814789866915987 -1.9772649772053883 0.5186460150183843 -0.26169819260958804
Ni 2.626522493881658 6.014053562789157 11.20509322404121 -0.20686453259915988 0.3414772097114442 -0.6322021285706855
Ni 4.31096636200552 7.630138544493843 3.7326514642280015 -0.3054331716036933 -0.034300573054082864 0.655181105964362
Ni 2.3638226522844437 6.436260523480411 4.9993052947541825 -0.9431366896085822 1.6640542185388048 1.100606216714382
Ni 4.373440288728949 2.85055366562735 5.603289782669585 0.3498559206934426 0.1802088776848445 -0.12629978637121472
Ni 4.041539544706326 6.49367320181854 13.185735442288571 -0.07820858729094274 -0.18787616442211513 0.874002810925398
Ni 0.5276090599760033 0.3336946042098183 12.713829402064125 -0.19505288467621246 0.597648558965532 -0.5654591187171809
Ni 8.66803310035237 7.023127375129944 13.061372423872129 0.46403244143856215 1.832776949960921 -0.4381005520641487
Ni 2.8246708257835382 0.2643344509310556 8.254290230993348 -1.8331153071369461 1.461692201795689 -1.5954769836900393
Ni 1.2698425085323983 1.1733767617312056 1.4003668875509798 -0.12905189519505517 0.6363464897563622 0.3328138776094913
Ni 5.479611359875604 7.450834896905403 11.397705300702098 -0.130823128162865 -1.6221673484970323 -0.7192794791061677
Ni 4.434632886747239 3.9222112328662924 10.649479809979598 0.6585754763578916 0.15461277438329502 0.586649636751867
Ni 7.680302563300042 9.05090326979585 0.8611425828628898 -0.24857939583944288 -1.7747417522940598 0.5979915441272475
Ni 3.701740324451308 7.662208371513898 7.076662203665449 -1.4201596297695414 -0.6235987031723904 0.4142468853750027
Ni 4.877780419419625 5.574814082667445 2.435602686346341 0.5792985957034346 0.7459479895362895 -1.3171797490711896
Ni 5.201224393988329 4.064731594269344 0.5770875679249527 0.46018529977833 -0.9678084813236494 0.6016545948011316
Ni 8.053635986238131 3.438756760069385 9.04874423092769 -0.31996016157527474 -0.6794353505260363 -0.19191845281228884
Ni 0.7371575564144651 5.263304769752322 3.3994547477436083 -1.4788049502165757 2.4708589343511513 -0.057731807493829605
Ni 5.449765553393756 8.938036515568875 13.285302919790988 0.6541040708500994 -1.4106149235038996 0.270175891063296
Ni 8.084863797251952 7.2433511701517945 7.139406124651746 -0.7000208879868718 1.380395462497726 0.3224865275415543
Ni 5.23452063562616 1.0685000072155637 7.364381818700084 -1.1842048646726444 0.010510669723336738 0.16060241630782662
Ni 9.121074321098007 5.266901642474607 0.994570086633401 0.477612494115842 0.2434572441215291 2.9237191612229774
Ni 0.3408965867674899 8.817408570327915 8.604298895323955 0.6034327697474768 -0.8467136361921419 -1.0097616858269836
Ni 5.68098131823612 8.190189016814392 6.142414326765632 1.4878477771451344 0.26015604493344874 -0.4616503143596307
P 2.3134755865203678 7.457653396086322 9.375256987745203 0.2747959063338106 0.06877263868902349 0.9678709591304686
Ni 0.35633659766441705 3.256194876630733 2.371800753943514 -1.1825768421509182 -1.3353433073540937 0.6849236273341172
P 4.963629442663949 7.701673295632186 1.7252587635564918 1.7341766863875034 -0.27247471439980175 -0.5156812759631054
Ni 7.824827288891848 9.242040903211041 5.229786126060672 0.3936742034299736 -0.6006428657071656 0.6049026694247841
P 7.675717237005223 2.703759157757869 1.402805073029902 -0.21570938458429945 -1.4035171361168537 -1.1555427208512614
P 5.575399832932652 1.0480262049770181 5.06392453182393 0.6631245291811547 0.046594559930087494 -0.18598460382635712
P 9.277002872165552 3.321487726505468 10.775730957766541 -2.192532903376895 -0.07929899214164407 0.28562127908408874
Ni 4.567076513119161 1.975882082107769 12.387557351996218 0.2264792215062938 0.20259187336573498 0.24561851343890606
Ni 5.158894784979267 3.0316694780987734 3.093316032572598 -1.8140485203134822 1.6434673955263892 -0.27558240679084794
Ni 1.7831977018985177 0.44574496900466093 10.455206582175975 -0.07410407820426593 -0.28403593687483986 0.978406825664786
Ni 3.4898177089691815 4.771723012025675 4.010993583610596 -0.6802807292454671 -1.4486844766821112 0.8251665061489852
Ni 4.734656003055578 4.384880723596263 7.681892326129205 2.6185022193951486 1.6883118055345891 -1.2940786442773518
Ni 2.4329869453182784 4.284049306849703 6.499119764050171 0.9992106497840146 0.7452699896326584 -2.2303898263236683
Ni 7.759653419539734 5.892016155972543 11.12884684420711 -1.2017716699118142 0.02295275214143144 0.13530224698014118
Ni 0.4276297268183611 7.6629680163890885 10.903683527026951 0.06825276162981149 0.0667196128147367 0.1453426619352787
Ni 7.524126898839364 4.3896033351094905 13.196116950504566 -0.15480097913470114 -2.477621706996281 -1.4844611200610887
Ni 7.0510511885540845 3.020851402888241 11.305183300608366 -0.7694720408001587 0.7912955644331533 -1.3359881400269444
Ni 6.0836205591303205 0.6444149847364911 10.24138943067982 -0.2742243501010567 0.09922864118603555 2.0438778892389315
Ni 3.190041706053976 8.755273280476558 1.3877082751789942 -0.11494142393560204 0.43999365532180357 0.19458160146674874
Ni 1.0402650139630323 1.892421821663739 8.698079343253093 -0.4162446325313218 1.5078555877256288 -0.7334619412541369
Ni 8.656162505134043 0.1592435314746975 2.9222705484887794 0.09515729933013935 0.7376818928727553 1.4158291207149876
Ni 3.795652566190116 1.5751190725318083 10.010720061006717 0.6092982273893183 0.4752180257417364 -0.5117842549015443
Ni 7.743078517503969 4.247806009190052 4.647757205507828 1.1607756871154267 -0.29609363937032235 -0.7851094902270995
Ni 7.050923055683571 2.2535551648593235 6.175273086174137 0.5548000963414381 0.6634508021723219 0.21712426265395512
Ni 7.2834842156663315 6.649967846801839 4.7441231917169775 -0.22007383220058227 0.6693044327396216 0.22757271168078874
Ni 0.28428656933965146 1.83931074683572 4.523742891546143 -0.025951943979071437 0.0989321929915393 0.7380140794011935
Ni 2.4213909205367683 6.521981413854222 2.549436843745695 0.8173012444682957 1.7103140208372931 -0.833241826957952
Ni 4.5556818399913155 8.466068239378751 9.146169143788159 1.5755403926671125 -1.7903316363125166 0.9817276625079029
Ni 7.093719434435219 4.502927706731157 2.2520587559786787 -0.15922044835863544 1.0966505745007435 0.7577768638504174
Ni 0.364670725656558 3.022572044292285 13.325957649135475 1.0080035654852961 -1.4543097932886888 -0.041787882570063516
Ni 7.517738560009456 7.982503938407119 9.40788785369115 -1.1253070618951715 -0.4320006098139979 0.6575472922036933
Ni 2.3166880606311095 4.314956785687239 1.8889237942987092 1.3238067674694038 -0.5827330753062804 -1.3432641048630671
P 7.306063057920463 8.323685163194108 11.752950938497568 1.8400197475662632 0.9514310684068905 0.27174503532262884
Ni 1.353632253500607 8.516278019924421 6.154992398476152 -0.6695908536317887 0.643436306723608 -0.5553749950083016
P 0.9388661516470539 3.888750248966372 4.83572080467343 0.8061861083917407 -1.614539142527813 1.722294847348253
Ni 8.524826312857277 1.0903741186818683 10.362939017353693 0.44536906070110394 0.04837607731054249 1.9072546094545215
P 5.512514050554 5.165640065377035 12.097909337260349 0.0506587026971321 -0.36808529921727573 -1.0628775918153566
P 5.669110723017795 4.920576798171274 4.382809547267884 1.0152250229344 -1.1553630007402875 -0.624287501709299
P 1.873403242740316 5.9245619050830785 0.43233586410537944 1.3216125880315626 0.8724349522176459 -1.1258454508971452
Ni 3.540311212299559 0.25689267685856515 5.187912303976723 -0.16751354160536314 -0.41866121239261445 1.9162316161421515
