# total energy = -340871.3425704489 ev
CRYSTAL
PRIMVEC
9.27790164269742 0.00000000000000 0.00000000000000
0.00000000000000 9.27790164269742 0.00000000000000
0.00000000000000 0.00000000000000 13.57914687876125
PRIMCOORD
 96 1
Ni 4.145375684481079 1.6366032752636934 7.8300079952811785 1.578958417209726 -0.014877431332464698 2.2956768204569364
Ni 8.960059185816787 7.73226808596293 0.9805572908655658 -0.6330382513187356 1.7216798394720738 0.9770328281353947
Ni 5.385404336461792 4.018101431201182 2.581844233929964 0.016342188803449273 -0.4506709325299916 -0.14296002063571506
Ni 3.4778585026230258 1.3342828536916378 10.690875840024646 0.036122970974802306 0.37436136203397463 -2.241282304866456
Ni 9.138454676563681 5.424501413537276 4.099571612384744 -1.9464410498459963 -0.5488302519112483 -0.437965054927549
Ni 2.086043381502561 5.180984331904568 4.073377312976293 -0.5295400362230687 -0.775099157178949 0.8067782334497847
Ni 8.022527235537328 3.9917243571324588 6.111226634946675 0.8768503076765221 -0.37338434283268596 -0.1377620213745434
Ni 8.036026582273168 7.272761456556786 9.779308097195527 0.11917423107002702 -0.004070570524947828 -0.36419419169298567
Ni 5.801341940251781 0.37204477941020664 5.42268294483609 -0.006386363142318034 -0.2930242564163792 0.18701433064245213
Ni 7.517419720078502 6.0086288163838315 2.242202525636541 0.03992666099160866 0.3060008711817052 0.5845608725436384
Ni 3.340536281978926 7.709128999530501 10.47760193403099 1.5131073230428715 2.508260514928061 -1.2241760057489433
Ni 3.188749812839174 5.659724051196208 9.461582647912003 -1.2148701549669851 -0.10293694327555822 -1.3405719027428848
Ni 5.182895579621121 4.615152950888305 9.164280643281126 0.1805860585186051 -2.0450035182029427 -0.7890404498503895
Ni 2.7612241100298958 9.115538259768131 8.626437907830503 0.8989486822374583 -0.0444155500008977 -0.5004788571910543
Ni 8.338885122134348 9.252554309661521 5.865281526481826 -1.0575605504778174 -2.277186217851917 1.4961400990609137
Ni 7.643311566029436 0.38381843646022773 10.580192330272602 -0.44357314514294577 -0.07772110613156293 0.44177440137131013
Ni 4.516714415584346 3.5126320775824262 11.264146242493004 -0.6808630841114983 -0.9456905663786875 0.8588785536894499
Ni 1.2412440570820145 3.800237747317339 8.106628629596687 -0.001836796098422643 -0.27200368830065413 0.08286074135097342
Ni 0.10933914181938059 5.804774763820346 8.050342384344233 0.06118788436323011 0.8211273030826053 -0.5794860291238924
Ni 5.6095120480798055 8.232718094850352 12.156826033373788 -0.15416205999912158 -1.1013037570020388 -2.6858167854814066
Ni 9.24733085109638 6.236902305791807 13.082639066222294 -1.8761434898720142 -1.9691035244405184 -1.2993717743554913
Ni 6.701057163867817 6.609734779042475 13.718333045809604 0.6200112429314484 0.48897548453714496 -0.426536244265317
Ni 3.709518426091881 6.485049060291306 5.292269049676188 0.12280719983692397 -1.478907280122395 1.100216180364815
Ni 6.9581478154486565 3.356048933348221 11.54803240150187 1.9748813074645601 0.5911956042513367 -0.47310792137726904
P 8.613019278838033 1.569598270365937 9.060699367155395 0.6387160184298032 -0.5074084944313519 0.5618395196867226
P 4.318659051481272 5.8705179741091165 7.405441943062095 1.4089208236309283 -0.5762878339015689 0.5341189138430027
P 4.253945688263071 0.5759656328647569 3.724936442865502 0.17684690319114704 0.4463000571558055 0.239716031911542
P 1.5783566094165438 0.35908726212410774 12.279866780182509 0.25168503134796005 -0.17574338571432313 0.4089100465431216
P 5.62666688802109 7.428574534963449 1.842459498978791 -0.16990235355251385 -0.6935622768457217 0.63551448077337
P 3.7336595258902694 7.084327276347228 12.400313425721578 1.1368351171394293 -1.3383854366145274 1.5231294831655637
P 5.736582187525897 1.2759341309275851 12.021836277176007 -0.3540560748177193 0.7593467794406987 -0.7709218858728079
P 6.569069736607297 2.199233780249809 1.6220156306776032 0.31484032385020616 0.3311038368969201 0.8289573406499853
Ni 6.487934487669208 5.21567440575014 4.43001984804549 -0.17401637572088738 0.6002242901125081 0.4473192424489392
Ni 5.515192901058123 6.786478803315842 9.877131507627606 0.2763637650415628 2.2556064347986124 -0.37772925006494307
Ni 3.8573246754724066 5.81131568440369 2.949444898504111 2.015242742000742 1.8757148869750278 -1.0753703249657287
Ni 3.328187395033632 3.707857681716819 6.953121048396094 -0.3321849857762408 2.1083506150010205 0.19206269169963697
Ni 1.1073361042034056 3.001503204026308 10.340968133680908 -0.5205018372802004 -0.9715021281251527 -0.15347171880031632
Ni 0.2537598849291788 6.950790439530085 5.796882980773263 0.99632201538231 0.24537451574889996 0.9641220336109977
Ni 0.7400898554679592 8.543249459282352 7.568608686226714 -0.25114304280156097 1.0027081214143119 0.8135525760591409
Ni 9.321878789943442 8.297542792886993 11.701014792149696 -1.295834193515878 -0.17507129934796298 0.6150549273674376
Ni 3.5240902859802006 8.563707232170687 6.377527459382957 0.0804971262148033 1.7775689373302095 -0.7648468833233215
Ni 6.983337318120688 5.6109501228179886 7.790179819564606 -0.11259812051440607 0.8978091693163763 0.23451648998847352
Ni 1.6941540984955934 0.6898064125097247 1.0073082643662166 0.14744531010057832 0.15959197276544126 0.4459812403638061
Ni 5.584081319967821 5.486310793574503 11.904648030656611 -0.21102174930064302 0.6983082761711392 0.17204742491997466
Ni 8.349378428772312 0.8058970832773327 1.6467430938531087 0.28186952535114035 0.15163312292968079 -0.4010756381003673
Ni 5.157798855964456 7.774807264508514 4.196295591484729 1.19784430983295 -0.1870791224421165 -1.3752180320618446
Ni 1.9992393347255735 5.532987916205436 0.05478600857397538 1.361592985079242 -1.2597657299280949 0.5718156570628281
Ni 6.366338310129746 0.18494754481208128 2.829554927057241 -0.45727044012438023 0.36880032300642934 0.4393490797592691
Ni 5.771615543728324 3.2119724003854326 13.426829729639142 -1.2046052827058675 -0.8827718153672797 0.8228062334469248
Ni 5.897488833876186 0.07330748341160909 0.38578720716630693 0.3967294453165297 1.677068885630918 2.1871413000476787
Ni 1.4349109737582486 0.20889473646835358 5.2433290468604605 -0.14811919623915135 0.9890396227882838 -0.2708446349955465
Ni 3.907388232164222 8.863893736389311 1.6774047028514616 -0.3025705053439176 -0.6090858542681962 0.9303590782279397
Ni 4.782563406215793 5.322509441944775 0.7418944073168395 -0.5410858320791391 1.0160282355619856 -0.7660272767846679
Ni 7.91247276750947 3.9124446885017017 0.4185363440104083 0.5040989704421448 1.1932363787472935 -0.6125079925758677
Ni 5.527328396268074 7.669948421341187 7.2919611459967495 0.4988770599215731 -0.03140139712941689 -0.10021080259364676
Ni 9.471531341729762 1.8955587850534015 7.001027492980636 -1.0703656726622857 -0.8810046961645278 0.9424700025588607
P 0.32589093042593936 4.0827684049117 12.28076302547095 -0.15670950901132366 -0.6473400126533884 0.35918028341816205
P 0.875001677292835 1.5853614250767218 2.8757106316218155 -0.011015891494529414 -1.0872804461397534 1.9033107943154253
P 7.166278980620542 1.888155019627147 6.101749258526978 0.4844529140764431 1.1210326028895339 0.7743584223581825
P 0.4777163667521457 5.001540438284034 1.990105240662732 -0.5224479052629776 -0.5115945074882415 -0.24947182574672522
P 7.694943088080948 7.17409097371441 4.738674292996625 -1.6996213170101375 -0.309581389444112 -1.2738566608035222
P 3.2952415666769537 3.369975063554747 9.41777610801651 -0.7944042852654641 -0.5716809312571768 0.07380788712008579
P 3.620970133826001 3.5729569933737872 13.589194862110991 0.2204139891488204 0.29474972374791825 -0.7336172358850785
P 8.041815992832042 7.673891529494267 7.578602841762003 -1.5479851087566632 -0.12879015689323625 -0.1976666681499757
Ni 2.4187396527056406 4.722284879932115 11.351814061903053 0.6420882773361458 -2.475342681154117 1.2876920240247178
Ni 1.1698042152497352 2.997272480925591 5.235345412588166 -0.037223146017516535 -0.591756104740497 -0.6772419424191433
Ni 1.632520998587563 6.722665396546698 11.549729329692925 -0.1074263465054795 0.7846022115733777 1.145822408239704
Ni -0.06499726700522301 8.212983998281878 3.530089377113805 -0.14437721269821588 0.26349976459470104 -0.2456730208259253
Ni 4.035738722022372 2.043596981972343 5.532036003507776 -0.5115873083993899 -0.7919337122377845 -1.1342177341212403
Ni 2.274189946764483 7.8395113498251785 0.1926871702739628 -0.30999430861181454 0.8758339505968659 -1.3428825531539326
Ni 6.009046321952982 2.688930701256244 4.4631530900132095 0.5024776327886379 0.5565885557004285 -0.359901992075535
Ni 2.423276546557067 6.83784126622279 7.412489437069342 -1.3379208382732828 -0.9146812624813666 0.1964883315711584
Ni 5.810239447825438 3.599844352027027 7.094941195705166 0.19179272586770194 -1.0029654888407564 -0.7565098242125359
Ni 8.37457720934588 1.434140907930706 4.231804904035986 0.3036071741385481 1.1938542148369504 -1.7194558352375613
Ni 8.949890605732609 1.702068148506364 12.621423447353099 -0.11350880525413354 0.13993794597993964 -0.17298073536752145
Ni 7.823683249803637 3.622853547837943 2.8809378013475695 0.2211740072432965 -0.4420569656087354 0.023857780454204072
Ni 6.467022097605576 0.5423313842140584 7.83644407557716 1.163319793693519 0.19545243410747629 0.42110710282994573
Ni 1.579442123896333 6.910580014270202 2.1157400887411013 0.5116037634596221 -0.582586522426087 2.0487521866120972
Ni 2.610736547105276 4.088362979538306 1.8168487795769956 0.003949728676367391 -0.07053307302355595 0.4663202090314743
Ni 2.0574396110650395 2.3576353931851997 12.702531790376732 -0.12907374957192608 2.053102750271309 0.06749171509407086
Ni 1.1464795707865727 0.44185171057203404 10.146405899506387 -1.2365144727096382 0.17550350178937515 -0.4190535627350267
Ni 3.6708574103886202 0.4955503490859129 12.747587135819057 0.7788570815594844 -0.9058919463245109 1.7609354425385866
Ni 7.898333245567601 3.562352351917385 8.918783657460496 0.17210501763078745 0.49431618002376804 -0.5724892860910851
Ni 2.768145424576244 2.586604725208424 3.573908906071449 0.4726217257694699 -0.9826692004855656 -0.5286342365793476
Ni 0.4638709542889884 2.7917947955931894 1.2934396755469546 0.5473986616710443 1.4674468448912792 -1.150037217652
Ni 5.995751089050948 2.0859320466841216 9.903204266525925 -0.6078306417048565 -1.0551357430864086 -1.1145264263399
Ni 4.274598297083675 1.9483593226985316 1.6012257089142565 0.13157594716848953 0.2580585389744717 -0.14957521195938756
Ni 0.13438298143728605 5.2984982327679 10.385548450564558 -0.9894731107812765 -0.6241003253991574 0.20270757300799283
P 2.3372796772137687 1.4708813980158784 6.845397189234245 -1.0358869221591258 -0.82335644952344 -0.4115724238666331
P 7.012878156613412 5.198287618270439 10.117495958318155 1.3250416683177695 0.22331753594886056 0.895911180962715
P 4.101416987000386 4.262267965941454 4.648929151432515 1.0108911714457363 -0.6901954172560179 -0.396068414693763
P 7.8494572602724775 9.027110580222226 13.12267042798252 0.42949892643806675 -0.48277218393991056 -0.09095663098523045
P 1.1139234142944339 4.877429949428137 6.091279146642857 -0.9461847324062865 0.855673930709223 1.0749939154629162
P 2.0240113318284547 7.561285638543828 4.438004410107941 -0.010914075809342495 -0.1555378573007257 -0.8479976451108879
P 1.3275563750775594 7.192767389507706 9.524372702141653 -0.38412409784769325 0.7743710207636728 -1.752974021599665
P 4.956273556686671 9.132962158853978 9.33748329253795 -0.5125869533084978 -0.1816767204796226 -0.4361197741886941
