# total energy = -340891.0080695382 ev
CRYSTAL
PRIMVEC
9.11452626493309 0.00000000000000 0.00000000000000

0.00000000000000 9.11452626493309 0.00000000000000

0.00000000000000 0.00000000000000 13.34003049916400

PRIMCOORD
 96 1
Ni 6.376950780185084 2.012268594657223 11.389971075754778 0.3042165255877728 0.9581349627896275 0.7309224626617347
Ni 4.415905821711022 0.19886893158661487 6.15850475817893 0.9308941247958032 1.1781941397021902 -1.1832167897277623
Ni 2.836440494697466 1.6501302471786894 4.893043055325956 -0.08364775602864305 -0.5011311460630724 -1.102908125374681
Ni 3.6226686229529235 4.681685400198741 5.208214250268576 -1.0100830737221442 -0.32037745161835146 -0.5709293978031328
Ni 4.978253847552425 4.753088596970785 2.3832635270608775 0.9243326695282016 0.06080761820567593 0.14346421396564324
Ni 7.313185777533507 6.143855891973668 2.5498533647786905 0.3902456373643989 -0.6850218434748783 -0.6869910513861072
Ni 5.047351069243624 4.437552820987714 11.570995588316588 0.4859233279743825 1.2447360892884822 0.31619786631936514
Ni 5.669873195811224 7.8131631018800025 12.344997491380571 -0.03625589700824079 1.4350149496148188 0.6738234036558977
Ni 1.9910955507331158 6.244261510513471 0.7118481272881427 0.001976921220712724 0.3933607859546128 -1.1905030389765303
Ni 2.8196697668367876 1.2534296170655386 0.42995042100214936 0.48282103489997497 0.38405904893771275 0.24887173026888104
Ni 0.1641225355265709 9.140411265110563 5.138379663423067 0.7956834090882038 -0.3236283544554814 0.26365814454943626
Ni 8.752214487765897 2.072752589267803 1.6843926619075364 0.7782816686719887 -0.07047470898179475 -0.2590746389438119
Ni 6.848317607382302 0.8248044481454232 4.929101031679016 -1.4977580942803108 -0.018593703841787334 -0.12141854701951346
Ni 0.8021612311757031 7.231455822790729 2.5228798365010308 -1.143215052523844 0.5006719470384667 0.24338422479174857
Ni 7.449721377181862 3.8551163798175425 3.6322634844849544 0.8579946084225997 -0.03462941714841133 1.0843902690761518
Ni 7.535534639577674 4.015322403517084 12.691064195143488 1.2540267705617887 -1.015861370966818 0.35437874826446064
Ni 7.711189784866265 -0.12154676162287295 7.112477534597824 0.8304958887816987 -0.31211418316829476 0.06097345435957886
Ni 7.030808647179322 0.8294619709371661 0.22427384993774035 -0.6829893864258818 -0.6486271068959281 1.0548853176384994
Ni 1.8604935075180773 6.681467094220567 9.210664208699988 0.23224620589705808 0.5501834235050331 1.0561289602376134
Ni 9.1517132773645 4.374525873619999 1.4705248663168273 0.6179636163738003 1.461329933360264 -0.5416818137919253
Ni 6.044626047289313 2.0813293582443784 6.92931840004418 0.7284048384462035 0.04253221693525578 0.10753433283825352
Ni 3.108117171514457 4.1639620937083635 0.3969102642114093 1.6525719289308183 0.2214185191539348 -1.2385824109822603
Ni 6.115272738402423 5.6509787833899265 4.954594360932451 -0.8222272210150033 1.1144287244197713 -1.0666321737617823
Ni 5.414529749606373 2.9473369326762073 9.376827486600476 -0.4694554122263463 0.03533389941460366 -0.5506768182016838
P 0.30439417938693253 5.646266573442116 12.574165841786346 0.2603018264826937 -0.28023250396834964 0.42342212411636754
P 4.103250235947503 6.058033515051845 12.810977633705146 -0.18053772177917293 -0.2011577120223697 0.5964162292203277
P 2.274539080630615 8.401250549177142 1.4670166852551016 1.1937737393080021 0.054839830658015225 -0.41156933854283956
P 6.32085087258591 7.9428810360719515 5.822389293915084 -0.18039271156087638 -0.8213638445734434 -0.5412958912074162
P 4.926574485068701 0.9363990588166247 12.705511630323901 -0.868853919734607 0.312680597194726 0.8378834394950215
P 4.245956369705467 6.1064954498535995 8.224688508550432 -0.8626501049167401 2.2324652207954587 0.12834149939159187
P 4.755604206149887 1.1527141046413514 3.78197868874556 0.25380336324254354 -1.8556654245233202 0.1759634721449292
P 0.1581224430533725 5.3111801391649385 3.4185697763410596 0.6126015807309385 0.7134811272568358 1.6170454538894345
Ni 1.387239973436533 0.8340620722150383 2.950160612834489 -0.38658207246988263 0.904208387974501 -0.6305609934228366
Ni 1.739261197042592 6.534695881861592 4.647666343314394 0.696364265070891 -0.01881867536839985 0.22777737149242708
Ni 6.148267322563107 5.53099516297798 9.315356388822877 -0.615737812367075 1.5937183491277196 -0.6075704460649343
Ni 8.55391885986539 2.3504813113562553 10.194677551399325 0.8667124479115718 1.0780838672421498 -0.03400669596274789
Ni 2.342852453084849 5.849775710221053 7.019070049129448 -0.04120552770403226 -1.3441287668562076 0.22874179228822542
Ni 0.6001359392313962 9.342024580479162 9.392608376936334 -0.22642908499464875 -0.7420350276351284 -0.41610682140187694
Ni 1.4762524344622896 1.094946238782121 11.644152419893196 -0.17695051864854686 -0.13013535806722104 -0.47969200235269
Ni 4.395024442619275 7.060421742189837 1.6821240563833393 -0.8568468679714017 -0.20837685547862822 -1.3676199079996125
Ni 5.79655599284143 7.878723887478842 8.212282727196536 -1.0978967882030188 0.0313754289874879 -0.18619954805064062
Ni 5.15747277251141 2.959286076276941 4.6666892705524505 0.6527856091489919 1.084860523844351 0.6420301704047007
Ni 0.8752797817430618 7.72337590614329 7.057169679309027 -1.670319996942859 -0.23624427131285766 0.6191098141631015
Ni 5.063410864075427 4.545368549174656 7.1404645981679336 0.25935797451218556 -0.7729414874059979 0.08289442280238626
Ni 8.245866109737547 7.17464498216268 9.326601891015544 -0.14698148309028236 0.7485831131662914 -0.7089302746613597
Ni 4.739033997861456 0.4596136459057255 10.524617012837954 -0.5708347812067975 -0.8441510176712881 -0.40095402492083854
Ni 8.282369786412557 6.956652863551884 4.563370649499454 -0.007175948923148932 0.13649755283982298 0.9334793690244764
Ni 7.41158620035084 6.391078295502504 6.990735722118311 0.6356630905360924 -0.6871373471559844 0.29549277256152984
Ni 2.534321301002939 4.71493519108774 2.7319315165474016 -0.9751782914251593 1.3840559420684484 0.8628020571135723
Ni 2.339316016992488 5.3664597394231 11.37234905116465 -0.8320298089277218 -0.5205763992718776 1.3881326832409835
Ni 0.8901236988049649 3.1805685387777927 4.066668174348796 0.6177954662270522 1.100948687655465 -1.880284251513265
Ni 3.8399224649568073 2.688520852061074 2.562033105887509 -0.37499848139734127 -0.8351624410194327 -0.575502361885796
Ni 1.3542909619059054 3.6257037601146656 8.072652745967366 -0.6928084293988327 -0.22652627269414538 1.0108479769126268
Ni 3.4977813875469312 2.621128046733976 7.019483848610358 1.7554404808622863 0.6667125036427293 0.9199419966596738
Ni 4.162658716488757 6.960699713100874 6.061015787962722 0.7982182596949157 -0.06918992873210018 -0.923099568452049
Ni 0.6437571492685833 7.421238483396741 11.375897336140824 0.866344780159508 0.7916550046551011 -0.06607812257599588
P 0.24117491552038017 5.653640224985208 8.022760742034446 -0.22583978815008202 0.54220349062335 0.05874250814653109
P 8.586785840661916 1.6532565296005441 7.998414931605827 0.6159445290612424 0.3250139219490983 0.37072402239170343
P 1.8434584584030722 3.0688700225100627 10.481528091119824 -0.4413121170229109 0.940385095005374 -0.6574351921058614
P 3.991487917997695 6.291438297147644 3.709622112552741 0.07092362359375527 -0.3239739107203582 0.5869170314806408
P 6.969075962505203 4.141130206050211 10.603402975679101 0.8482966644085455 -1.3643754329203857 -0.8484254766769259
P 6.269381144200446 7.8806835105712585 10.306867340619059 1.3146225298669745 -0.6366167126986133 -0.3771319828005763
P 2.2993032478031505 8.486854177474696 5.717510266008963 0.7922437872790355 0.4957274585489979 -0.3883538196583247
P 6.96714368299082 4.171353974303479 1.5174947532105434 -1.5967571359540436 -0.9852333616683161 -0.5133426005275998
Ni 5.187732998868722 2.968163624611887 0.25885800743478427 1.0116123658824772 -0.5711309722909776 0.8083100967132789
Ni 1.6437318499187998 1.1248692276770174 7.020830975554819 -1.5100338263238704 -0.1509306975460175 -0.023215775994830986
Ni 6.980350631181105 0.8239321880061476 9.238731480098997 -1.3252193315462144 -0.2875048692600468 -0.22082356588241323
Ni 2.7191092013547915 1.4613046118038582 9.138774296238944 0.38560299638606493 0.4330748167147832 1.2643140114204097
Ni 6.574152664964243 1.9211962507529265 2.513047997292708 -0.6081623140126624 0.5830248955150863 0.40481890719288344
Ni 4.15488402580117 6.749434114686374 10.677333630514061 0.41969428164281913 0.8825440156271899 -1.2319898453664073
Ni 8.249840043078446 7.5293276473640205 0.07988335177289999 0.26827636004773797 -0.6562344869295409 -0.3280159420002157
Ni 7.511207969653678 3.834207657147761 8.078148805152143 1.0446530983875297 -0.1383420622477295 0.11859598996905381
Ni 3.1961179201529655 8.1250712965106 12.54962042323808 -0.5578522529042006 0.5725962439825945 0.43331187242625374
Ni 0.10468579995468259 4.942151210021908 10.144959634913219 0.36403735440014723 -1.0065048694525827 -0.12820086004866954
Ni 8.687373749721946 2.604393776977342 5.995249925528629 -0.957330721720777 -1.343041961549932 0.5490626796370286
Ni 3.6635837302173733 2.6474234542763995 11.599636163401705 -0.77654488848654 -0.9015231278328538 -0.12204538197023496
Ni 1.0650414789392468 3.450641059016805 12.630407024538695 -0.6147757055641219 -0.15916979762635816 -0.26664396665063755
Ni 3.205979837297126 8.38944723799259 7.930861710620931 -0.1176343973867329 -0.5594134267437334 1.2531050300784679
Ni 5.924615083299333 7.812178733070789 3.5268503453545748 -1.4106779155313511 0.14268696947998652 1.3640859267044247
Ni 3.132981598473116 8.52138911653128 3.551796803047335 1.2568755528644935 -0.9181458239911994 0.5758815996020856
Ni 3.5223450351472194 4.605633795160966 9.465138129123368 -0.30660328065239456 -1.3008097923535984 -0.18292653372632364
Ni 7.563106080761671 6.152450890002265 11.42493530898649 -0.6776744019708716 0.49709142877605994 -0.07939746539272133
Ni 0.5245874560294413 0.13514654588424213 0.5530749070775678 0.16703068843167362 0.6127908139236091 -0.487278042230064
Ni 5.022441069654909 0.32028717839272935 1.7814012966029527 -0.6833963920563133 -0.024508526664325535 -1.2275294956022085
Ni 6.379995031872838 5.9420602860848435 0.15176961842353917 -1.54363660197998 -0.9607448896086487 1.4371283964133958
Ni 7.842174638173775 9.132572772740899 11.372108427677952 0.9003602178730041 -1.197864364437608 -0.03713290029655541
Ni 0.15207039778191003 4.860594431273345 5.962179690802052 -0.14069796407441576 0.9614262319463893 -0.5136922705575346
Ni 8.00135983496006 8.818021365567041 2.9661556945316114 0.6803822878203379 0.35249952896387676 -1.2296344577603533
P 8.561301625934494 1.6413529586298663 3.9407382371671185 -0.7914035507659274 -0.12772289197098646 -1.56999709425138
P 1.8568112390095368 3.0056334410440892 1.6053788359161085 -1.121172728011824 -1.947250690231485 0.3260547045087869
P 4.716174766625268 1.0736911641239124 8.295177518363548 0.2829414182590804 -0.5011370596003434 -0.22881943960369625
P 8.48386461294301 1.8890037448812316 12.381829290991986 0.7741859013360602 -0.38931155558590375 0.9213612456047034
P 6.558266046126654 7.837653833272201 1.3335599724933431 -0.14843492770735728 0.7303815025566002 0.4173664048405909
P 1.8132802627798612 3.2783947464564167 5.968876133062509 0.21113179251594608 0.7449514299509751 0.1571864486477422
P 6.755504389009858 3.955521998357347 5.939314990850258 1.3742605532445817 -0.5752593926370545 0.2504578438090783
P 2.646357054733085 8.613983586279453 10.36437635393957 -1.4551150627988036 -0.4797148851708255 -0.2222435861583914
