# total energy = -381164.19382398267 ev
CRYSTAL
PRIMVEC
9.27799921571978 0.00000000000000 0.00000000000000
0.00000000000000 9.27799921571978 0.00000000000000
0.00000000000000 0.00000000000000 13.57928968673822
PRIMCOORD
 96 1
Ni 3.3833338297629334 1.0556043856537773 6.911071370523485 2.0146503598323817 0.7734667637818485 0.07765502878031788
Ni 8.390586622537029 1.8294173724846452 3.9086764249397516 0.08947567556432978 -0.034836905173527104 -0.6062087898307174
Ni 2.28750003856141 5.503291754537169 4.123771997028222 1.0449042951663876 0.7264217465779038 1.127145400655491
Ni 1.7078106338973982 2.5149316386979175 10.828125828952539 -2.220663343064524 -1.9569452918114296 1.4169292957577018
Ni 0.28419625627631717 8.712106414938225 4.886344687544263 -1.2482415313385793 1.061298677364011 3.0175574846313773
Ni 5.707936588062682 8.879054736761596 6.614621660394099 1.438366125475239 -0.3956765785719831 -0.4882805153526493
Ni 7.421740809594731 2.4872275323866693 9.03005139415733 1.0243912628147003 1.6618500117986348 -0.12106964832052695
Ni 2.0173246950304238 5.122262873763455 6.828278214770288 2.258725440043568 1.9327211291567423 0.36600784786295676
Ni 6.414112959016459 3.720886005186847 10.87713314976521 0.5846572889121866 0.6545121049217953 1.3673602265803224
Ni 1.964031866278982 2.715011696501685 6.7863861917238895 -1.601434743935371 -0.12121697253166867 0.32842423318222796
Ni 6.27554603746305 1.5722776181590514 2.4842632115673653 -0.7157784079314446 0.27836202641851415 -0.23839705598980232
Ni 2.8378338530148444 4.440663923311518 11.090138388581103 1.404225475037788 2.5365549909973795 2.3711186436360197
Ni 1.6415471619366047 9.274195454675098 11.466868772216838 0.8349955764242651 0.46824416552706455 0.9130398702232017
Ni 7.646899299869799 0.8460440680278952 12.609551821562583 1.02135556131217 2.2516991293244057 1.414870870566776
Ni 8.800163907570525 8.371696615688503 11.486898117395915 0.5599497588631775 -2.661851790025377 0.6345983967170039
Ni 2.4312255278003705 7.617775659645082 5.713119278546762 -0.43964038574744285 -0.923659554720577 0.2478800557795731
Ni 1.7095363417922045 1.6289290827057619 4.284551377027633 -0.011097909685374436 -0.24869175304759106 2.0613073975692884
Ni 8.844679748856985 7.679687749871121 7.330508385555964 0.5211986062369088 0.9443510216316574 -0.7880963407695654
Ni 5.772279514140546 6.382920324917861 9.685632050795258 1.0986879166457464 0.6690897456256542 0.6805329544655893
Ni 2.3801965309109328 3.696438476677089 9.153744754817383 -0.08759851314627494 0.7738768547360737 -3.3036245930036334
Ni 1.4011263625918775 1.7401351839269983 1.6756029866606719 0.8860630845240417 0.2520084761256499 0.07446248998494918
Ni 4.059282478559294 2.2805879289827504 11.273784325986641 0.5082420460762408 -1.0814486699493246 -1.423996229906812
Ni 3.8668289362906387 9.112461368533884 4.989017812685642 1.4005829931891944 0.7772069475505712 -0.5959598584091994
Ni 5.049059458225698 2.1250422684643095 8.972474913067005 -0.09596231172993795 -0.8801940273377745 -1.2306243324774482
P 6.3039645497307495 2.9397619548016376 0.4796354587629767 1.8909286186009884 -5.034435191132381 -3.390065338396381
Ni 6.167179004068753 8.59812619188609 3.626444321143706 0.03265121037611796 0.1989355075600703 1.8664216345985596
P 3.3230453894379215 0.6836688721257611 0.6836558829265529 -1.1008497001837556 -0.2456938467615317 0.22044201417327838
Ni 7.046891076444355 7.178017042451342 5.294727894050545 -0.3636933407971672 0.5628620474139662 -1.5719683590451379
P 4.8267214797786995 5.973556433871358 11.718954800250492 -0.38444317175000886 -0.5004276922381445 -0.6652755140858866
P 3.7960099666075333 3.493992529017538 7.597477252482407 1.8192794296951185 0.22886931900502522 -0.1885863031152623
P 7.478809784115991 6.071504273900775 6.876511750430128 0.20701519924441125 -2.129349585850191 2.0682771440189027
Ni 0.5072709078784092 1.551819629406104 8.688382570384354 0.6438908777625233 2.1211068862254243 -1.2185861703659917
Ni 4.43929077939522 6.332911907966212 5.092749557562491 0.1900963120018855 1.5984486647238534 -0.17769665278595204
Ni 8.424701826457477 4.1510047809682 0.18983807422808618 -0.7013596614029534 0.1035771479627184 2.0884662173722677
Ni 6.4744756233369465 1.4217884673323824 10.81598556669257 -1.7850148520852935 0.09560338572862245 -0.39001089564577346
Ni 3.1362607048237106 5.243962392345046 1.200821777201796 0.3874729597152682 -0.9252572382250002 -0.3967045056158652
Ni 3.0167415161092133 0.9776784684038887 9.45319589776381 0.43212068033163 -0.013712207379769933 -0.20676014581081167
Ni 2.6819170725190262 2.511248272922443 13.151732130113027 3.5745710436843665 1.382469314307619 0.7414966386331553
Ni 2.826041515733667 7.142732810602155 11.728785768451228 -0.8071582424970227 -1.8289058970412888 0.06797996758439906
Ni 8.813589172752165 6.457543274369089 0.8373561493574826 -0.8705215372450169 0.9016195442014021 -2.2795197510811
Ni 4.872536240985981 4.238180863654229 9.579809044845884 -2.2772438105627297 1.7271920275395545 -1.7264988581272718
Ni 8.318709960918397 5.528453689003379 11.257951419951763 -0.6562301160541666 0.32736185335598456 -0.7751482652493296
Ni 3.4689512085439755 3.843030867741292 5.432775247635626 -1.1783481487815513 -1.2833149780029447 -1.0733741204713063
Ni 7.60023096271455 0.5906968231930358 7.925498139087316 0.004494545436243872 -1.1803998891042575 -0.8551080309034241
Ni 2.821894249986471 0.24697663374510476 2.9320398758723507 1.2043779971864097 -0.5841425540592972 -0.791814670161417
Ni 5.4244473153432695 9.079348188552357 9.130089567459326 0.4224150230080918 0.3125127041582941 0.03463584490631454
Ni 5.179814304255305 1.1386239245931753 13.209404174597527 0.381456321207543 0.020044320245384835 -0.05196379466180082
Ni 0.04660153555932141 8.988340292099902 0.39131539874668136 0.3082883816643013 0.5371916392310555 -0.5077422236216869
Ni 1.3862073395012928 8.691926766168312 9.268802153603856 -0.9335364475146568 -1.8663748405210243 1.6042791553627016
Ni 6.5186667346432 3.3632191269890606 4.140461262410899 1.664735560876546 -0.8069962629978618 -1.8959672094661606
Ni 4.940803760824614 5.722363877183241 7.357096348535247 -0.09020689730339948 0.618233067985103 1.4168333936097857
Ni 3.5085311541313104 6.444424183168786 9.341451672575378 -0.9304940611439072 0.0552684335550016 0.07558940450054079
Ni 1.2874430355216446 0.08146176283435493 7.21091497284599 0.22603004978401717 0.12478412105763673 -2.7300569862467046
Ni 1.0632309011888899 5.7938972528227985 2.2151492711716787 0.6133297171462148 -0.3362550420805564 0.41637370191001843
Ni 6.712762482811752 5.915726663396472 13.054803942221456 -0.46636443200584843 -0.14303098308296658 -2.1241544148024967
Ni 6.354900766625843 6.498106687896473 1.5306166172985711 -0.33075982329394005 2.0940863917725228 1.9395515218150148
P 1.3507189916645472 3.855630390973266 0.9674253512288856 -0.2919459357505359 0.29674849934550185 -0.3743567340482843
Ni 8.29327896446859 7.109174286647773 9.39438358714882 -1.1621304013711082 0.6325733958671751 0.9291845983038644
P 1.4699598403960115 7.459789885275383 3.7453994074925894 1.1428093324449933 -1.5619863081317618 -1.281831708589199
Ni 5.66998957037581 1.6371865022024163 5.559592510705256 -0.3300401715190961 0.303912878304425 -0.7252583223974219
P 4.0421924036010495 2.142280791413505 3.9258945362901914 0.03249540152454404 -0.4544921060482947 0.6596558539062639
P 6.533929043712859 5.642415356056644 3.5310766927570074 0.0030115331328141683 0.9073651884359276 1.1098986977599015
P 9.503176480717157 3.7029980222772405 9.531276757604255 -1.0419696380180958 0.17572410244061348 0.4021773558049783
Ni 8.202688577990687 4.538815879328492 2.739757976593232 0.7934378075871367 -0.8967491034829782 0.07061791942787837
Ni 8.376836627375186 3.1955007312126305 11.844766328181427 1.1114891821754729 -1.382745193676825 -2.1405274568438815
Ni 6.603560429468356 8.38524249486279 10.989380242522993 -0.6372618024817798 -1.1375449987222601 -0.41111399617297584
Ni 1.1185184998187367 6.272020397677961 9.994289752580483 0.331445536507055 -0.6335673843493281 -0.11521216109848545
Ni 7.512776540045488 8.552265040681638 1.7795388475250786 -0.5616436016258327 1.5287491433451863 -1.345598666533515
Ni 4.808629380881536 8.950885008383056 1.8746615367267077 1.1274865860449939 0.8205732303513481 -2.033554910046369
Ni 0.06228321020341734 4.220302158744056 7.099063122864117 -0.7908517920275154 -0.2836055342056406 0.9093359390090533
Ni 4.579601964842304 3.8989029803355093 12.747205787971643 1.5857803252275657 1.273304130734162 1.1129765653542767
Ni 8.361908326285166 1.7837417812688814 1.456554986813128 -0.36555610503751884 0.11441074824311263 -0.6482237008099223
Ni 4.120238934843586 8.849096076587779 11.30016910077831 1.290063609580688 1.5740545521502054 -0.532537942509128
Ni 5.522005479396441 4.367061553798079 5.730270588301274 0.7031118682073698 0.805623036799419 1.3929817838031686
Ni 8.41315999516103 6.914336298524466 3.138635872678928 0.01546595684608304 0.17124421229238895 1.2659407483905551
Ni 7.315953060043209 3.3165971798309832 6.4518326657171885 0.21821903838003062 -0.5560447673818165 0.5757129352347052
Ni 0.5899638612377148 9.068826937193698 2.7603709079367347 -1.7488407161575816 1.0125284499388434 -2.324945230403751
Ni 4.012734755396693 2.702894629240302 1.8096710062883197 -0.22806019284016854 -0.27770073868543144 -0.20586977278605836
Ni 2.0678990699475737 7.831475820618612 1.0608947009312968 1.0903354309159932 0.17702353797832737 -0.005087184714920271
Ni 0.8021108851059198 1.8598306546307501 12.974454611519292 -5.0279680953508 -1.3669982152552136 -0.7446606381834336
Ni 8.780475992770636 0.9868265758462498 10.487109248539804 -0.3126474299639454 1.0502226220555073 0.6925757445627363
Ni 5.897207776525324 4.334031875811461 1.6139933592161952 -0.9783497471746055 2.77496747360615 2.3365925848346922
Ni 3.9050264599622415 8.311955577330123 7.716269046041244 -1.8129678856547937 -1.98467849606064 0.4073506724758017
Ni 7.757938397101216 4.8931612337287484 8.666004035748477 -1.1695991989443277 -0.01691040260209346 1.1176626579760363
Ni 0.2594991495817728 6.2653773500828995 5.533764415879653 -0.4540064246611278 -0.9231191088360746 -0.7143943830997246
Ni 3.97578976164874 7.032352451330583 2.469122444290297 -0.35977549379999973 -1.1842470307644895 1.702252326875081
Ni 4.447436862898661 7.1247149357004655 0.007014167572439075 0.49960493922653315 0.39168545513471903 0.06298045748727864
Ni 9.156559699845793 1.8620944864927542 6.1394006737620295 0.7026012471195384 -0.10444566661060076 0.7914192344952111
P 0.953880399854542 7.401023036857619 12.8221497562033 0.11598040672307766 -1.1374706938408992 -0.4439472406529128
Ni 0.8963029909642742 5.055953011805489 12.444101896647874 1.2277840348151758 0.20590242579620666 0.776332772475734
P 6.7568237021259225 8.37933240922305 13.080876048432186 -0.9856627358962509 -2.2503120191688923 2.167831543975473
Ni 1.3790168899395991 3.5906321711266984 3.3197294324400515 -0.29157749666752364 0.3511790103802403 -1.1628796208323071
P 7.722078929287092 0.423473872586405 5.552721224324108 -2.16283151965772 -0.8623881095046051 0.44722231185975875
P 1.9004775701530459 7.1727285827737095 7.76304964698965 -0.16695818332252538 -0.6251714469761491 1.1149604285535248
P 0.08890271838077837 3.884846811192327 5.004729176927928 -0.4190162817391881 -0.5254134156492047 -0.7346112243672316
Ni 4.661146301871627 4.603140249407487 3.5186655129135525 -2.0884459056572937 0.008786745053694544 -0.9270292425237583
