# total energy = -340875.0329799614 ev
CRYSTAL
PRIMVEC
9.18085920428335 0.00000000000000 0.00000000000000
0.00000000000000 9.18085920428335 0.00000000000000
0.00000000000000 0.00000000000000 13.43711546093474
PRIMCOORD
 96 1
Ni 8.420252285906118 0.20385913578005868 0.7979258909336217 0.4870006201989613 0.6349187561709001 0.2620211231666455
Ni 2.0493972287299864 7.954856186370758 4.697319437697066 -1.0620057307333646 0.626362896181089 0.0588234978961116
Ni 3.329557832513845 6.404548809351914 3.3409769848179964 0.010887336336465122 0.6395045757693696 -0.6383012994898878
Ni 2.1704652150902164 3.870512400824868 3.723585607277088 -0.02006283218814609 -1.1608237667445427 -0.4121450085406515
Ni 5.044854424887182 0.23838467377249672 9.095650433913855 -0.4526650801418849 1.574842081048507 -0.5770013150288257
Ni 2.947101612312551 6.1996595812028845 10.754099147956826 -0.17954964683429078 -0.6308859808624232 0.4302502027817945
Ni 1.8235205571275945 6.010368632330872 8.144786123022453 -0.650500669769557 -0.4220576396686732 0.9297340430494312
Ni 0.9038555590478985 2.3407517860320186 10.020513634304702 -1.3412357615791288 -0.7822054292064271 0.5644949550316988
Ni 3.1784867992570325 0.696348868025486 10.694330838409261 0.7342191311351355 0.38518416368109143 1.0003679033169095
Ni 3.5367698179654554 2.6741638579709055 6.940740348063811 0.382979699830605 0.8599717867536285 -0.3597690660420965
Ni -0.1063905472312317 5.491448125388208 2.6793335996194574 0.8150119342134867 0.10610659925279146 0.4456655088956002
Ni 4.126658364232044 9.111607684773999 13.046188709456823 0.6233343937674103 -0.7225447801210008 -0.27969642895922153
Ni 7.790023045617625 2.411141431245022 12.148092303199078 0.22923467276424392 -0.553036319572796 2.6571222457601915
Ni 1.2632310999658358 5.660302482341066 13.247288997136383 0.07789542692589811 0.17209164789434878 0.7676596701817682
Ni 5.907891885250195 2.6730988783381013 2.414649437432043 0.15044861570327636 -1.39214026173848 2.1363625268329147
Ni 2.956915950480375 0.8839973612396648 4.291788046727759 -0.5452379065742997 1.3010774441926884 0.5733462347747416
Ni 8.054073728540699 7.97457667129544 11.944453508032705 -0.40650323687384177 0.3820073086150066 -0.7925698031598867
Ni 1.47535484493081 5.720510555030107 4.929647498850936 -0.9217793069787288 -0.019462479599985837 -0.15526686302752613
Ni 3.115882522394182 7.9753019591488155 9.206251323038224 -0.1085262644378776 -0.42828150909119783 -1.0617123678626617
Ni 4.106414570349863 4.150574501675616 1.8611749318343396 -0.08243342400556772 0.7983177613872574 0.940261167833
Ni 2.2813149054908695 1.0856732887724752 8.508421582471607 0.8758953999624206 -1.0267088552042833 0.2975802512181779
Ni 1.56350027126315 3.327336064659202 8.06174525424045 0.480863654063288 0.63289915463771 0.8428472112582001
Ni 1.0406319949919878 7.647471849423246 2.130992112234691 0.19866605594876754 -0.42008560354396685 0.24095350386306894
Ni 1.3816090946673454 1.0165597829470554 2.2093039205955107 1.0398932151050413 -1.2279876661855496 -0.6106688824845999
P 9.13971029387756 1.5380784729594057 8.156892921658475 0.8595956343611325 0.35874730964580154 0.8714764449591186
P 7.348221753464218 3.768228451781164 6.8650625281224 0.8961382093718566 1.523431330676699 0.6140614531059166
P 1.5642714634110426 4.333356221585059 10.245275749636212 1.2423801874617957 1.8410065369595647 -0.9463531396633508
P 1.7176009879581116 8.444866168626355 11.088320971651001 0.7115520285549229 -0.6012280487866742 -0.3544903341416605
P 2.527664892448028 4.623379554346085 6.386647052576012 0.6364863577683362 -1.1071165070290738 0.8161694448566975
P 2.179003413870455 5.352642719626449 1.8459907092938692 -0.830070628318822 -1.1476201235700751 -0.07901694212485101
P 4.265674929748583 2.5548494156612414 0.10446164877560994 -0.7229507573101678 0.0003944072249412562 -0.18566115904866734
P 1.9187168830978096 8.226297460711136 6.889195333836096 1.6264767745056636 0.924467138223537 1.1445024038767
Ni 6.106786012535251 3.4090548897591035 5.06018921351367 0.7891684907878215 -0.3843642388829574 -0.8869809683526207
Ni 5.381332903699833 2.6285349892205954 11.429314596872384 -0.5623887073219734 -0.5884139277411414 0.26574613742671654
Ni 6.0559424159277615 3.9047478236759563 0.5151545186204558 0.9187978557529015 -0.8504833876472191 -1.9287230637409427
Ni 3.2778604160283322 6.934513889555467 0.7433227326051567 0.43637534184292587 0.3010234725717719 0.041547484424483284
Ni 0.2639451030456837 4.311827107456391 6.605497612859567 -0.9191377555908234 1.058537569679106 -0.59408166754988
Ni 5.804221626512065 2.489206274501338 7.219842131073254 0.07061791942787837 -2.6438975195398013 1.0847167991776352
Ni 7.821678647116834 1.657677521895078 5.175076645660075 -1.2842243771910915 0.03909053824355849 0.6361672838660205
Ni 5.055449136061801 4.810659895118235 6.9951608073000955 -0.12044692713486355 -0.5491349276358608 -0.6304684337090304
Ni 8.180310538463589 4.246835807278635 9.076758062462268 2.2720828351870805 -0.7560030597794464 -0.1038597122001437
Ni 2.2780097962856156 1.254298124252747 13.223518835349378 0.012989984501764725 1.1954187311105926 -0.8145103119867197
Ni 6.40656859831068 8.24104192011013 0.0614621780152571 -1.1548022431408111 -1.4185547471762665 0.788717519293332
Ni 3.7055874514827 4.393022623598794 9.025857544529577 -2.460869684348923 -0.07584240105161132 0.26202292293885837
Ni 0.030618164443115707 4.125923895519764 11.691687936873793 0.6201891632702093 1.0145483085823495 0.30521282806277117
Ni 6.928610597280529 5.83987090163429 7.96890749092254 0.25132481979506394 1.017714365015157 -0.8623343734485343
Ni 3.555278429514877 6.544263120145118 6.462150436198256 -0.28923265058443093 1.1564606046798405 -0.3371215038459098
Ni 7.4104587959709285 7.858392901871863 5.273651527706772 -1.885637288295062 0.30122196173582316 -0.3866275809958373
Ni 3.9902767052208037 0.14639338564548773 6.766541813143235 -2.254540455427943 1.6106459781209939 0.4875768044174055
Ni 8.650095088554814 4.112565745815197 0.7776123225237752 -0.12625067830083417 0.36420010523025664 -1.5044337065282736
Ni 8.47745821773372 3.7889680120441325 4.45500811057155 1.8429268939107295 -1.4584081317277784 -2.0397093596835387
Ni 0.5507725788224083 6.660318357544046 11.19193430906393 0.02606275852532286 -1.2122149767323254 -1.2116992134381712
Ni 5.021222894069617 8.029267047783488 2.3714489058617043 1.4807762150103336 0.6119359221224816 -0.15969224578873145
Ni 7.258276878786795 0.31552867688079306 8.389879250395724 -0.38400119911658387 -1.8024106789642378 -1.539281410335078
Ni 9.059561395650153 0.22361818031213473 3.7988337630218156 -1.4923644340685653 -2.931720177150583 -0.7234243545124767
Ni 1.3119998224611376 8.35090925860811 13.188245975442195 -0.07151703420338007 -0.9782620725568054 0.08400745336090693
P 7.238005542327905 4.276838854175217 2.577346192318336 0.6830148403471785 0.920350544952002 -0.6162666882873516
P 2.9860927200756433 8.55084082294926 2.519069772342587 -0.3716992418207792 0.4525583793606916 0.2620848865250454
P 4.234762977820555 2.709280643276728 4.037692169113732 -0.864907276382033 0.30218149743561507 -0.8680627912918791
P 4.200013426870872 2.2011751881223667 9.33116241693545 0.03671843846695612 0.8825756401960736 -0.06111126548902378
P 0.3434834741560084 2.130179606221733 0.268445560080171 -0.27346098957247095 -0.07650137479184889 -0.5649754942125431
P 9.10815568182629 7.132508292667982 4.188845830100676 0.3099583131675565 -0.13423241095473012 0.22336612979860887
P 4.930084507734741 6.651422105266571 12.593344680214306 0.09058767768158592 0.7257108365538082 0.5018250868063034
P 7.151016904217403 4.079450387750334 11.030245612485238 -0.898730138468749 0.6147512800840896 -0.44288434660603726
Ni 6.236199399638746 1.410859311133842 0.44837203287063027 -0.776354883962921 -0.2895458109494755 -0.4804926438771145
Ni 7.698269541736216 7.68190925117021 2.5222674654986705 -0.7972376409492012 -0.19972432200995283 -0.5507575508409482
Ni 8.7230737359786 0.07775177596770692 6.629281545934931 0.9766697883690212 1.077920602191408 -0.23075290918098323
Ni 7.50382813101935 1.6931064564036191 9.973200996031494 -0.20013107053006823 1.7155068778921425 0.5144057516847914
Ni 4.408033327905989 4.777627164783503 4.503327889066472 -1.7676545064299751 -0.022989261806321697 0.626410975810205
Ni 0.02711933911499835 0.6597135686570276 11.366415614438731 0.8509893807493601 0.22652524425288084 0.9015218422812732
Ni 1.6349457152500544 1.4825342765933338 6.396497196093559 -1.1351767556004 -0.7950568312477985 -1.2830267573385647
Ni 4.477615057535487 8.225021321323553 4.857799015158169 0.4131942757407723 -2.496809592778642 -0.4801470876122376
Ni 3.740924577402206 4.800083545661423 12.80299051136123 -0.19703494810324776 -0.5335501858237263 0.928686061400891
Ni 0.14263841435396318 7.126549915239622 6.707431771179049 -0.3954878595999447 -1.9899232893993468 0.2667905195308308
Ni 0.4748487118623848 8.569487147382233 9.192437802732044 0.32787324577476434 0.912782502796757 -0.46784513031643293
Ni 2.840557744737631 2.9459448240907125 11.350694311652408 1.0064387921013376 0.6180541192050776 0.38095264209824714
Ni 5.244060701374956 5.234356533513974 10.878903743890772 -0.8652929418562259 0.917103498769614 0.9084144556360485
Ni 7.183434517005602 5.783004661586116 12.57943751514731 0.2049500891852664 -0.3364854129238076 0.9119294107678424
Ni 5.73598948314138 5.946736099270831 1.2707254350887491 0.03986521162605392 1.4432802749474045 0.674963945018244
Ni 8.712827897442313 2.353366286165404 2.3030010123067868 -1.7218898986003504 -0.18907404138495823 1.3687398805366686
Ni 2.122146354681185 3.0996783064295346 1.3136285068306153 -1.2326400773558965 1.129558638082674 -0.9379651727099717
Ni 7.651208458996963 5.467559530521346 5.496949296043174 -1.49532480224847 2.153656023806039 0.4267229063548264
Ni 3.7822017190322654 1.386318875284832 2.0777679189135294 1.173285389546663 0.33795711237332765 -1.0244154311844162
Ni 5.403954540038015 0.9732169480637124 4.335578907525592 1.8050758845012267 0.43795425629427154 -0.47365916589504875
Ni 7.191366779098211 6.369156598278987 10.259680517255777 0.690497778987785 -0.07363922275270543 0.2551580774982251
Ni 5.857828661649502 3.8476704238730024 9.193714860205517 1.1964122053721138 -1.51877043486592 -0.3465479393661322
Ni 5.499178408584941 7.993581049225649 10.738807509367186 -0.2829115934624095 -0.402194582196159 1.5303028609855516
Ni 5.570541224841713 7.85308636542565 7.366951623713213 1.0649964379305723 -2.417810134155288 0.24022896699221852
P 6.173383963021116 0.41761340128629126 6.4284502574212405 1.021667436125634 1.1414559037408922 -1.029115407763247
P 5.7052795101092295 6.383442014732807 4.466389621354198 0.462784427964074 1.6029527232417942 -0.1153340313883304
P 8.642566784253956 7.101917670801577 0.39107521053988337 -0.11203402048081995 -0.5860762807469003 0.8752096867493055
P 4.729042059466271 6.326860381310641 8.684528817958217 -0.210419854050586 0.02931546113466564 0.8256185060847394
P 6.668682120005118 0.5451795995784064 11.742103705456378 -0.46078308126332906 -0.36079262221060443 0.013449440636686514
P 6.9174742154306035 0.6385470984550476 2.6253703471565646 0.3197231058638042 -0.6028283033942586 -0.5175083018695151
P 0.7772735488302367 1.8901552310490741 4.423794108385598 0.9911227305695576 2.7614858941799474 -0.037620638566251335
P 8.85010009976719 6.669361503563977 9.028773385317324 -0.07798952930160116 -1.517866949215044 -1.4821059895653506
