# total energy = -381158.8812655092 ev
CRYSTAL
PRIMVEC
9.38104145051734 0.00000000000000 0.00000000000000
0.00000000000000 9.38104145051734 0.00000000000000
0.00000000000000 0.00000000000000 13.73010241304305
PRIMCOORD
 96 1
Ni 3.2133631418199142 0.96411776262563 12.486731713152286 3.375482041265567 0.16241735802937834 0.20961227054762607
Ni 7.089665713735554 5.968265411842011 3.532755704234262 -0.741173965186414 -0.11225050736700022 0.5442773424332433
Ni 5.182462483190167 5.428011240516759 12.10014650396707 0.12528985704946163 -0.6349568084976872 -1.512976711002278
Ni 2.3179990312457304 6.548342103696445 12.780679139009894 0.5071333863930944 -0.6622629525118078 0.3079155717059148
Ni 1.081305731165221 1.131034631359615 12.128321523556552 -2.1355971094217994 0.023092877263721518 -0.810737732318165
Ni 4.950816429143727 8.283309415062607 3.564513343515168 1.1445432844169643 0.8964333720147722 0.2546921936054001
Ni 7.976802651046112 8.164911292188913 3.674230250723913 -0.7616990817229592 -0.6725707621957191 0.41711649361331393
Ni 0.18669210389900714 0.7397241916465906 9.294784550629444 1.2516153329068187 0.5229163602589638 0.029540175550962028
Ni 8.956521085436178 2.6082015453965663 0.06790372970516925 0.1736566783886235 -0.7666533404044409 0.560308684864493
Ni 3.7355775706298244 5.180558131796191 5.783503926252758 0.20926182918674285 -1.8375543167449062 0.21123849329713942
Ni 2.0979667063901344 1.7363650865272566 0.5500489165984008 -2.682710121531625 -0.33760204302675406 1.7249438549353262
Ni 3.573416889860103 7.242783070644232 10.159754087230823 0.2716984983554095 -0.062350280102447454 0.33728451178633523
Ni 6.6476779505476875 7.54562184749302 12.428680891176633 -1.1525206461954862 0.4140442824458934 0.005166888912920133
Ni 7.597320766370838 5.201618569626114 12.909138428731067 0.5410927740576746 0.25279034859699695 0.855951352740326
Ni 8.597170915497212 7.670258362864218 8.990978588417509 -0.42606573238680173 -0.007368524549929245 -0.7820848444681627
Ni 2.7018618622312824 8.318994896356603 4.020599873747395 1.0054764281880684 0.9898158388326758 -1.8285531416875604
Ni 7.79711818503528 0.31536059084227647 1.2964439667487142 1.0415317791497287 0.4346416469812708 2.744261302771545
Ni 0.9195897117554713 7.7076042884771 4.96831957609387 -3.681246628066751 0.1991172845535732 -0.3561427821434189
Ni 5.371987661576763 -0.026211567635004065 0.18170795662994818 -0.458183695967269 -0.39085550303425587 -0.19690279340075767
Ni 5.589796679632496 1.7245168313026724 12.400534014711202 -0.19346162892969263 0.05886155022289862 -1.4603649983438334
Ni 0.47325195969378137 6.394371072024951 11.231676900838144 0.07199114562632117 -1.3065222693573435 0.20978582001101292
Ni 3.628305362796794 7.8889022936000694 1.7081478522517013 0.6767608890176667 -0.5503425747907168 1.8540685123498455
Ni 2.919783452783211 1.8113383689935079 7.606834080403498 1.4677682327864399 -0.6091511602884928 0.1474154853039074
Ni 4.032693912255339 1.6756791300364935 3.819947842216002 -1.0481402856051818 -0.16569525744970173 -1.2432132248860526
P 4.8381125983692606 4.325401164446527 0.13069103945824975 -0.19815620619188454 -0.2974457825228426 0.36612946104248556
Ni 6.704667776746697 4.08912087597337 5.366342150892555 2.1361036167445726 1.0106327755780273 2.312772599596959
P 7.76072912564006 6.274565792948813 1.1865309957757622 -0.10648198031433921 -1.0245990079501321 1.704957127400754
Ni 2.8844450700191513 3.588201411027121 13.041715995604727 -0.649200977121527 0.9793087686537649 0.4032939859079248
P 0.9542676692085174 8.346425061262924 12.424863745451468 -0.7313857754513985 -0.24028013194512812 -0.3262781333735026
P 8.834586309973673 2.403450936899519 2.7399376328611647 -1.2672682089527272 -0.31057794902942637 -0.5453170965516673
P 4.551634357634228 3.087272565039523 8.914254803635416 -1.1493587035277366 -0.5190594484067189 1.8475296827900634
Ni 8.560519186944203 3.590087000338397 10.530096023319151 -0.05632824227808363 0.3171165214788925 0.8471255269185798
Ni 8.452590306216699 8.602283583032762 11.023926235317486 -0.4513885274223065 0.462490550872739 1.1871518631161102
Ni 4.034795265517657 6.159948229739022 3.694784112320954 -0.5179371618768176 0.47269963019525685 0.5632662248309203
Ni 6.113183738611111 7.630388937128287 10.131840798694997 -0.13543825833737322 -0.036694527207556164 -0.7744643518084274
Ni 6.091954442036895 0.7957412038576424 2.7743182113034277 -0.04604948605989489 -0.357842538443345 -0.08711411731068869
Ni 3.962683200663043 3.6174045927485228 2.0478175355432766 -0.7653667603825335 1.2494111261666483 4.054947987919223
Ni 7.437308344070181 4.157339808667887 1.8221772241688714 1.778631317156453 0.9882688060605302 -0.49326151350700864
Ni 2.3246220464385696 8.624019455839855 8.21423962191768 0.27917398079684824 0.3703283296151816 -0.44488209376235643
Ni 2.555236185936549 4.864285703734731 10.785778181511617 -0.40489141230203174 0.9606441023647262 -0.14481301468405383
Ni 5.046005855718434 5.050733900558648 9.672870536351892 0.012258505652378888 0.2483245995161594 -0.018556679956264817
Ni 4.657743316339905 6.928518185431592 13.651016507471534 -0.4940698683409168 0.5274898385622594 0.16015401591649836
Ni 0.9845309086024271 3.923986405095815 1.2740392256933903 0.02443602155517727 1.4867090355550008 -0.8994027390557413
Ni 6.784903823410091 5.827925033251531 8.110550033776072 -0.17687004311959859 0.6423777835521066 -0.03443195642562457
Ni 2.4395116598475006 3.0854714051003946 5.347160735644964 1.8864438433567576 0.5168130755747035 0.4940202460499041
Ni 2.8800828857915723 5.463359004322169 1.4337795977949075 -0.5001698105910676 2.034251421892761 -1.5185606328479588
Ni 0.38997833184137665 8.913893633543456 2.5965681160188887 1.7303110327845104 0.08276792452685101 -1.2038424363979139
Ni 3.940937946814598 3.0092410630932926 11.070224488690318 0.9277982594792988 -0.27194275315573163 -1.052411659287026
Ni 6.815045109266455 2.021830174796529 10.257745630856665 -0.4082477303687743 -0.03749748272482574 0.14154848500016912
Ni 7.720803413656031 6.120988765014004 10.797284028726938 -1.2881157418256977 -0.7034196292557756 -1.085468332631679
Ni 6.375158699340907 3.0063517023576063 3.4853317258994725 0.628070365790499 -2.252160385231541 -1.7027266954083387
Ni 4.375092540475522 6.362006479368724 7.602495348779294 0.2847995545137418 0.7270496099698899 1.619477460369695
Ni 1.3140775101736157 8.250363197842702 10.316139798945713 1.036517613764589 0.7832223005067157 -0.7070227732260017
Ni 8.893339771946414 5.284359354329859 8.774729637538218 1.9059942546848594 0.4586176981808941 3.4026891978079785
Ni 8.756057612835914 4.190483027756133 4.313394369623134 -1.1759253982726716 -1.2187800315443527 -0.5592506759136239
Ni 2.8933289161772517 0.9260823304735509 10.32901903061462 -0.19909620150765064 -0.6527645261030695 -2.0078598192731096
P 4.893517028580181 9.089797539890386 6.513739194574196 -0.997727894590901 -0.047589833963821264 0.6395187168367568
Ni 2.4071283051085746 8.708570781524081 0.14675513466535792 -0.7284647451498616 0.8098211340411666 0.1427183369385542
P 0.901803257356571 2.2761971109917742 7.716646674234009 -0.8924131951117856 -0.13422521186587852 0.835881064353012
Ni 8.692163340203576 4.798374507212223 6.786555824791761 -0.7550478949550288 -1.4327649772383775 -1.8071181117422364
P 4.982693207649774 4.188334769287067 4.339824515521584 -2.665767065919383 0.5066214797536823 -0.5694093616141807
P 4.845523621035468 8.726948241528007 11.586118909942982 -0.312750531200713 0.30691284147301334 0.3864319200452635
P 0.6982224647158229 4.888235502300339 12.825576802909227 1.0607811142976442 -0.42662469021406524 0.35329091451692063
Ni 4.225014640964124 2.0409862612324754 0.8559112030741759 0.26278011281985714 -3.57701282035664 -2.004107551319529
Ni 2.8152598900656223 4.192509332687653 8.17159434604639 -0.5352124040174976 1.0379898274347412 -0.1238371837633351
Ni 1.5082556850696283 2.8516020442540926 3.1757310944458697 0.9796311849901903 -0.7082458469998254 0.9563423896655787
Ni 5.713476328786031 1.7217494241045315 7.8816141625755405 -0.863893490405538 -0.8008179021012918 0.7566514919967227
Ni 1.4059648101932516 2.825560273467517 10.001459333601284 0.15168763031670005 0.018923576377380315 -0.7709247140862852
Ni 2.1145148633308835 0.8199227141445863 5.44058089782113 -0.2706050081809146 -0.7707210827159113 0.411982000600226
Ni 5.284940978893536 1.9194923947134037 5.736230982683696 -0.4571069179633224 0.15364398271212248 -1.2393239171339752
Ni 7.753252435684405 0.5675670732147019 12.976278541670377 -0.2392645461964202 0.8811885300405599 -2.9072949542286834
Ni 6.341480760895731 7.8536858643735545 1.689393274385519 0.15639660575659514 -0.8799919386292973 0.15105076806364953
Ni 5.4501411170605385 3.9916237132266543 7.225960987296073 -1.1149401168385509 1.0527343327337675 0.2456059150334157
Ni 5.282952198127415 5.517806568315428 1.9511571616849483 1.7137258747323194 0.641930668712359 -1.4402484300996161
Ni 5.712528843609719 7.054092804937753 5.3637332832932225 -0.026586749349592924 -0.9120587372568552 1.4044548174397748
Ni 9.118897530156943 0.7485845852013172 4.471524016924919 0.24553135304173843 0.08687449049605683 -0.7875551235541146
Ni 7.567695437788703 3.2505964949366 8.182399429472895 0.2351600371097434 0.06292826409310452 0.24998373238613725
Ni 7.582967773105902 0.7722398190685468 8.30557250239355 1.5065607801736052 0.20447906308611882 0.9057875595361626
Ni 7.755682125393959 1.716289658039046 6.026265576194374 -1.9332152951843418 0.2511289017341739 1.104141226450834
Ni 6.564618210438056 9.24632021480898 5.186285257540142 0.45014822725730214 0.7694627848287781 -0.37186584930563055
Ni 0.6731553841254739 6.892673226434652 1.1663870856856995 2.4915295753266253 -0.8192401133622214 0.5308289302378213
Ni 2.779236691283039 7.16731259298645 6.060453843288969 0.9771230738563559 1.2330812786583731 0.6226463665614503
Ni 0.2227359409725595 2.7837208290481623 5.663968821167488 1.8251132627680762 -0.8396806406047603 1.8839665854608587
Ni 1.2573503531323968 5.170332796725095 5.631333116416258 0.8229422448041569 0.6300992232950697 -1.1957378050129084
Ni 9.361303638631409 5.696506024984549 2.984539843115579 1.5312809086281047 1.9304837551857914 -1.1912358033774968
Ni 6.322728059237819 2.467166969746213 0.732418236643498 1.939036786962125 0.1244017980175535 0.2274783521947695
Ni 0.6845064441585275 7.132321308752327 7.185731329572316 -0.6287205977799881 -1.5485522941140426 0.32311387671290803
Ni 9.069844064939721 9.12530478139874 6.771068663627656 -0.07343996225770578 0.7966840824385762 -0.21914026464271938
P 2.5020832056495395 0.428437787062459 2.3975230568706873 0.2888379862491735 0.3403436103276333 -0.11066002295142877
Ni 6.618446625702237 8.331377870938116 7.6632779299959575 -0.4001256154822722 -1.7833271799702253 -0.6999512110912011
P 7.395759711932665 3.1243745835773145 12.539523523347334 -1.048754007929781 -1.626917461587508 -2.0617334293631138
Ni 8.577254964711946 7.708701870315007 13.604512809293142 -1.03127693419094 1.7504419992064304 -1.5486615659983973
P 2.229160569664724 5.084993463567501 3.4148960531340373 -2.114659587938184 -1.1392396128158637 0.6219992198957546
P 2.067262558052792 6.394314785776854 8.633364849232358 0.9270089308087841 -0.42893199819100325 0.895796766872038
P 8.484898612624828 6.306395666248111 5.421345072533711 -0.2949818943633823 1.4064034565257135 -1.7876682305477407
Ni 4.715145908358297 9.073634005644971 8.904341857241262 -0.6716150831506691 0.6459097079647651 -0.5351998056120074
