# total energy = -381176.18942309415 ev
CRYSTAL
PRIMVEC
9.16504351728737 0.00000000000000 0.00000000000000
0.00000000000000 9.16504351728737 0.00000000000000
0.00000000000000 0.00000000000000 13.41396760435538
PRIMCOORD
 96 1
Ni 5.067599943327018 8.815855231316718 8.888980362966688 -0.7410850050170333 -1.0897335356659361 -0.14057480823299018
Ni 1.136208758433097 8.195830881328353 2.0629477008059873 0.02044438389728092 -1.03489576189045 -0.4440182031001643
Ni 7.844397292759023 5.186113119328844 6.605935978296448 -0.27723099813786445 0.02479649021838955 -0.10863656476349676
Ni 2.30330371307114 2.9595483145140875 4.680159648813957 0.15676864438403323 0.6994868698602728 0.6330215391481872
Ni 1.1262646863611785 5.31855716127474 12.096017843011895 0.8403234163950818 -1.043049501345836 -0.028153065395448287
Ni 6.14801191763676 4.441178393056443 4.842697110712061 2.472341946654581 -0.17649517627868314 -1.5978686238506674
Ni 7.813346125773161 7.7531042956084395 2.0342684470479706 -0.4449034339185951 1.3387176231429654 -0.2581456993716393
Ni 2.4751207813958045 9.325798245216772 8.194646757723108 0.7204236200129399 -1.1438287748484428 0.15488016911206873
Ni 3.401129269810969 6.106017688850094 10.975912065804938 -0.3550904296195046 0.8074220376813708 -0.7971641073987884
Ni 7.164497714341309 2.2971906291338406 4.145197899483558 -0.8399945723007534 0.21977327024102794 -1.5539678087026592
Ni 3.362801058378007 2.4363343177936287 0.41980481221588756 1.8072860047786683 2.793613113731795 1.3056591500260997
Ni 6.7917920600771176 1.7022326728014194 12.868971023414309 2.589587593243327 0.6076149261496245 -0.34790162518054923
Ni 6.321460363683822 9.155465913920358 3.705756065312562 -1.1944388836958268 -0.7972726079521947 -0.21137167644089405
Ni 6.565048886750602 6.41298248691901 0.22411830490126466 -0.5543210998224906 -1.283301865376822 -1.220092836818505
Ni 6.045170965822013 1.2175668485551456 1.6459739704914969 1.995621368225389 1.4326515915889648 2.5517499535702632
Ni 7.047496770497885 3.6418216391683242 11.08294144244629 0.5613708075804202 0.5109031378481718 -0.22242459182094595
Ni 5.981831350993414 4.027202548432943 7.728860006344066 -0.9330201699998706 1.365939434973396 -0.10034372862708525
Ni 6.829735339687941 5.680906316514722 9.721652049556582 -2.1783409281472292 -0.8027372306111917 -1.2739484491863802
Ni 1.0777082865113854 4.184025605780962 7.085378644318034 -0.6391291947078218 0.620206646771706 0.3183318819432324
Ni 2.1179590407113125 2.1057328728367137 6.961781618750961 0.21822186659350806 -0.29761290422832615 -0.919840695195119
Ni 7.325206750084254 2.754865400613478 6.405853916174736 -1.2846444954476455 -0.3585434211651115 0.983495553041603
Ni 2.136096661568757 7.499883311944806 4.265346119225136 -1.9745349798687348 0.3142672249555555 -0.04476470581020032
Ni 5.04962729325049 6.048708672568336 5.993468206578405 1.1396455900050309 -1.26844217465617 0.662943266408284
Ni 3.798278094780974 0.07619633768803506 2.241621138086414 0.31332183032315075 0.5908821867759759 0.35300012274937914
P 2.782241385202253 1.2350079261153868 12.484513950522825 -0.46394193860728483 -2.013406460122952 -2.549932697855867
Ni 8.19649076445202 4.484299922179372 13.441868720320823 -0.21358102538738702 0.9647288139570611 1.2181753080808182
P 3.544030626258303 3.6330873528231273 7.9758909197059715 -0.5561671518922938 0.49275886283897724 -0.030645492799998834
Ni 1.4693947456243728 6.628544307316734 7.455335702071286 0.422511182266324 1.0361980256416414 -0.3151396002581799
P -0.09622012447395956 8.146467957660747 3.874705391562292 -0.10982415731369474 -0.5394984329873612 0.7921648544119841
P -0.06285203452055702 1.2035351671338483 7.2755615430804115 0.14635079148481892 -0.5486510460209068 0.8293095817830815
P 6.566982710904679 6.797813493580574 7.671005669980944 0.46641174030401605 -0.5612705345571302 0.47977196366100594
Ni 3.502650455378383 8.541252201437613 11.67919258640023 2.948625180436038 0.6999440120023495 -2.9361743562671947
Ni 3.438229365430441 4.481935340986233 12.529209117594828 1.2622602142151746 0.7045079772239479 -0.008491839521095054
Ni 1.978476245446307 5.1249272896955445 9.263552020063914 0.31781894686255585 -1.3245732133217833 0.1406293156200094
Ni 4.252616790468742 7.4395040061293205 4.452779504972235 2.362201800762364 1.1479919050871972 -0.9410240141409536
Ni 0.4530106809013888 6.282719725298568 5.394694842685117 -0.7940299326451808 -0.11018951107291346 -1.2797601707721509
Ni 4.31171299021043 3.7162417914484904 5.817811901580074 -0.7976886124436908 -1.4532101324666071 1.4147299741135377
Ni 4.049171157425007 6.902340813378024 -0.17245953786590063 0.2980836732171576 -0.22352168153986665 0.6110278084859154
Ni 8.896003535712044 0.4334873054842447 0.3361178845698994 0.058982134961162926 0.420453785516663 0.09434251673832784
Ni 9.05774822135741 6.940128287251316 -0.01336263325424657 0.1712825217294921 0.44692252123115284 1.3003379949235025
Ni 3.7071867285848445 1.2026094977520385 10.155674593574465 -0.6630666793600258 0.7780595253588536 -0.6735534378239626
Ni 3.137157690257602 3.129523209118516 2.486587167173848 -0.5111926440641326 -0.09250623486053745 1.5294114595195338
Ni 5.346382232989345 7.371508549261519 10.789188970920117 0.7514169830706607 -1.0794468090279474 0.8649581842246264
Ni 4.628273588702664 4.310063282401264 9.835952971619003 -0.37419732565228453 -0.8882050705677091 0.7767901717281267
Ni 7.039697318577883 8.517065651946558 12.957584161879335 -0.9603000887617461 -0.158945597430694 -0.31179048128028886
Ni 3.5562567941329015 7.540264493095842 6.750927881139731 -1.125117828702501 0.8861343040816093 0.7119382082497482
Ni 6.317922656937498 5.859807963375417 2.428987619016809 -0.4345881680355161 -0.9959476627620267 0.9929705824115737
Ni 3.9181476972036697 4.8299137081997 1.1883853504196717 0.7292121648388473 0.5914943664386781 1.7277003346345408
Ni 8.453606891553964 3.3142263284414453 8.549298193024653 -0.9972188161649665 -0.4524830460380659 -1.0085159863453406
Ni 3.261142397159829 7.003376251646072 2.2589659826911204 0.3947864626575459 -1.0488141717437551 -1.0203196638484882
Ni 4.847198980022408 0.7207270971815636 13.437710540137386 -1.899789154315412 -2.2918307072379687 -2.238549993536958
Ni 1.2210495650411632 8.81422385359432 6.022710194000214 -0.4506444501674303 0.5421764940401566 0.40199686436305604
Ni 4.457794616712101 1.6417983767256292 7.686967509538965 0.26817017348717687 0.03811300482163759 -0.7846353788041583
Ni 1.9852400474638885 5.095681636256382 3.4839565163875146 -0.9024662084724135 0.264241527856732 -0.9805213009046273
Ni 8.428842944329702 7.8541397338764884 7.032137990794547 -0.5694895800328128 -0.49165020315583075 1.245257509009591
Ni 5.8720432962934 8.314692328978781 6.2590647483238 -0.2308974051786475 0.8284302645019217 0.02522149357095011
P 2.7157948206663907 7.283313336774815 9.119164093579654 0.4353890666702567 0.613232529446718 0.21358128249770314
Ni 0.434125192503789 3.331905697129677 3.0426770910179743 -0.663966822576792 -0.8535358013202977 -0.07741771595853117
P 5.627684909582342 7.893696061122941 1.7466189779113757 -1.1396576741898887 0.6234068988765586 -0.07849809350690351
Ni 7.980470691885086 0.21495051200399248 5.34365471607819 0.1856174502949255 0.5718768493180667 -0.07777947017332412
P 8.533058652652088 2.5562497454332465 1.1021120475306463 0.28841092601408397 -0.4369517831716862 -0.10141227910091569
P 5.6945255709837275 1.355024169232231 5.771667741149018 0.0019211282821128205 -0.24777206944679908 -0.37689235598594445
P 0.09289779624716643 4.269379654818548 10.181563091621978 0.45333690939792887 1.1141713569933263 1.0295823200973364
Ni 4.978744847716648 2.663911510068112 11.569748220827126 -1.4444017901463577 -0.3779506220471297 0.2434094216027292
Ni 4.425707799823817 1.9383425204666458 3.976396130432315 1.1758256394700137 -0.21429913450033414 0.16503448393725126
Ni 0.8565062984149912 1.1400855717846379 11.69286133210351 0.32707054736781094 -1.3759806212594818 -0.9402701666940646
Ni 4.193713056638122 5.237739808712363 3.6878484870440627 0.8925114112525467 -0.9301197085236238 0.10459839013838114
Ni 4.645063948182623 6.069458330790294 8.368933805239829 -0.9689521080097894 0.9506201424698207 0.39749537694827675
Ni 2.5512547967888266 5.249590209808208 5.707441866625161 1.0986748040196241 0.9819348934227023 0.12828544934267586
Ni 8.133022839016041 6.176881804297169 11.439350733068935 -0.013584423552654025 0.336084320830647 0.335420461994403
Ni 1.262668027049074 7.3791155352704525 10.979613826827839 -0.44619618458808963 -0.4377513962548461 -1.1527111649397372
Ni 5.964747710125159 3.7471096575666674 -0.02645489772865756 -0.9309298631297451 1.0979361260813865 1.9933346290737408
Ni 6.13492423568404 2.4523731437160787 9.313880939304223 -1.3938227916472254 0.06726931467061963 1.1181347125164487
Ni 5.756224643046545 0.5242908893181084 11.115108911716355 0.9693850817821498 -0.4404232866600544 -0.672700602905364
Ni 1.9082170228625934 8.253130732566728 12.89472571182841 -2.5438265849581287 0.11408241836941643 4.244810843754064
Ni 1.5419452290541504 2.3242641672909357 9.280681486149092 -0.991161811337609 -0.34710046943549255 -0.8059773348150441
Ni 8.761891455870213 0.9868827065733994 2.805946769915634 -0.7986445485990568 -0.3006308651190435 0.015412735010644423
Ni 2.436609269095157 3.1426750463749245 11.157362511230794 -0.5161708140050143 -0.7848978884369257 0.22857107103831603
Ni 0.09456950016045489 2.340623769731834 5.429611824970459 2.135962463181018 0.01260071948314604 -1.3593129307958138
Ni 6.896172739180419 0.8548052663628731 8.05942020860575 1.702669874028474 -1.0737944958381767 -1.6391276305004547
Ni 7.1623255990592405 6.841475760263174 4.643781758613164 0.5652014941804201 0.3156533066698048 -0.18718556611299375
Ni 1.7967609302666452 0.9082640479189052 3.79656881418981 0.1193017577868268 -0.4230652549975811 0.3019446988344606
Ni 1.6828394410003318 1.1827671788251222 1.5073407747482117 0.26382166671049406 1.4753154490060785 -1.07368136729908
Ni 7.372745830118394 8.070544738265562 9.694247653333314 -0.08638495245414798 0.13744089058969877 -1.1463965355756192
Ni 8.975281160985867 5.856526877843852 2.6726118857527874 0.05579062460705876 -0.6618839719058343 0.48298275728881984
Ni -0.03400689347728525 3.1178377788035885 11.997304826737418 0.6935545635362378 -0.1399204624784429 -0.19294586563553867
Ni 8.797671785242352 5.980154148054094 8.618755474312243 0.2774863086817802 -0.3783224035642517 0.8121536388290851
Ni 1.3595425356206694 3.995702294321252 0.9123791523984366 0.22738836358412448 -0.5297634650877845 -0.14749287550906212
P 8.454514230849005 8.746136746292676 11.344876549359675 0.7359178589937971 -0.29609595336316746 1.013791632921983
Ni 0.5833192677387534 9.016817137603319 9.529577485839694 -0.3918266086982736 0.5804095693794262 -1.5421533325662344
P 8.497333313540254 4.37337540209971 4.631253144306885 -0.27640207447866594 0.42117729394624887 -0.12093235141171431
Ni 8.114949373462286 1.542641772351354 10.183320946943077 -0.24732161217294174 -0.5237488834625884 0.6977693729485338
P 5.728344581071636 5.195864725489694 11.814834311982894 -0.7784313068759755 1.3880668630000548 -0.19587229525371427
P 5.561320830436938 3.4805810309090925 2.652571601888771 -0.6580103478830409 0.4476933379589064 0.02586812601601351
P 1.790189594160133 6.072006212851117 0.8192311504668799 0.40783172587727823 1.1704422636709133 0.019369919886179546
Ni 3.3639375237576545 0.3206582893893348 5.409289257770207 1.3140872261887948 0.7562277741957428 0.5456647096990731
