# total energy = -340860.0926576789 ev
CRYSTAL
PRIMVEC
9.39626656451869 0.00000000000000 0.00000000000000

0.00000000000000 9.39626656451869 0.00000000000000

0.00000000000000 0.00000000000000 13.75238590635553

PRIMCOORD
 96 1
Ni 3.2126586205254064 2.3012489775363485 2.1177577494648143 -0.09892242279952641 0.016620125055184277 -0.7372306642679497
Ni 9.332221355943428 4.522704861592866 7.170810432469123 1.0472637965374996 0.041546455983218766 1.1836916724816517
Ni 1.287777089919651 6.130218101410264 8.57199951708875 1.3625147255625631 -0.4342099587604909 1.8667155116898948
Ni 9.073777051166847 2.49269790354336 6.009270301131999 -0.6055873541966345 -1.0045647150070764 0.4271898186889159
Ni 4.207319182995305 8.828487519220195 4.200047412500246 1.1748794735066603 0.9563794135511013 0.5372708292084231
Ni 9.256130391388592 5.26345951591251 1.842847427611684 0.6823813205282377 -1.4546972585350948 0.021703710225678748
Ni 6.08776577023482 4.2310259628881 13.49649530335931 -0.4957603686694623 -0.1427021389886381 0.01559554044541185
Ni 6.667336872322597 6.594299694317566 11.32541938036153 1.328041374376042 -1.831656977423865 -0.3150966628353864
Ni 7.510708150981997 4.55378771053673 5.854968574343448 -0.4863683859316011 0.061110237047759274 -0.6868457840574945
Ni 1.3956838121903021 5.391972250194614 10.979079581668515 -0.6508223147750339 0.06778842039888326 -0.26617294055149
Ni 7.98428936912577 1.6498904008623845 10.842669285555296 -0.46587772217741696 1.9540967666190412 1.8387218546904465
Ni 4.035546038635346 3.752398949737418 8.132555874065277 -0.785142400347564 -0.08434092544092572 1.335281857988539
Ni 1.9787691178769315 3.431845324670955 6.462232352491488 0.844212724147159 -2.0824614059390845 1.273495935029994
Ni 6.623587856396774 2.5640155648141922 6.437656417965287 -0.2670298892351466 -1.5506120048565488 1.024470195681752
Ni 5.981512790834217 6.649427588741279 5.668953509141828 -0.7810589743068097 1.4185915139514729 0.8906887562215111
Ni 2.9598802643320026 6.237297952245891 1.9449312836518298 -2.715021432069821 0.36923638210258347 0.9261306419688887
Ni 3.2842957548506804 5.870571074546375 6.908772055830079 0.3994046781558476 0.06552764938916457 0.4850668935113581
Ni 6.999889529463217 3.9007565984601027 2.2348455635441256 0.7768529066452621 0.013576967353486295 -0.22860166716593533
Ni 6.056964809280171 2.597513254198977 9.741350764606961 -1.0339156573653678 0.16376255920336313 0.7623228313498871
Ni 0.24718945699394568 8.659232574230536 5.498437585213758 -3.5442574803024898 0.06443647320751483 0.2993877367405618
Ni 2.8103762711198526 3.99277423440546 11.835151793495212 1.3216508974686656 -1.041760350220767 1.3172761654397378
Ni 8.2842651709797 2.563592732830373 13.663710318933699 -0.347321327197047 -1.7840817987480628 0.8952869171151547
Ni 3.13786434072095 8.196663780198676 8.406929669112271 -0.941166710366405 -0.6078039022319791 3.6054672190425907
Ni 0.6246666029754063 2.5861907532989306 10.247369773296077 -0.07360091331560228 3.571647185169352 0.13088612019031653
P 0.49282665079395965 1.1685948480804889 4.542343997801321 0.09996089136636978 0.6049499777229518 -1.052277190591691
P 0.16924179021682853 3.6926856773558447 12.322013694437429 3.669538338490887 -2.1597729353370547 -2.9235854638585907
P 6.898297098150931 3.9743199673783307 8.237018864734377 -0.98386964855157 0.7284531751856358 -2.04425789828617
P 9.235862644964193 6.634337185052088 10.26949798044928 -0.5780649804066497 0.47342673816926845 -2.144043954637572
P 1.9072917200788784 5.066776869572448 5.294916336255395 -1.2708875508728692 2.9693948088832216 -0.894475219847137
P 6.459557235473858 4.150763056092915 11.368478710340414 -0.2559427781830495 0.603416828907877 -0.5186688978365197
P 5.718445523034546 7.527273768481402 3.3975404960103908 -1.3626880179156338 -0.7713065229057361 0.035990044941363826
P 6.274394411626292 0.7023746649616924 11.661473086328174 -2.4889893254032747 1.0017529565898942 0.3634639983951805
Ni 3.660822938308494 6.419998954320999 4.447356202076292 0.08772835385591989 -0.04585408221963716 0.009381184104583844
Ni 3.670651432865713 2.2229874754645746 10.065962637091456 -0.3224315059339028 0.8526336012210025 0.6419162705346558
Ni 7.415646124753142 6.768186998596621 2.1078418696309393 0.5802689300365038 -0.44422877644907366 -0.35484000417159534
Ni 1.3200344721518997 7.952990406056845 13.40755776350942 0.9367930067787416 1.0984511180445922 0.1704741668955838
Ni 6.1360625790532755 9.14761291180798 5.884081965869344 0.25314336106104146 0.42324883176329686 0.32926112726122647
Ni 8.022344247669494 2.1034105904405145 8.593824224840235 1.600577281031082 -0.85558779875332 -1.8167360944479742
Ni 1.3740348146187609 6.9078624972515525 6.448851129643557 -1.0227467852327417 0.3879403862699899 -1.5110499262932107
Ni 2.0584588524273837 1.7761856162960157 11.706456771646748 1.2602408697923007 -1.1917914187706509 1.8064840777026632
Ni 3.872774517397581 4.5933835767548175 0.658663234101098 -1.9725665432884543 -3.156635653714183 -1.3969839629840264
Ni 3.350539432315683 3.9384450226178513 4.33783238237419 1.6837954057214743 0.5980594212507054 -1.1873938039235874
Ni 7.634522752110556 8.839509339598415 10.706177241925209 0.21454698884508208 -2.67409409772784 -3.333387426088362
Ni 2.0744700902146693 8.140662033008406 4.290208346223322 -0.1726755454222768 0.5819869411688752 -0.5836931252267045
Ni 6.488206451444184 0.07643392827504451 8.433925142212548 -0.10792848295287864 -0.649504367294559 0.590318343852706
Ni 5.2696986367404195 1.8148606484160088 4.611491121555216 -0.7562686547360072 0.3348170240824492 -0.19120214347155456
Ni 5.371394426982083 1.023375552304373 2.4520365007260474 -0.30936515966824785 0.6681026991220366 -0.03920058145886152
Ni 7.6710836243114535 9.076830837716651 12.843421908084304 1.650445883726751 0.6931326455074709 3.284300181643408
Ni 0.190460438791505 3.730533838040814 3.9500973324652766 0.18748072875590938 2.010853097573479 2.16998947085874
Ni 5.409364739129043 8.05826617376151 12.62651943627801 0.013562569175783093 0.07629388676673313 -0.3940097323925214
Ni 1.744980615890161 7.986535076773165 10.489287924891745 0.025943973559271447 -0.05259165805378685 0.4750989836653689
Ni 7.580841882698136 1.9092367472044467 3.952215250890895 0.7747564291275496 -0.11994941867315471 -0.5489153554258869
Ni 1.30216277363581 5.740686485383434 13.503893923449514 0.7886272735723708 -1.9890403725737615 0.22360498528229233
Ni 8.267013626039878 4.251312501845113 9.802604085036267 0.20864887819309227 1.0008916370308634 1.2763642577167245
Ni 8.800411475494602 6.9657622902358565 12.24659550255018 0.3851206574330077 0.2533256522751766 1.2842647435107237
Ni 5.071108548340018 7.860850618649495 10.123405771533236 -1.4756563772852649 0.5785352351748488 -0.3328737843131493
P 3.6680580633649553 6.8476136376904755 13.186750203425897 -1.0433408073340096 -0.12355924751160009 1.0327766586649183
P 6.827956648576037 7.199672943684619 9.156778029963917 0.6374566921014053 0.6865825030937789 -0.7284611456054358
P 1.8175009992483018 4.002602728962679 1.8482794091638142 -0.6029159780120584 1.0041667082377093 0.013683925244995789
P 7.861677490084519 5.551549040887968 3.858617162952685 0.6559023004011028 -2.2858960869210887 -1.3858248610434132
P 4.2854585336050866 2.441544629767548 6.389056109745112 -0.8207048708332059 0.41998533052067677 -1.2015042751830405
P 6.753857692478305 6.447276315410488 13.722157914243708 0.43662448173925444 0.6867588807706431 -0.5582901117725675
P 3.9167020623832385 2.3754606888297656 13.651497991614372 -1.7254822439372994 0.02411591921159718 -0.8883752775969862
P 3.3903420163925273 5.996105192409131 9.572540263013629 -0.5088056318891947 0.25905895521452804 -0.9170518195960723
Ni 0.17838153845373747 2.5808348815038884 2.155796654355817 -0.9944517949427906 -0.7682574516667673 -2.17063636041412
Ni 8.240281248396201 6.732274468770914 5.453000060232551 1.463197582696622 1.9439501651033424 0.9135414924499685
Ni 1.832130985888445 1.6941280226361763 8.452835128155572 0.26610480631771594 -0.9468429348155757 -0.4730503286664563
Ni 0.6337819209199167 8.76121964872772 8.196188329123537 -0.4248354595241263 -1.0660729588242028 -2.0936549606620587
Ni 1.31172817273643 0.640974762777996 2.571090953343433 0.8606880960943629 -1.0149224040923166 1.901070335020681
Ni 5.225771091754762 5.966629105003783 8.181267058227874 1.082357297806523 -0.036526377060808066 0.8416632182524278
Ni 8.964395115085983 9.064446558723905 1.288892426730303 0.3805278958560027 -0.8444042713326748 -0.4259549178405503
Ni 5.666803643410766 5.0864526512195 4.106916318997498 0.3935248223363029 -0.7977983985486776 -2.8999590826889023
Ni 8.375390161625884 4.801614234386296 13.344792583831302 -1.9505051926130408 3.2977444800737725 1.8242056633521422
Ni 1.3536449167323699 1.2208756738131519 0.3724736341729337 0.38471545157478904 -0.04756283738062776 -1.417183834970669
Ni 5.913934843553607 1.7314218036090265 13.672978796019017 0.8889026108553659 -1.3746464758290906 0.21627836971389203
Ni 4.457363225693346 5.7805548433244285 11.389863672828726 -0.17146018495793697 -1.0413124640500713 0.8316670262716644
Ni 5.0609981657935865 6.19712891378307 1.4380731883814888 3.208108367672178 1.7876769722984889 0.6289268002535233
Ni 3.588264969885125 0.01078691372054227 13.184810814060112 -0.3992252151551899 0.761850519699159 -0.4242433344660823
Ni 0.26828971261315276 0.4466562170407989 9.99632033010318 0.6334745675252058 -0.8024107005097084 0.9287703935845812
Ni 4.317095762261068 1.252043089153778 8.091298747964094 -0.0023489598481507934 -1.4888574493565714 -0.22028389132885934
Ni 0.34658879975015516 6.931306181687749 3.396550129541623 -1.0384590537616762 0.1129822433267022 0.8862376624286931
Ni 2.629122294056037 1.899229723587393 4.437936445103432 -0.3812249219230273 -2.3469986106593645 0.3501518546673067
Ni 6.123095731549488 8.507783553892818 1.1039936379659658 -0.16690161905297707 0.17565776797905233 0.32397519627193877
Ni 8.545735073507165 6.637738633455255 7.84407170590492 -1.2151568329694684 0.7935481079127559 0.8362438470090694
Ni 5.05681682728693 4.514952941889516 6.169251131276557 0.1664262220784553 -0.8443623623511457 0.38229552927938676
Ni 1.7437309124713178 0.5775969465366567 6.375660792497721 2.1397913500088053 0.7156871337692191 0.22691965147782212
Ni 3.416566995655623 9.10369476308863 1.7875212719688922 -0.24243188818080824 -0.5974410709404162 0.38294293305539856
Ni 7.44451145484853 8.738396117867792 3.5068171939086157 0.48524738495328046 0.7803686331080044 0.511947519952286
P 3.5904542999346774 0.1351145509894683 10.466252978039908 -0.3693716221288671 -0.2089964913404981 0.0442366012208722
P 1.6222465853869181 3.7954056606249806 8.684988679804908 0.006007125426028364 0.9215818462559419 -0.10155883198110896
P 7.353142161278362 0.9098122777168524 1.7271624760920217 0.35221850738834826 1.3728644442280034 -0.2798756348495632
P 0.692855307565977 0.1626784982013244 12.170201038593627 -1.0936367273750844 -0.04504932693015467 0.01157279243926394
P 3.7007852589125587 8.474821451687538 6.605188087714225 1.3066263990353755 0.5409040550856361 -4.852701392162578
P 4.909455182792797 3.587438098450101 2.5448922836259973 0.23179446307162016 0.371608738989502 0.5355808431005099
P 8.081005138224674 0.38265824722319136 7.046557025704023 0.3172535612773891 0.23982607512684498 -0.5693697666254969
P 1.4986574946497295 7.81022353578688 1.8528591493618911 -0.132136704767966 1.2102606812194316 -0.012729274641210335
