# total energy = -381167.3705133167 ev
CRYSTAL
PRIMVEC
9.24316393455521 0.00000000000000 0.00000000000000
0.00000000000000 9.24316393455521 0.00000000000000
0.00000000000000 0.00000000000000 13.52830473154572
PRIMCOORD
 96 1
Ni 4.87638814309395 4.644856135602276 9.617082021507413 -0.1445448486243317 -0.5717796616185701 0.4983458700084514
Ni 5.701016992483937 8.492960803530199 7.056038909872197 1.3200128476446105 1.0136682199702414 0.8655202273756836
Ni 1.9287617258685086 6.334238407998814 6.218596262646541 -0.4124365716391413 1.0799941968909852 0.4079582241528135
Ni 0.5282135299980933 1.1143095997109205 8.393473859690717 -1.1672702937008348 -0.4928876751073576 0.2563443844968424
Ni 2.625696268759334 2.672235597982879 5.349118658673523 1.3414692177461736 -0.8449310903704221 0.059708985824858465
Ni 6.073932431912721 6.605599207868693 8.971930454606472 1.328007692924629 -0.06718421115598107 -2.4811831990952946
Ni 6.445923554971623 2.836597534875248 8.769101243348734 1.5532862092546023 0.8310268215845042 -0.053546565767888424
Ni 3.016672850055607 5.293827902059938 1.0255105260563826 0.09167731120133887 1.342553709059604 -2.113698509576495
Ni 1.7119633213127485 7.9146807530410905 3.828320600346974 0.6978434207195787 0.8851184612225853 0.19000786605313727
Ni 3.370066727752489 1.2624405411481667 -0.018340285411193303 -0.2862018341779071 0.7046882115555541 0.29997523381291563
Ni 8.980814983553776 5.92826017201936 0.6983820223260597 1.500173645700339 1.6575935505151258 -1.0070106054444077
Ni 2.904257493150591 8.0083971897834 1.5648463549332627 -0.10844990267398742 -0.7964521689334283 -0.44609282624100594
Ni 5.353067338205658 4.10704265578659 1.0712161219142944 -1.742469008303283 2.136507537051211 -0.9100669036378068
Ni 7.108177747664486 4.972840556291109 7.492083308731163 -0.5699603490216442 -0.13195184245066952 0.21531189203556464
Ni 1.3206170134685227 0.8436300210056448 1.059597465144881 -0.07507569808891587 -1.0423722727731533 -0.5781943068956623
Ni 0.5931125552765992 8.223670472328855 9.770669202476071 3.486023793471577 1.1532575243615104 1.6776507262763174
Ni 1.7399516209927675 6.364602200749428 12.691457169585627 0.134772085508284 0.0034247094108328115 0.8576611363425809
Ni 5.037265407271866 1.802971511091304 7.12814482988667 -0.4214110072236097 0.027496662758372 -0.6572773263717583
Ni 3.9153856564916136 4.977166356902155 3.1217103136962274 0.11253024339094812 0.018832045104838536 1.247047768140794
Ni 2.9510186583029077 0.8557912514841787 7.620101125959784 -0.9190367112365849 0.048126423193581624 -0.6597093328520186
Ni 3.7513842029834983 0.8457069598887691 2.473392963228441 -0.3303872704458697 0.16274594501339068 -0.43750868411642074
Ni 0.13105696945279083 4.466278212941125 12.21799367112474 0.43820930972787114 0.6272028755838811 -0.7030013107714345
Ni 5.363382708893538 8.165734322264667 2.6202834720973063 -0.12331113605653601 1.1484048242548996 -1.18671888934375
Ni 0.29537546347577576 1.5882158457129827 5.410618048343603 1.9050072081812417 0.9446060750652571 -1.3174160334517118
P 8.529184762065864 5.251595887120041 3.1087911437943903 0.2182735457670499 -1.8362150291081927 0.3159651814832688
Ni 8.924921572667028 0.3174444411230719 12.385040747071614 0.11407393372898418 0.2545988625606454 0.41562679644166484
P 2.6904169009784527 7.305131079758885 8.996484918972381 -0.8440985671667979 -0.7723002542775732 -1.076284609249882
Ni 3.214485796373996 2.346349375453677 11.4215148767795 -0.09888257070052649 -0.9747897977374891 -0.09592014563809287
P 4.817176436439326 6.479208187451063 1.1479066511233817 -0.4596417685700342 0.7172480504984357 0.31806628698667155
P 3.8882199983807895 3.6224050967302013 13.039256160295615 -0.6249104800052786 0.0319896655327191 -0.3105365542685297
P 1.7843557794018858 9.102889446524056 5.8132345456857974 -0.08977829440641312 -0.3044975471633014 0.25649273714924864
Ni 6.809965557249543 8.457836781474692 12.744135808137926 -0.4596448538938277 -0.6121634647522554 -0.5778186687237984
Ni 7.143634523613149 4.710251518771408 10.238261443355471 0.8262625674266414 -0.9381682898597132 -0.522592658370958
Ni 3.558525592407675 8.042227168921071 6.794875168194854 -1.185665508378571 -0.9481374852572834 -0.362155306886086
Ni 4.3482245261798305 2.695824151742261 3.8473411826064003 0.6913608983190286 -0.05892917023604044 0.007241512053761722
Ni 4.019288059630019 7.228801033934052 4.260063230820511 -0.45639600793922686 -0.7775473616091254 0.6240504459978286
Ni 4.932558848891663 5.379475056893179 11.959941178348418 -1.1583259400233537 -0.6638570364718052 1.4301339673734337
Ni 1.3969008434748622 6.050750577356086 2.5114886624131167 0.28640417999670026 0.4847789299572941 0.7998671081522483
Ni 6.521421716063562 8.230399495501594 4.831715008621196 1.7602278749486007 -0.9606009078316168 -1.760961667790832
Ni 2.81212163740078 3.1863218765836994 1.6090832120794327 2.2173013685708263 -2.3245662497977775 1.2268998324380096
Ni 7.270663322325995 0.5592104794620772 8.420746738500448 0.44187313173270354 1.1446512707497383 -0.4474480547173197
Ni 1.0025782369196168 5.984717415891736 10.586588218712661 -0.06209856910295756 0.46844651134585774 -0.6700173996462461
Ni 8.49505900168983 7.336456161534176 2.917487233352708 -0.40659579658764816 0.09696684173505235 0.07042277269793679
Ni 4.73970023831584 0.19799688527599565 4.710853248728201 -1.8990160235948135 1.9223233308621859 0.1596423663874025
Ni 1.405644876333943 2.9571561189989226 7.177198299636294 -0.9412919230903595 0.770656548026563 0.46167448272934686
Ni 8.514894830987492 2.4523777062428103 3.1929908191923966 -0.17120975951002773 1.5518456201533337 -0.4876040581109151
Ni 6.18107918550941 6.084423422710878 3.3038829027198475 -0.3506707032852542 0.3515960433130009 0.06309384313669134
Ni 2.683364367076255 4.621433958789472 10.832492421439627 1.0085254994270374 -0.7700219997663578 0.8255195186130299
Ni 6.9548891208832995 6.789436490674469 1.1881855855737178 -1.0805732093229068 0.3411085135181158 -1.1991877112347218
Ni 7.6002560534984225 4.251134334687453 1.276161093342691 0.05838512480711235 -1.1427782220967417 2.0538686819030563
Ni 2.2803069708256274 2.3063079903104002 9.294621315444992 -1.1913623016530321 1.0851181483811119 1.2334615448159274
Ni 4.898497790661521 0.2024511658624557 11.845301916257464 0.17942571966191678 1.167204730570222 -0.35415300540689976
Ni 7.852215452764484 3.819977720792421 5.329272661895792 1.5831004644025573 -0.7022978569465066 1.2757963010283964
Ni 4.377238817030419 7.094867591938189 10.33205274972374 -0.6686238617328291 -3.050858412776352 0.9417837751251135
Ni 0.03992029969882206 5.033549655464941 6.8316583381342975 0.8558690774391647 0.10321050865191901 0.38663375164342445
Ni 7.788123355676885 8.516540114125881 10.329144850424091 -1.435720974542908 0.8981734946343306 1.21440427107416
P 1.4645700449139036 1.9372839227988181 2.8260492364621577 0.09762273015149639 0.9119931741262423 1.6067576988101813
Ni 7.2309824205669715 4.543643493100226 12.609949103456717 -1.1058839201735535 0.94642358788997 0.2460070071265763
P 7.6455475556226276 7.2993725887745216 7.016752691203114 -0.5721509289150598 -0.3171391471867119 0.7212790260346997
Ni 1.8677938181111098 4.988664852543485 8.500564229988845 0.39193845168578956 0.34215392406349465 0.1413659366757178
P 1.146300189272527 0.8464390184537154 10.824523890014877 0.5834380717931049 0.5835213755355305 -0.2363604851757478
P 6.410281915748984 1.1981543376228923 10.643799704742861 1.367816854501767 0.5390078665041879 -0.603570837987238
P 5.241714945126006 0.5618420081671305 0.4278484856072254 1.165483119893425 -0.8729142058469096 1.9942594548808559
Ni 8.530219996400131 6.506262927597502 9.294472500509443 -1.9664072085552782 -1.3893701551925104 -1.9122248089756033
Ni 3.134855941108685 8.817968925508012 10.54947968941102 -2.058477127209345 2.414350714851777 -1.3756394358699793
Ni 5.622477830535085 3.1555698709577347 11.558420920220902 -0.7443821877110663 -0.6327415460139232 -0.7226247414293168
Ni 8.561452646538434 6.966350643869833 12.06628654965242 1.5032132038576111 -0.06328821853568455 0.8291573724759334
Ni 5.54476131015543 8.76437706238227 9.529757232462837 -0.5285527326091349 0.6581494445640664 -0.30696297798465844
Ni 0.40768267536551567 8.034786422143524 7.5877278694210455 0.6811631318504204 -0.14244965665819984 -0.8879641582014965
Ni 0.7737664925045041 4.054615431286899 1.5514530107336764 -1.123180245360156 -0.35815801280123477 1.0364147696381376
Ni 5.386546077122773 4.1038075484920045 5.82298793202079 -1.171903678707788 -0.34631474030940357 -0.03878534829831385
Ni 1.1800839525917044 3.9788861911024886 4.185725086772773 -1.0877203618906492 0.6417216380253463 -0.7241404067428948
Ni 6.113123445995706 2.3193593374531307 2.0006874041908556 0.3804849584332093 -3.105476614341865 0.6073351901256766
Ni 7.970250653198381 0.22237942679710584 6.139644855596723 -0.9690626654457246 -0.5411894475365389 1.0033192726357494
Ni 6.474022772616028 3.873625042900357 3.5630852450603014 -0.3915594710798159 0.28546032802619226 0.044959852540141926
Ni 8.011142409401948 2.6110273679693106 11.352912115806879 0.6563825824716307 -0.6279194420349316 -0.8614126329652132
Ni 8.88870685729506 2.3717588324617256 0.42366595403351054 -1.1877257333417093 -0.4625383733915389 -0.0358612326729834
Ni 6.45586919911155 1.939687145360511 5.33201880583071 -0.16679440405115145 0.5442007235590369 0.531804149666897
Ni 6.7370739683206695 2.0011264544665495 13.274513162757913 -0.4931702393447829 0.21483135285472033 -0.6568116995892496
Ni 4.037339958333809 5.816907778939708 7.787162990968577 -0.29538144379464615 -0.07062074764135579 -0.4907153500463871
Ni 9.125146984710808 3.826466421708991 9.20851385105955 -0.13601084301139157 -0.29533233572426554 -0.353981512826042
Ni 7.7184853603699946 6.137737990925657 5.170653502609498 -0.30094788213883006 -1.7077966537320783 -0.8287066580917599
Ni 7.331769877538876 0.20853224325990763 1.1665445664056768 0.8085913753991235 -0.31248982134015857 1.9081706935108877
Ni 5.58586565912407 6.393302224034256 6.018905105464551 -0.8932364623440294 0.09066969587243096 0.21077003830115315
Ni 4.555141988741554 1.6796677073490809 9.442539664117165 -0.3490156841803344 -0.5626890121712116 1.3638797242308898
Ni 9.223734568722392 7.704888666569034 5.330273696524374 1.2144832039412117 0.8017483843353611 -0.7680026553434838
Ni -0.12169734189136842 0.24086482987837057 2.9634830645507626 0.6239018362351062 0.22773726228311103 0.5855047245141465
Ni 6.599055047969929 6.620942859608729 11.154438283284025 -0.5672033551017974 1.200913435676577 0.5807996057289934
P 6.98872834318467 0.9440874970335009 3.6396685535704827 0.07956278732599201 -1.8697591836122252 -1.5927798964738507
Ni 2.036259719685754 8.789971382664294 12.578387396690733 -1.5613067655662338 0.03390076651250291 0.49420228015372314
P 0.38018056609605466 8.076870546464237 0.6848879276421563 -0.021010797923712198 0.14448262792782857 -0.18348857687738077
Ni 1.570293351300976 3.084166431384371 13.099821990432115 1.9982829742179522 -0.5023056259871479 -1.0005777053348703
P 3.832030806255679 3.3666560003476254 8.26277737362218 -0.13471397857683895 0.6329973707784712 -1.3700210612419372
P 8.212440028434791 2.215817417698979 7.034366463947579 -0.5355983266020066 1.1044078498486594 1.1551652829071848
P 2.932430656104586 4.915976613215985 5.215864589209524 1.7867565173667486 -1.4440397788212485 -1.3201663425033392
Ni 3.925969078926759 7.511558654644571 12.669527763710184 0.7572397604000249 -1.0840164306765008 0.9695725152026076
