# total energy = -340897.0278264358 ev
CRYSTAL
PRIMVEC
9.00056648273418 0.00000000000000 0.00000000000000

0.00000000000000 9.00056648273418 0.00000000000000

0.00000000000000 0.00000000000000 13.17323883868940

PRIMCOORD
 96 1
Ni 6.340278159532265 2.001158985274534 11.313125430874075 0.5445635062150943 -0.04485495153116146 0.7836172219522891
Ni 4.55852598726698 0.35136052030725046 6.099064773665043 0.294971352840421 -0.2707446190825724 0.5186665838436745
Ni 2.9388020156741517 1.6863461658699932 4.864284236630609 -1.178681877971886 0.08263576982436091 0.04950273471581797
Ni 3.5937012456113444 4.464938095333182 5.3018728855292565 0.16289866854117108 -0.3823978591852059 -1.6722928043985135
Ni 4.979095464704037 4.446621942218615 2.4671237206224688 0.24189247073757053 0.48067673486346246 0.31541522251706966
Ni 7.089935355066594 5.86067396549646 2.6356881327896677 0.9440550876577934 0.6222031083764445 -0.25905921232484413
Ni 5.065563908424752 4.512137066798929 11.273592242016523 0.3856618746484584 0.8088487428255683 0.34545522052258565
Ni 5.614517468429965 7.835560296745724 12.317242146201282 -0.24990942750477607 -0.16863582813526443 0.6835324034135454
Ni 1.8173044104974934 6.325805248373432 0.47637209055499863 0.8512197515926114 1.2242881058467754 -0.14283815034587014
Ni 2.5400679129083183 1.5782943633440045 0.25437221429645906 0.7560591098283624 -0.5319391325828645 0.4162428327591089
Ni 0.7103076182362549 -0.03224903027493694 4.684851640244323 0.037978793236618465 -0.09640762679747268 0.17403925853902286
Ni 8.440191361992568 2.0016180141732285 1.5287939469881375 0.44092799421061485 1.9654926671608084 -0.10247105938273321
Ni 6.591024945585703 0.6219373547842835 4.7328282606678584 0.43666047718351253 0.6995958846343113 -0.9260254838495922
Ni 0.863571967170307 7.276229083403362 2.639956201490861 -0.2278899858108914 -0.414079506559203 -0.2675353681166554
Ni 7.376414390685061 3.6316296334367935 3.749459651561636 0.8790380593564603 -0.05691342535759231 -0.28794427079031054
Ni 7.704719059484558 3.8451230741628626 12.548603511823194 0.20019406255751976 -0.08174025459328503 -0.5011329458352852
Ni 8.01353750150615 8.921397656890482 6.596605296903163 -0.18821529292908876 0.16697438127244146 0.6720961365521457
Ni 6.722478221378461 0.704428448106311 0.3083963154461253 -0.30747282774154144 -0.09246612565122139 0.35588284361381295
Ni 1.9143665211547414 6.462244838085341 9.264501957417885 0.26906157495319466 -0.44380531575840987 -0.5660597284156573
Ni 0.13434605791119697 4.846283103348478 1.4460004346269704 -0.41201748182385173 -1.0915147959360751 0.07231921838970126
Ni 6.261361191223405 1.9753453601479587 6.904489480107412 -0.11528749442111114 -0.1015338922804445 0.744695348076111
Ni 3.25215674328284 4.286123837875139 0.5108406605636223 0.350354457596416 -0.12117274955729454 -0.29403984216508716
Ni 5.831458126179562 5.506879691969465 4.669979103926627 0.3272551525747912 0.45187857968484757 0.7854823001854859
Ni 5.428727771825095 2.9138344438118366 9.317353284734219 -0.1567971836291235 -0.7069178722170213 -1.352177605302613
P 0.29489816565451965 5.58313249255257 12.426316413097695 -0.06731199498309698 -1.3000315194266772 -1.1251797922886881
P 4.1068505515184 6.095336738962314 12.495818788700001 -0.29407712316092577 0.06139177284392008 1.2216408980319153
P 2.2205747988504236 8.461036674333275 1.3043486167732206 0.8249060533987471 -0.44962886441872246 -0.11333679845264351
P 6.307264081092838 7.716086775152223 5.705646405557423 -1.1639566559465697 -0.4876271980393666 0.5972567228437521
P 4.656254139855667 1.0700413656896883 12.66709687170948 0.22987153501729446 0.894125549817202 -0.8154418226620538
P 4.025080403584322 6.019335954245158 8.294714303316365 -0.18744087665690945 0.8067016145755784 -0.230932372181641
P 4.516556345019692 0.9407122236242211 3.5850048981227474 1.4588058813868294 -0.3802558731415387 1.0694141073822938
P 0.09420983108869452 5.417549068056893 3.682249720282809 0.3825906919223024 0.5597831513783262 -0.1421210696741875
Ni 1.5396999335871164 1.1113629671388192 2.648874862975492 -0.41849280513555026 0.1910082822931936 -0.4991035741100823
Ni 1.8227407527486967 6.546508142978994 4.865008782245215 0.2759626729484021 -0.0846736261899961 -0.1290513809744229
Ni 6.24181196047901 5.825832772028896 9.134047744522285 -0.7666880502971183 -0.8164532946457037 1.1234851781950845
Ni 8.667167651546952 2.1978033652485287 10.07584183625676 -0.5342976055127121 0.9687893571796798 -0.0017398655092421647
Ni 2.3259894353505803 5.29434931187399 7.019847942632618 -0.5206892707006581 1.127059525809904 0.6120241109609137
Ni 0.6466349096473667 9.03449877730211 8.975639571752863 -0.2852957774238699 0.6061784508134141 0.4246721944733847
Ni 1.2406021035378756 0.9780645751846422 11.330052796555927 0.8450251927461253 0.21140252967882947 0.05924464459393022
Ni 4.004073081044075 6.762881765030204 1.5644667928133358 0.2568156677063061 0.2841290108092784 -0.3940997210031664
Ni 5.85011630082649 7.827378781668997 7.908619696284579 -1.2475406486168126 0.7935954162109236 -0.3857680612090195
Ni 5.264737447624885 2.7445517864266806 4.674971718242426 -0.3939850498021731 0.5497599628143693 0.4079271138045619
Ni 0.862668310279544 7.550791368789059 7.109715900373662 0.19770086382202082 -0.8577662944618775 -0.8745615116423454
Ni 5.328290448677448 4.545529169037281 7.325454082420013 -1.0034087470257622 -0.6629962311334066 -0.30180097416774476
Ni 8.210856923978223 7.253358643568416 9.100021102335736 -0.32787607398824176 -0.146089053183 0.4200745478003733
Ni 4.4939739233172595 0.3756314483115471 10.531767339573252 0.15424073575585695 -0.02352996480114012 -0.6201153726094804
Ni 8.068962990881829 7.222333690356664 4.664235842352963 0.5788352829137708 -0.8388146930600392 -0.2784072778341528
Ni 7.2980194552413815 6.103428248372633 6.973728139107136 0.01516128112147066 0.1592744415250225 -0.8727200875582325
Ni 2.2977186555309945 5.088830373191906 2.7359760465310736 0.2955727338698458 0.3292493001866845 -0.23272803062948305
Ni 2.51287720108566 5.174497766481565 11.369374472097412 -1.3702732864620595 -0.04383113825233742 0.4401088407434291
Ni 1.0910306870966526 3.318859942659775 3.7144717488578225 -1.0635077692001875 -0.1819528569591447 1.0708081595163428
Ni 3.6164276763800345 2.6167977435234 2.598790309844621 -0.4063484564635324 0.24821661318338545 -0.4389870684341601
Ni 1.2319165567292476 3.5835036036070176 8.144276132307606 -0.8780026761134104 -0.9629077015879225 0.610950675391077
Ni 3.565457467491682 2.7660001367323392 7.080695373352876 0.4571776233002578 -0.4202792076120117 0.6207386080157761
Ni 4.085249191579844 6.80619249170701 6.094163965128984 0.5076949153235192 0.5025156851154249 0.07944554502183737
Ni 0.8060097432740381 7.377782476814502 11.225667824879508 -0.2812527177027479 -0.24567533481877044 0.6852936090790263
P 0.17197472686749862 5.595166250151675 8.031460329858502 0.5523002127377198 0.155246551312552 -0.10023522807367899
P 8.40270400193253 1.6294625846984605 7.9483896000447904 0.2421840338360603 0.2794987111261186 -0.7348261685915151
P 1.7645250877142864 3.2136433186257216 10.28225363114964 0.013699094753647374 -0.565928859264748 0.9476872850937421
P 3.9457404086433314 6.125794656475679 3.6991509843214017 -0.4374716602308982 -0.25642460291547453 0.626922882449617
P 6.91687245969219 4.039589317009719 10.3307837864216 1.389525192713136 0.08059302836271927 0.0898004058936002
P 6.229922211946163 7.804139318601765 10.192767297434175 1.0100097972820476 -0.38745393355187463 0.10415127529863354
P 2.544019161663746 8.588673709870221 5.796449522172474 -0.6894389987059676 -0.706281524184603 0.36056225136735326
P 6.9625143331290325 3.9326445841805815 1.4384390585918114 0.2565151057467518 -0.21653110915464646 1.5955590018808843
Ni 5.425604575200645 3.1742298373044964 0.20873754131292985 -1.0330887905886983 -1.1836024552019553 -0.24246222719811145
Ni 1.3183399976167565 1.2528968775695708 6.833261695880014 0.4006277519296713 0.15754151799431576 0.42101171490266204
Ni 6.878800062800484 0.7003646922678701 9.169338066265237 -0.6791437874275466 -0.2011299441082278 -0.015779117211127663
Ni 2.604016938893087 1.5285752332187599 9.167520851860406 0.585065837204515 0.8952768898128258 0.26889573879929174
Ni 6.161157882808425 1.920648916670205 2.4322807270415767 0.09636160405088566 0.19404012714098196 0.02781342266784242
Ni 4.176370928253989 6.869466475193699 10.441636565286286 -0.07305198279066774 0.09463896493282412 -0.8942065395667825
Ni 8.13731329395408 7.065246800770151 0.3367544007621297 0.24936486785521572 0.30791274349243747 0.5394202714512581
Ni 7.717463861848307 3.775458688361017 7.953276907730889 0.07955790222998556 0.050484896123429185 0.9724799186573897
Ni 3.0756286297516264 8.394864508388162 12.332166885805496 -0.007746990935270529 -0.7282138054813201 0.6597620404668251
Ni 0.09818808154404537 4.680591672053107 10.180239408726477 -0.19989504325986218 0.7356589489054556 0.41654827981466974
Ni 8.433134917745972 2.3727743807508377 5.664440011361298 0.2102645594196443 -0.5829392777798154 0.0036877332642323585
Ni 3.664328692043784 2.6546541268157204 11.380440668782603 -0.5565638731100802 -0.5460534604970595 0.4115947924641363
Ni 1.077277821269105 3.2650365541462043 12.46416289576671 -0.01271564779445552 0.7516645803050925 0.06646610204303392
Ni 2.994677533381885 8.501638230451121 8.065935200263775 1.305103791743262 -0.8813862478736627 -0.9205068680242082
Ni 5.568488570627557 7.724880328760544 3.451678604411983 -0.5995529750770964 0.30574093265209923 0.15692548167687168
Ni 2.9572261755884126 8.3566481024302 3.4292842945523487 0.9156264000034553 -0.7251081699728028 0.6931539856637096
Ni 3.5001583565107532 4.16514722165258 9.398697705866175 -0.30617236376256307 0.7088904225623598 -1.4136053735907914
Ni 7.3638495996541335 6.11269883201293 11.43916666594556 -0.3434068226339892 -0.0843111006442548 -0.8197875012252592
Ni 0.39071729805863664 9.080131650172309 0.32844957792241875 0.5854648724151466 -1.303866062681419 0.7150261031464524
Ni 4.466972223394063 0.2974399256739565 1.5093635237234058 -0.31656244874763545 -0.9883176570205946 -0.4655943866090434
Ni 5.987284936436326 5.620889869611839 0.43660758713477216 -0.24925919551528683 0.7400131121090933 -0.8479809329403395
Ni 7.905575704646571 8.847178984368258 11.280955605585579 -0.1110649716993313 -0.11557494375454289 0.11553329188333006
Ni -0.024423037580530674 4.761254750290334 5.818554013786267 0.40592756687603 0.39224338452071805 -0.24745993752301895
Ni 7.956140888036075 8.641615042852967 2.6134648336962134 -0.19219330374023028 0.39939156552972505 -0.1971136238599831
P 8.520584423230563 1.4597929029477388 3.6018926613113784 -0.6482607246954448 0.7256768979920792 1.2986629212139247
P 1.7170290975493847 3.0775727521460965 1.609045699329868 -0.2414204161971584 0.8010716699833107 -0.5188280491222033
P 4.7591396171296845 0.9916104279794454 8.390457830960697 -0.19276203175950674 0.44697805705943666 -1.564812464726647
P 8.440686393157826 1.6510909463369403 12.525010326486967 -0.5974667819720291 1.0011158372265274 -2.094440946898464
P 6.42903274717981 7.789909422742241 1.390935867973597 -1.6070004109486065 -0.8591526332864431 -0.07199294539853407
P 1.692115529086916 3.374987476233458 5.998908268196597 0.9579151334693373 -0.9263617841430885 -0.9804392827137822
P 6.804518386311772 3.958377204207387 5.91855210928183 0.1192117691761818 -0.2708729171303206 -0.643636338549556
P 2.3986510098439005 8.450929037995358 10.166157122159865 0.1630771031005643 0.01769356062502114 0.7496817455471089
