# total energy = -340868.31226448226 ev
CRYSTAL
PRIMVEC
9.19373342681638 0.00000000000000 0.00000000000000

0.00000000000000 9.19373342681638 0.00000000000000

0.00000000000000 0.00000000000000 13.45595818696218

PRIMCOORD
 96 1
Ni 5.528026319504917 0.4655632970863479 2.9235225929936774 -0.3009962188782623 0.2747043750612688 0.3779557642534523
Ni 0.8307595275926164 3.5716458513401483 11.95431347553975 -0.17349804132357216 -1.248973010187965 -0.16845816490681956
Ni 7.466396264221604 4.098281279698025 11.730917709277408 1.045140836657226 0.3778369792874009 2.618345124991994
Ni 7.239963807864876 1.2354446811791329 10.021243718045023 -0.850813003072496 -0.56638497296556 -0.8893078167135845
Ni 5.307542208564682 7.396229692013454 7.102108374561007 1.0087646120210367 -1.7548524695693004 -0.7501674269342758
Ni 1.9160015917053619 5.294404363742165 1.6702209237118335 -0.8812324959046177 -1.509767460036361 0.48336816565269647
Ni 8.917801739579128 1.8781601856245507 4.188274137672276 0.23420332962342894 1.107266659453693 1.2713302948372427
Ni 2.745313106310192 4.051623083424915 7.51127731185637 0.5761551649784465 -0.47902917195771044 0.46696015660831836
Ni 1.9122045798707226 5.758862574091167 12.29532742946333 0.6451401767885921 -0.22097628941019365 0.9341344861099717
Ni 2.5686187468672603 4.566371014683062 10.192336335815206 -0.6565376199922563 -1.4522531678699762 0.210753840351237
Ni 0.5466373144291623 4.749721637003183 4.397958370156941 -0.3741857556880588 -0.10925517218410216 0.022565029784709523
Ni 6.665622097642731 0.6669584596675974 12.299270621656735 -1.4711250650738146 -0.22796506202320094 -0.4384237397315223
Ni 7.285500368680778 8.6740482897685 8.138675137324324 0.40393419059508495 0.2930196284306889 -0.3745367112695743
Ni 6.502617207017662 5.289357004184739 2.7080380341979375 -0.4576293661256957 -3.263570662405541 -2.022454686368149
Ni 2.312444563428067 0.5446018218863315 8.699868889617372 2.6597414285505936 -1.475906288512542 -0.30032876049759244
Ni 4.13593881111372 5.599130652505159 0.8902218361710571 0.4042928594860844 -3.184291210647922 -1.9485940916332571
Ni 1.9037279578088888 8.73191364688041 13.210669303009166 0.246970142370794 -1.4817547768735193 0.9638415262561013
Ni 7.789261788698262 7.617449301614151 10.359150190128148 0.834817398975188 0.29538787155254936 0.48285574479265225
Ni 3.0141746416423687 6.723579392087199 8.423294731456917 -0.016926343441693432 0.36241190298158227 -1.037253720599665
Ni 4.670352137805991 6.477472346563091 2.7287873707829187 -2.162810693722114 1.6813189191565239 1.6008176791766626
Ni 5.442349919294258 3.9813645738842065 4.416743005945161 0.8504738745655223 0.2831928721482542 -1.0187965423357421
Ni 3.0079045155619233 1.8055572741036165 1.5522662454134375 1.22446911150933 0.3833162572344173 0.6411264276435088
Ni 7.139448722179378 2.6076829194710904 0.32517499027051094 0.09862108950902371 0.42821568885026895 -1.0014256551574625
Ni 7.084635684508388 6.705274669174931 13.394289301713682 0.8467208352809934 -0.9539767176468796 -1.2063952847267545
P 5.17863687458532 1.030691047839545 0.5240170531266289 -0.1012839810531675 1.5955782851545939 0.20693858037020488
P 3.810986309187999 4.7066765778995965 12.130936123863288 0.07958181348938552 0.4663842295001903 -0.07315019893142886
P 5.956288802025894 7.8666086665791815 11.386458863502888 -0.8741437073786364 1.8304061357358994 2.7003828562210397
P 0.4249168829891968 8.398530491559134 7.551860289194057 -1.297379940736443 0.188741597746204 0.6277937150903447
P 6.645469434346049 1.851001897586962 4.353352215146524 -0.8559978897075452 -0.24754298415512851 0.8105341009477912
P 8.669285935942003 0.3418027762369236 1.022217183897688 -2.8111809474122293 -0.03107563835888196 -2.9517171890978005
P 1.106594509599306 3.104355971148364 1.0041321912102332 1.0420611692906376 -0.8437118732513404 0.05296421090185717
P 4.331590648530081 -0.20389309990684631 7.9058732625679875 -1.947714517241781 1.7887951450633324 1.3471343864517509
Ni 8.90261369224057 9.253584459280162 12.294170857819749 0.7024366965172161 -0.25541853024846334 -0.29900952746553666
Ni 8.486597262416298 3.4652100014379252 9.073230994001428 -0.555393764061379 -0.5131376836056453 -0.4709499944940018
Ni 7.952450553988446 6.830199116654538 6.496657829121263 0.9429741958887888 1.2004146416632873 -0.3425907544905971
Ni 5.349143851547109 7.888011677598649 9.46475899592559 -0.07781649405884664 -0.5542275116674197 -1.2090350363424467
Ni 8.40734728175143 6.205567685523249 2.8729818831666503 1.60305196782382 0.25621171557372 0.2102887277893604
Ni 3.1378579351324443 1.777534775139984 6.514796145461601 0.35052826417011895 -1.0393795086934166 -0.18428947551212133
Ni 3.9834883262662926 0.19575480722882543 12.10497945676223 0.4413239440974528 0.5546396595041738 1.008818605187424
Ni 1.9710444727077465 7.967565051460956 10.858379099650527 0.697297832628754 0.07612033730334633 0.1290691215862358
Ni 3.916787791495573 6.257585828284481 10.490116759103454 -0.5584623756843737 2.0492602365967674 1.6554320240874327
Ni 1.3659773059447682 0.3155178928586343 4.752254510515152 -0.5215397916264115 0.3806281688792929 0.8244550819042576
Ni 7.009421752742811 4.214821042448355 7.220964958091796 -1.89261474805416 -0.9669669592589606 -0.858736885905263
Ni 1.3159450095667864 7.06726872238821 3.141630123887293 1.0846000710941128 0.9694161921304013 0.8577205288256067
Ni 9.177874065918774 4.72006265352002 0.424035203969967 -1.587474167990221 1.6758183010532686 -1.2601076866485459
Ni 6.4516103749145675 6.102101411462645 4.966970473210708 -0.2978080509582678 -1.8131987707186774 0.2436014830088772
Ni 0.028527234919375283 7.435974200878212 0.9518180102381655 0.5486569595581777 -0.5176939355177601 -0.7360847235889646
Ni 6.637902991876539 8.575473081799972 0.9627135035195963 0.8973983070312029 1.2634359796908305 1.090251098732303
Ni 5.600803911957712 0.7508475981333332 6.385255524514265 0.4348149393343415 1.1082331371320204 0.2534230970849894
Ni 0.13629157927705918 0.4266020942949822 9.41899534989827 -1.0771639265310418 -1.5852396222327472 0.7124290318432376
Ni 7.852045793102017 5.9043993715302445 8.553374105173042 -0.889784499239687 0.8773722416182631 1.3870080827182372
Ni 0.7250775638173679 6.935540912299322 9.16010257953534 -0.19713753511938306 1.3978244566074507 -0.703440198081066
Ni 9.061021716237745 4.761057510107565 6.870208405037063 2.8972319135657263 -0.6941461743736497 -0.8482560409785971
Ni 2.2442546438699096 1.7292768692803684 12.900643746397538 -0.7479228538744731 1.320559721287016 -0.9810105818362201
Ni 9.101933829225988 5.2838315704980126 10.553548002328418 0.5713060644162613 -0.1685262991405936 0.5127815858178072
Ni 1.2618858580227703 2.3722038295906693 9.564386886351905 1.4261603274376664 3.002574380958984 -0.037276367852955156
P 0.2632046312598921 6.932966666987703 11.897892453922323 -1.8148427340800035 1.8779453189674433 0.5670079512615396
P 7.522183837617708 1.8661163950594724 7.579001109138459 0.6939517989746564 -0.8366997035995654 -0.09771477564467042
P 7.662903118830753 4.28672523024185 4.860857323345763 -0.005193628385797507 -0.04468757271536175 0.17598198408769047
P 3.786668884726448 -0.02806387076328372 5.127218163232366 0.28599280349089456 0.3214832830880205 -0.06950077510429965
P 6.714155815500019 4.537898022789896 9.822674709066602 -0.35134356098256264 0.6294019401177289 -1.8951814803400717
P 8.29015476393994 2.2039768984763155 11.546166881382431 0.9350395144227445 -0.8911014182788976 0.702752427985422
P 2.599509690606698 7.243439039035562 1.3576928329079803 -0.7143362761682794 0.5543990042482775 -0.42868491517720364
P 3.7563019837825897 2.9384182796147003 9.469227150287903 -0.16424849770084618 -0.4755373567543681 -0.5740458319449275
Ni 5.790001748628511 8.142917125848545 4.891550601820201 0.2848404350540062 2.1504830253946965 -1.1045603162661235
Ni 2.3384904097417056 8.317607251441714 6.61652296519021 0.9047424061010999 0.10017275026685973 -0.2561782912326233
Ni 5.893798997086324 5.780054129245752 11.47864534623197 0.0025893579937310246 -0.8610915021803686 0.4689751301558181
Ni 1.8564262002078749 5.9819668990093025 6.017181655498935 -0.713719468519887 1.1270718671050781 0.4683027866791419
Ni 4.9982466343735625 3.3206661271904734 6.473553977449475 -0.9040718623966365 -0.33730148106719976 0.7321740756806486
Ni 8.060660794409035 0.010354901765990647 5.821464542576458 0.08503255219131162 0.7103348683183702 -0.061391001512971693
Ni 5.365940802205428 3.1260072129657375 2.098066010742998 0.16480051354957426 -0.4876505950781343 -0.6216336090262198
Ni 7.551355553238313 1.6047569460640163 2.418613795065872 -0.7997187554998421 -1.1980685100286141 -1.1633822715003383
Ni 1.640998642558321 3.103114817158833 3.1707751776814566 0.3553218289040203 -0.5267079660909122 -0.3195073903085723
Ni 3.8433758314481294 6.752953369839432 4.783149131747892 -0.898968222621484 0.3296074548570517 1.7621456607966037
Ni 2.939025066009582 0.0799606562455389 3.2123005126778614 2.094489540748212 -1.1964605421115457 -0.9395548857945947
Ni 3.9988142796036867 7.216639306594948 12.84468057269625 0.1963824021209134 -0.49732899870816283 -2.1899198912340805
Ni 4.7614896155705875 2.9891584934533775 13.0125838844 -0.46820637031059364 -0.3987449330846617 1.352679741750012
Ni 0.6993056907547514 1.454209564000537 7.15717056240323 -1.4841227628850635 -0.008715525496126924 0.20675757470765035
Ni 3.0756347484572912 4.222672490648796 5.117542678353977 -0.07784966128962723 -0.2850150129586575 -1.230606334755319
Ni 4.581053406692551 0.9507147622474713 10.126591029929763 -0.19760059079873066 0.23943346767411666 -1.6214065590716074
Ni 4.027765345626154 2.1693257178352616 4.078191133787483 -0.4230937942426713 -1.0154821332505284 0.012291672883159474
Ni 4.243358390474312 8.495781801938827 1.2746127429687535 -0.2666887038456439 0.3539468029333646 0.5756509716485183
Ni 5.544427939633238 3.070854007164283 10.917894731881852 -0.8718338282985372 -0.3888400152661239 -0.9369555004985347
Ni 8.207870851300665 3.66565177388055 2.2465659484104137 1.392699990896692 1.3666570298657108 1.3546533205366154
Ni 5.713592631539682 2.493441590034706 8.572494312225098 0.00638147804631159 0.4180508325021252 -0.021830979832162405
Ni 4.82142356266505 5.1739940392911485 8.672082669598412 1.367131141288652 -1.1092502655426253 -0.31561088346764354
Ni 0.9220578956891895 0.44270491809248963 2.2717291963314974 2.9920169171581117 1.550396032191001 1.2216933485364054
Ni 8.344646020946978 8.64278959669883 3.2597466118909906 -1.052567211028284 -0.8343497153101502 0.9537718007249252
P 1.2174525451975617 4.933145809189349 8.636598536724385 -2.208442632628616 0.2927085249481733 -0.7817200049295763
P 1.9063573655200434 0.9289531956310282 10.887821111028853 0.6638896894819534 -0.8732304515357477 1.2016469714084919
P 6.270208824044674 4.795157066753272 0.22750352628102777 0.2967801239143857 -1.6825378791652894 0.8182052443398039
P 1.4182344857706504 2.8160221087804347 5.704451302563455 -0.30370230495551565 1.0930798264303498 -1.5149580030983651
P 6.508611521100434 7.399254430254606 2.864934608447862 0.6263862932198567 1.9725182065490223 0.3276459602553067
P 0.3778743886659961 7.588718885189824 5.038745029365296 -0.2448476967111525 -0.7723056535942119 0.2554321570952181
P 4.511640720611374 5.448803920039818 6.5262873926580065 -0.6861546715277408 -0.48662189670330386 -0.7614280874497596
P 3.592773050361942 4.194098367689816 2.7465358728332117 0.14078846690569302 -0.20982515788938058 1.1547207391705983
