# total energy = -340869.28103410243 ev
CRYSTAL
PRIMVEC
9.18821793359565 0.00000000000000 0.00000000000000
0.00000000000000 9.18821793359565 0.00000000000000
0.00000000000000 0.00000000000000 13.44788570511543
PRIMCOORD
 96 1
Ni 1.2311476582523389 1.411438864818607 8.565012079042933 0.8341499405945184 1.7305753421894905 0.024004590444713494
Ni 2.816684870946679 1.4985982973681746 1.782947906370703 0.1732365601320694 1.5241175581104462 1.768917689413115
Ni 7.073328834271934 7.0493200215740615 13.054924674213213 -2.482834361545472 -2.627724252214049 1.6926148037853173
Ni 6.043936058996974 9.183678662227313 -0.08133685902999567 -0.9247677001830912 -0.3374346642109543 0.03811917546922467
Ni 7.896685017148465 4.454356030540266 0.5964797940448646 0.1711151429136924 -0.3559877446227934 1.7343582062706904
Ni 1.662690676232051 3.754985656521406 10.284485021479188 -0.7981958910974124 0.03866090690530761 -0.6601487343822825
Ni 5.336553559194514 7.763612061043109 11.363866294834047 0.21684632640222012 0.5619855583462837 -0.39183715022123483
Ni 1.09973776954014 6.499754347986168 10.127199274244314 1.1324508720288047 -2.1805777878975476 -0.08329500067491462
Ni 6.411418823578458 3.2178148885322244 10.361702802540389 0.048747087496716045 -1.1245948663194953 -0.6959827133617562
Ni 5.638478390902168 0.7850578541022201 6.676955556959519 -0.052701958379406014 -0.7677386030488197 -0.05917213948478197
Ni 0.7231706141762647 2.4818754082992305 3.7768389133605265 0.12158515450436481 0.22745418382505342 -1.2534950664280347
Ni 6.5490491356341165 0.9120500477722693 9.270905168765665 1.3982139787363854 2.369272848676532 0.0998845296024796
Ni 2.457655266595598 8.805895905669434 9.415012255436988 -0.9577084167751699 -1.7585661709754616 -0.7852791830357443
Ni 0.533737131056463 2.9703118699166113 6.89623696508852 -0.36125053568362947 -1.4670732636019443 -0.9631696970000575
Ni 6.892403640688386 4.680349431656561 12.09165215073176 -0.3409604179760257 0.3122800193221977 0.10421503865703342
Ni 1.7179761817824146 4.507739575038789 4.985521379478805 -0.4052554805096698 0.43682219957235735 -0.003366859589703879
Ni 0.7375170972020811 0.6265436421686456 5.199571016482599 0.8329592627205269 -0.6829690747109076 0.6013136665219451
Ni 5.012687263758381 3.333319972506567 6.47268218352654 1.2911043921403764 0.07956510131883716 -0.15031594678015403
Ni 5.477252735942515 5.18966152375598 8.092776282771473 0.41963077539473537 0.4077149977937559 -0.6254583820889487
Ni 1.9915277974123673 7.058581744956938 6.033796860829311 -1.202774914365348 0.7192866781950192 0.5281081888725485
Ni 1.046850388794271 5.041832290117987 7.634377942268475 0.29677421037711466 1.2621604554125165 0.28343121341130545
Ni 2.555133067556842 5.234784860594576 11.951902116866151 -0.5732523895093546 1.2431448335419624 0.5833167157238922
Ni 4.2995988808004 4.259115593870883 4.309671004979278 0.10220006510953367 0.5710661804913132 0.28372740449548556
Ni 4.740596574733465 5.772405851248204 2.3154970008860887 0.031033729377353006 -1.9584015646419823 -1.5131793139313876
P 4.887497798389642 1.0082139336107445 1.4819437340707524 0.3599516143665478 0.6689390789804027 -0.8528614009610924
P 2.489207605977341 3.520980129621513 8.067883563536464 0.22381787262404682 -0.947889116691903 0.049805867778533575
P 6.245801200586052 7.148920300810548 6.928525280703367 -0.3948273431978103 -0.7761777349551084 -0.46897795836929557
P 2.5546093391512628 1.4538976185410981 4.096710171766031 9.384526538693516e-05 -0.2258205048763724 -0.9177640151717484
P 8.8521126404074 0.8631779181358418 7.00957546734294 0.0024415195619570855 3.1806443579239545 0.7770007450770361
P 7.497208878738433 7.861475767145308 11.136946721379465 0.7424602880980052 0.91544745122343 -1.1124993686075422
P 5.605474313133029 8.941275104402866 4.2631143061885695 1.8884873561493478 1.1340192449571889 0.3922539260436793
P 8.27640648762875 1.6538240462077696 0.8059261340101453 0.17567910813529097 -0.7287851046037577 -1.5822792540528425
Ni 4.646003874111727 6.895490881816011 13.558023693543285 0.6785799445042764 -0.5733194953018642 -0.21589116157780236
Ni 7.809075361934451 4.958954566989471 7.221917933508899 -2.0320410445050037 -3.452382708378364 1.8550221345123663
Ni 6.286008840986317 5.199042693968198 5.58048236114749 -0.6336699713654634 0.6601628754496696 -0.614050140252007
Ni 3.498321984916976 8.593841030715664 4.540732626946757 0.7408155534057307 1.5530429828955445 2.5292959954421215
Ni 8.17173431225402 6.202028531740791 8.887720659056209 1.333630438428045 0.7929210158517183 1.395891501250796
Ni 4.559781639761617 8.187464540856684 2.3431866135712434 0.35415531939974493 1.2946000639984607 -0.83334158576061
Ni 0.8056008711056276 8.374536652042558 11.247192469575674 -0.30978424948353744 0.6570443844253459 1.215689565544487
Ni 3.7068853371668853 1.499654942396975 12.944463921724187 0.8118155387633761 0.7035641252534399 0.1066637573078421
Ni 2.953148279361837 8.726298376239022 0.5919472462821932 -0.14406765187759707 0.6830251247598237 0.9088024351030866
Ni 2.7002885298610875 2.170826676473327 6.201613224303386 0.08339450236725637 0.1042194095324076 0.2871698545181312
Ni 7.155545005730244 4.976090592891321 3.129268953940518 -0.24187987233208022 1.6310602801112877 -0.05528771682871124
Ni 1.8923501761874006 7.940944661528738 3.284982597136889 1.8335788770369261 -1.3382381124033855 -1.7540238030204178
Ni 7.285163192002303 0.15539848733125974 2.1446283115114273 -0.30321199558265843 -0.7889599743214412 0.2994630700631875
Ni 2.497991542042847 1.4848986648643367 10.905293378195859 -0.5742270947177981 0.022567086667238553 -1.2808271785840843
Ni 4.582081443978126 1.8250924230498469 4.621823241743954 1.0793876736552377 -1.0076639227576905 -0.15459966175717246
Ni 7.595476866416867 2.777965721804377 2.497137956623929 0.936254103556136 -0.263943537000339 -0.18808468088849542
Ni 7.4465082937912985 1.060825667827361 11.481844846997548 -0.7390252942745272 -0.4835383726819737 0.7049378656725149
Ni 5.181254304613786 3.0382863040302213 2.408207035713033 -0.22633549683957793 -0.30347810475985154 -1.1504020571905864
Ni 4.578847191368233 3.9774507820632716 11.842785600618111 0.34070716431463904 -0.15993624347873744 0.6613257854095191
Ni 8.888966581368429 6.239608341895519 12.058785896227247 1.3953551691313517 0.11612258872789678 0.7668603142089244
Ni 4.658885755245451 9.032394658756026 9.377708091811513 -0.8355172532556902 0.23143476573935626 0.4000762503015755
Ni 7.326308030602026 7.3705952396352235 4.6700742478678 0.4346601589240321 1.0044045352801283 0.7965928082763507
Ni 6.205033078909641 5.8714915902967535 10.264878283853474 0.43961158939203643 -0.3318592270057059 -0.488091796380611
Ni 3.117176340702221 8.061420571247263 11.919815942039422 -0.2374740299549007 -0.4942027943743554 -1.6257869475274904
P 1.922928564499119 3.0544851317326125 12.505524388542872 1.2454503417466873 1.461781933296018 0.2576217085473692
P 8.532004325986739 4.850744927822673 10.529397881541593 0.06176843945704845 -0.8970218975283906 -0.8756745422008662
P 1.393678040117119 7.462550921793781 13.213394782702109 -0.8104420554546172 -0.5511704700086508 -0.4076890296518269
P 4.610289272138275 1.4994068605206479 10.948030534912894 1.8099959475106633 0.4322093833906943 -0.699641393160266
P 1.076234308812563 7.1772200111471145 8.166954601436787 0.7259509775890723 0.44952884850574837 -1.0496217552467149
P 0.06197085270649534 1.1631456594858038 10.472486980290405 1.4919615422031918 2.1047533845680655 0.7758692025757541
P -0.22433217136666744 5.635060373939439 5.8704184064761975 2.129984134110396 1.0677503465266256 -2.5937072718386553
P 5.731068060078005 4.373729420733977 0.6158136416066189 -0.8453902893950279 0.5989197123684717 -0.1798664067437612
Ni 8.899119561862552 3.222353868047245 11.957025467023188 0.111938118332904 -0.6841669516737506 0.045788261978708236
Ni 1.0357877747536133 1.0850733741839191 12.689343870683569 -0.4775428172201711 0.3002788810962635 1.223975459702363
Ni 8.379663677486649 3.574630132431646 5.18137650790842 -1.192419796383269 0.6617003951401185 -1.049243803082006
Ni 0.7289187631329386 0.42221605825157954 1.8248241270947079 -0.507454774288255 0.6729960226585958 -0.5185344291411844
Ni 3.144254018092435 5.565340178473899 8.816581802786782 -1.35559871516902 1.43909991831747 -1.2836168255140794
Ni 8.358512400475359 8.149131296855336 7.120224578293622 -0.6054989082478862 -2.9090769858297705 -2.0242709136412813
Ni 5.097200489627126 6.8589217756018765 4.1811489730718785 0.1906444711958717 -0.9378330180074815 2.044612967632743
Ni 2.820902262844239 3.977496723151481 2.6192714208050245 -1.9648753452917835 -0.3427015690368485 1.7181895669306282
Ni 2.665906219445688 6.5993270625697305 1.3493072183033812 -0.35481635002251155 -1.311071836401239 0.8431038073536963
Ni 0.06916430829821542 6.332133693547863 3.9089103537429306 0.8897071090345322 -0.6726381250985448 -0.4167269714843791
Ni 4.043587572648533 7.495031271157339 7.440567192264148 1.0361108652444737 -0.13234702100655918 0.06743206550072903
Ni 0.9224602983603634 5.071831820718276 0.4878557662624226 1.0008579555794506 1.6987430281702423 -0.08392594939069417
Ni 9.10096632701635 8.797139534256855 9.12223888850051 -0.9306308438320875 -0.9933819589173797 0.017020960038028752
Ni 0.8851405147648985 2.936205206030464 1.070148033446673 -0.34258792627711965 -1.4002477213369626 0.6725653628790803
Ni 6.288103754608635 2.342848487162027 13.316217369865553 0.24251262082007266 0.6183708791145479 0.2556514721948759
Ni 8.446039361730596 8.708509986884609 -0.22732293620905455 1.2708723813642178 1.5637356867227004 0.6007302832146494
Ni 6.779939856753459 7.951116018458146 8.916284071239092 -1.3871086128518435 -0.7202590694106177 0.45225781740113724
Ni 3.5341100926315625 4.24665637074868 0.6514832213136268 0.28860170186865136 -0.2578399952057624 -2.672926816892616
Ni 8.58121641967591 3.2214258580654294 8.989991953161148 -0.08960808737713599 -0.13423678183010432 0.7847464504607259
Ni 7.512176485276831 1.2627459387222906 4.377676679032869 -0.6934913143984701 -0.6699726624512398 0.8425397073201102
Ni 9.428213886544643 7.2435773189557775 1.6423764458479229 -1.1064243660580557 -0.43284136054773836 -0.5771797495882188
Ni 3.697917636748545 5.38715307374759 6.279933591481597 0.1058273774494758 -0.10933256238925687 0.579631553562821
Ni 4.327779144307623 2.129718590744172 8.233508537102983 -0.6694209037128277 -3.9848653721695246 -1.465720863339108
Ni 4.17598978886604 3.6694525384944274 9.549638939145561 -0.16110583830680641 1.9005825967509848 2.9161153807337907
P 9.895159107097989 4.470472164283882 2.866833244013545 -0.9127817314658087 0.2507278096410134 -1.0459237375698376
P 3.013000329080146 6.258747399243267 4.192593816966433 0.4034821906593309 -0.8503322067813354 0.04959966530499845
P 6.601302529362705 2.7467900993459455 8.101099889133126 -0.8192344569352665 0.7811332791881708 -0.6593838311917999
P 3.1836530953402264 0.19010514182941304 7.07159777406823 0.438828945589741 0.48176379728005414 0.8057510777368511
P 4.0993692419515515 6.052168702003975 10.580688350061328 -0.045928129990682194 0.0810645686824991 1.5215042888573151
P 6.282011966312158 3.2951337399874863 4.376923245186247 0.5025331686169215 -0.34692614864115734 0.36025629009116017
P 9.261723382876273 8.566037484131751 3.593772865066452 -4.955958952002348 0.2713783960118294 0.37670903633054476
P 6.472382647631418 7.140706034238831 1.71105469743289 0.12812989760141805 -0.19831895702199392 -0.01741305327012485
