# total energy = -381163.7663323259 ev
CRYSTAL
PRIMVEC
9.29672337532100 0.00000000000000 0.00000000000000

0.00000000000000 9.29672337532100 0.00000000000000

0.00000000000000 0.00000000000000 13.60669438698055

PRIMCOORD
 96 1
Ni 0.7929630851911363 5.298072461158122 2.2783730831283204 0.7316390291127851 1.9271423495173843 0.3827472721048247
Ni 6.913024861063891 3.7314444290260815 12.057041320225384 2.1749933518312345 -0.09115563436991397 0.783992860124153
Ni 9.347483420887766 1.4740791515649982 2.2017810984533197 -1.16466525197782 2.2874171515513058 -0.5970003838585718
Ni 0.9376489197619977 1.185267145166634 7.0436549796599355 -1.8833623762179565 1.2872767908641702 1.1582035555128765
Ni 1.5343962924107004 2.475773198220652 13.593305324349386 -1.0749126686030197 0.33254005512281437 0.8917650200048255
Ni 5.143672480398963 3.367775206522663 10.80227280125351 -2.304693165022934 -1.2377087501280555 -0.132324652409056
Ni 5.632931138118872 6.182293112048317 7.668964675338886 0.5146199245781266 0.4647641773982641 -0.11690189009608255
Ni 9.215665181052497 7.324944077554547 7.458468266117495 -0.718716407513846 1.0296201153138074 -1.857076188827918
Ni 7.9487356183167135 6.292338425887802 11.282793468732843 0.291156349969705 -2.008716767956767 0.26232759866347083
Ni 6.043111867350258 5.157524598133256 9.903346593429015 1.7913315383319408 0.7292756710869311 -0.0391239625846552
Ni 2.1852505947329526 2.9341481410994055 7.7659936468697905 1.1345938865137364 0.9807663270358981 1.67555322031734
Ni 3.6376590842585963 5.139684186098283 8.169241809527712 -2.628496097383066 -0.6940032210378823 0.5151639700070547
Ni 8.166334724148173 1.2273998952148342 11.176320885662008 0.7603577372037162 0.6726671785642673 -0.06901432238618437
Ni 8.719675695654985 3.918857074264755 3.4261660662982 -1.114994881335886 -0.9226213432640498 0.9085049584673257
Ni 1.0315830121024687 6.600571287284112 9.187321331020073 1.0996736775977838 -0.018219608331820236 1.7261211630728788
Ni 5.20286471772396 7.169772468760525 10.17700494082946 -0.4282216023875399 1.407210525808041 0.5792813693122539
Ni 6.505140422490473 8.480740609823389 8.397344353356624 0.04904327858089618 -0.3632526537153228 0.7493868400145094
Ni 7.792708710978023 2.0639934325796703 7.455652288626409 -0.5148986321608101 1.8052034112180264 1.006873308535595
Ni 3.241283989144946 5.68639659388392 10.592349070188115 0.5259687739320426 -1.0697552927717966 -1.0801507770735075
Ni 5.888321424212012 1.1275995704647395 10.337958181850972 0.5023169388410574 -1.0327650887006925 0.5812361790457796
Ni 0.23574816908037727 3.1608022554363693 11.942813410568007 -1.2539606932105436 0.6062635543280527 -1.2320129852948587
Ni 5.7870801073486176 4.165424769935179 5.9704951615633 -0.9947605844324611 -0.02317155302045687 -0.40928028539834677
Ni 6.7705339828669 2.0668475266363333 5.150609695334083 0.6813431090717105 -0.15397385524771545 -0.3445471068860195
Ni 5.6533746326810945 8.319070591434555 6.076000885409727 0.5500697807453042 -0.6855399207618774 0.6996002555096854
P 4.644020086016677 1.54093188889876 12.268897840067263 0.4153483459692976 2.679914303954043 -0.19309473250857712
Ni -0.012482710390493906 1.602364636541855 4.679069662573764 -0.8940083075130474 -0.16741481124396973 0.29130033174673703
P 1.744669580272614 3.8235749570441007 10.118006075349346 -0.3465921623405063 0.2695518843260519 -0.7538435902342824
Ni 4.199060314876571 5.184578062970031 3.790226680853038 3.9980559027178693 1.409839993011088 1.3893547285735428
P 4.551359644769896 9.204611377034997 9.039919923569892 -0.6020217483325632 -0.9274272492931254 -0.5572662984937434
P 6.9946686851864195 2.790560249551645 9.473783125765262 0.12272261054291769 0.3658985759786021 0.11703378768825652
P 3.6833803695050764 3.1476938755670045 5.797445024168728 0.868038622922163 0.06277631189627253 0.3336605418805028
Ni 5.491035250213824 3.4579069390286863 3.5382575889385692 1.4608074851978905 -0.2893851170018952 -0.5123702093120014
Ni 7.816694257121968 0.047991545079174525 6.762581565746153 1.0461055145633402 -1.3228204922967348 -1.5513938773278957
Ni 5.851208904752079 7.237331757065969 3.154548349664652 -1.3849136620830536 -0.34793299263911687 0.750319636241424
Ni 0.9189420531143833 8.897112956780305 5.6752981655945245 -0.895467151446761 -3.7820017331996416 -1.8730795062347096
Ni 4.655408572073395 7.6546337763540455 0.7797329182463891 -1.376098634894585 -0.2986032931660535 -1.786627705098368
Ni 7.816285201296257 7.014312661543843 4.631977110638822 -0.20276310883627657 -1.691259061088371 0.5772255152244898
Ni 3.8490944625344605 1.8630540549226098 9.297059852990275 -0.48391915306016015 0.8454453110026796 -0.2544242846559941
Ni 2.459578306211834 5.075443828015083 0.532903054978577 -0.06973320283007992 0.825765573185565 -0.5418299093340153
Ni 3.8548584309876563 7.883268092756381 4.607267349748904 -1.0610621358731727 -0.701021047116612 0.934190793269204
Ni 4.910705890933418 5.442543541420485 12.262625340848922 0.519241482510538 2.859991284046713 -1.127305066161807
Ni 5.4449885796514375 1.1384488465693843 6.8530117230704795 -1.0171811182195063 0.8590647015583269 1.021993194896169
Ni 1.8763855561514535 1.3947781017169956 11.029314588952568 -0.34541305443074066 1.2078993800761066 1.610452631163265
Ni 3.028444805649029 6.603555535467137 2.6672791907334257 -0.3982751925370947 0.3298244559638642 -1.1435644654434627
Ni 5.096900665418271 5.5368587994167315 1.1494022459751188 -0.6205907695840023 -1.5750873642900938 1.2726096757702985
Ni 4.7263611643875745 1.2423490262998973 0.9370567184870484 0.31893891939961205 0.7186346464333172 -0.0786760138456645
Ni 2.887376326118714 7.372162135254197 12.368376498190775 -0.29506057012011766 -0.9385120463523774 0.7265634143620906
Ni 1.8036386962381334 0.6418178872633706 9.0373484499019 1.0509258187701194 -0.9080375319126038 -1.4830812089944265
Ni 0.48452383653730857 4.991010986899074 7.630320985549532 0.9569987923026549 -1.7079213522354006 -0.01934446596488281
Ni 1.15092504925356 5.778396967775578 11.507235892593975 -1.086944145846257 -0.33530604790372576 0.4719190432754905
Ni 9.062864236702936 9.02099179490746 9.264988946582227 -0.9919678521786721 0.3850622933912465 -1.5816267080705082
Ni 3.6780626437708377 3.3893343078822777 1.692618156123261 -0.12429792544983755 0.6961071547547625 0.1905387988559428
Ni 9.02480345146522 8.494137188115413 2.6215746395889066 -0.4165269396584311 -0.7618546334642169 -0.5795315376498471
Ni 3.9277726319205852 8.968530385260065 2.5583987563248853 1.1172224851148242 0.3973555089363028 0.7138143422265384
Ni 3.655713320929736 1.9470313565963504 3.4922397382184487 1.1126636620995483 -0.4172201090707137 -0.37104232496307066
Ni 7.674500874070947 5.538020889830682 6.88037476879353 0.06607709413473135 -0.5596039454879846 -0.9084715341262288
P 6.831288069708248 4.932302179186279 2.5522210836843233 -0.4685277582057543 -0.6792674574896044 0.3302741419067731
Ni 2.883090536672063 8.044445384809702 10.182229699330586 -0.25379385016084677 0.9295844048454442 -0.43579941473479783
P 8.520586365936934 3.353969572404927 5.884704998843796 -0.404060174649988 1.5438654301613346 -0.1256328422111772
Ni 0.25651890830316826 0.30406699968037915 0.22596615681190502 -0.15016168059047688 -0.21805757310150187 -1.0470545087401708
P 5.228068134621725 0.349264879404416 4.445443005753096 0.2411851602579007 1.048998262730103 -0.7609388065181669
P 8.236264676898076 2.3067866585855827 13.785894385127962 0.5735200413484446 -0.8334899384130161 -0.6549327373989817
P 6.25163737122959 7.369661316683374 12.466670753764392 -0.9348682789522028 -0.44826078042660217 -0.13821196442776842
Ni 3.006718363269805 8.97087315953459 6.950272183011842 -0.4349146981369993 1.5023346579073997 -0.5361590842014831
Ni 2.919840483922844 0.527399394778106 12.972295363202052 -2.012763427222314 -0.13340785817090572 -0.49866725790361216
Ni 6.624510349811499 0.7867426476233403 13.08529982407162 0.9760789488625576 0.5041707042203446 -0.7860451146674914
Ni 0.5769658047862667 8.530180584394513 11.282957091063126 0.6815089452256133 -0.7665448398510346 1.3375485425355287
Ni -0.1737771411575402 4.283734870798683 0.5049050430533433 -0.1537663672225997 -0.22460874395645833 -0.5160345455374661
Ni 1.4575309840703388 3.3880234698953413 5.643213314101509 -1.4038282395993693 -0.42098806075357814 1.1267306817155758
Ni 0.3085759104865083 5.69761773892103 5.2771520446900135 0.555777629763359 -0.09590806145323483 -0.4743050270091638
Ni 2.2590572811037957 4.6184076132932015 4.069408211572909 -2.094745879733392 0.5890975840717273 -1.2206764772361172
Ni 1.593030726337002 0.2322349373409212 3.334674223171688 1.6661838632872983 -1.1411422291552153 1.0311023562862887
Ni 2.5258825368702107 1.1930206124085136 5.296282841920637 0.7688958565817146 0.7651924395881983 0.9507602675921109
Ni 7.7564050064462 6.682363858979625 1.9958298572589723 1.0560803663878648 0.43866619475963164 0.11974527308214863
Ni 3.713678390777602 7.338294172230015 8.01628839891584 0.6473906633856656 -0.18360247674742572 2.0126544124482755
Ni 6.460265139065348 3.3423207780954844 1.0577542178969719 0.7785858301759688 -0.24187370168449313 0.3820746715178323
Ni 6.572755491135785 1.5729405072606206 2.7055138246970696 0.17488926524414397 -0.8178324343814174 0.11599120535635508
Ni 7.3995595788535 8.354277282615607 10.7383215712653 -0.9602679499722301 1.1636692066131378 0.27174734931547395
Ni 8.494499760324567 4.294472586223588 9.94750045112516 -0.41287648739003735 2.304401601924444 0.5943809439578538
Ni 4.720281107341783 3.5680266266546647 13.206493768506386 -0.8540099127432389 -2.165359942506529 0.680102808906706
Ni 7.210901172691072 5.671651990711712 13.655814632551966 -1.5069934968356498 -2.3833259843354893 -0.6504795867236346
Ni 5.31293792173338 3.8444182107087226 8.235996001594371 1.337021209277149 -2.989504692259219 -0.2004077212302226
Ni 4.618500580526318 8.80246301674484 12.045802511413983 2.5419620209455642 -1.871535044565725 -1.2535660288752863
Ni 0.0899708991927332 2.446404849279288 9.255790768537722 1.433297709813396 -1.9399587845557622 -0.30398384075167645
Ni 2.2912797241018237 8.167524704732058 1.1338664916490935 -1.571416857417042 -0.11732355101453343 -0.6674496389190698
Ni 7.474500465468359 9.079551855047269 4.247153194239843 -0.9347710912527064 2.182173157409126 -0.06801879124213446
Ni 2.4166553346821473 1.2062777398508646 1.4200624001075715 0.4270525217801033 0.28787356545337517 2.247398445066523
Ni 2.5552229956416403 3.7167091225771856 12.14011033203158 1.3899661369052965 0.5514363220755277 -1.4301311391599563
P 1.5582144975350363 2.624939123755377 3.5063503048608053 -0.3016269104837257 -0.5426027829442978 -1.1629400417565972
Ni 6.310597190471797 8.83769759809583 1.4015033513606119 2.4239753824257346 0.06789897783481856 1.1426447818426706
P 1.1055849296628555 6.848998327616858 13.4266364578359 -1.039954921580912 -0.015246898856741483 0.421843466775338
Ni 2.3152931604157025 6.315459376763767 6.495373284979299 -0.5707288517565525 0.3357590762807443 -0.5085665192951951
P 7.985773763990153 6.4460132622286554 9.10662019464134 -0.2848211517802966 0.08917408516351093 -0.5588560115783666
P 1.2029774030752443 7.186571647784598 3.6291906989940537 -0.5263924917330225 -0.14008706996329423 0.8107372180975326
P 5.628896360201635 6.3234359653651255 5.434962993232201 0.38972061809886427 -0.9292010533640965 -1.0831268289826959
Ni 8.21470557553846 7.555307584492843 13.311483524209018 2.0464626192469724 2.5838481196563885 0.37851832162514165
