# total energy = -340894.0475566258 ev
CRYSTAL
PRIMVEC
9.05088169990090 0.00000000000000 0.00000000000000

0.00000000000000 9.05088169990090 0.00000000000000

0.00000000000000 0.00000000000000 13.24688024495359

PRIMCOORD
 96 1
Ni 6.269066173494703 2.2746585802818973 11.601763407325066 1.421560880992442 -0.8836922702990199 -0.8999056468340888
Ni 4.657692420055895 0.40649682682587734 6.114984865655419 -0.14059357728606756 -0.6217775908032517 -0.8527202473975378
Ni 2.764700477282135 1.4641883124950494 4.778573283025552 0.4478108373733771 0.03420929889185721 0.08655695925563803
Ni 3.3047394457233588 4.118983931249325 4.736912073785352 -0.3778778598276653 0.40432962626129076 -0.028746218894756943
Ni 5.102968655335077 4.431782408620882 2.6715641875918417 -0.11359750831319791 0.8331199566681071 0.5791433010724929
Ni 7.315773508928396 6.094483713135329 2.5349890954623975 -0.33140517018742277 0.4575005538573153 0.010036558300395617
Ni 5.2660112413122535 4.523549299884488 11.641637067396259 -0.4118187355494843 -0.13962787093868856 -0.7849763070833449
Ni 5.495831233714411 8.057502328924823 12.442622916073221 0.2156520489838028 -0.7042755494981677 0.8186564729446095
Ni 2.0596729832620304 6.415138355968648 0.6167533380695105 -0.45823666069239144 0.44390533167138385 -2.2217599185628125
Ni 2.802741333774978 1.7469016585360782 13.559241978322918 0.1296897858893702 -0.593659749521113 1.0291863702104986
Ni 0.6551571349252759 9.239864281801946 4.526419334524955 -0.733930139139807 0.1697619713199076 0.08360610415743021
Ni 8.54833165264761 2.199156123735788 1.4198408015163122 -0.17929819294511704 0.9832659535293001 -0.09801996558991505
Ni 6.843969138892965 0.633990742587859 4.907571881942967 -0.38987951227423173 0.7274756417637149 -0.7937095731912848
Ni 0.7688561231323643 7.306849339406164 2.507104233514075 0.824034192316755 -0.929909906505663 0.18601288596113125
Ni 7.671464115474254 4.013966548930396 3.6549334517105425 -0.709770511174468 -0.9745514564744375 0.4946892470924706
Ni 7.618263031851858 4.087007165608303 12.531919821674943 0.1985264450471097 0.06249503321042784 0.5926151103066826
Ni 8.133104345171484 8.942533761543467 6.805889363608087 0.004071341855896214 -0.033039189843156 0.6536872950276549
Ni 6.773770499121732 0.7066575578446016 0.4579881988633347 0.9122184027631709 -0.09807627274914722 0.20939938320587162
Ni 1.7667592933553258 6.506280736383336 9.214477463249297 1.3117845461975473 1.032830394720989 0.009131529987622983
Ni 0.2713753063244968 4.893341180381297 1.3794105122102143 -1.3692217052690936 0.3612700760676552 0.8577254139216132
Ni 6.385623430195828 1.9779163673448639 7.083623819533315 0.649195063584256 0.2189230064255907 -0.44806769057918966
Ni 3.1108876578661824 4.170302431443096 0.1279152083577685 0.6649065607822419 0.20808040728413196 0.17706698962175313
Ni 6.017216334624884 5.646410755358815 4.90255135777057 0.16070680309617483 0.0705965792716397 -0.5961971712309861
Ni 5.434466254646728 2.918556418162896 9.265954353875767 -0.08513899586218886 0.030188093547606074 0.1319911803290372
P 0.26775133322439343 5.620959675544903 12.511863972542777 0.4091995527590823 0.9290074492960517 -0.05164189254600784
P 4.164419358228643 6.068136596016446 12.624965602546553 -1.4364331701185842 0.48522167392166754 1.2894128633705666
P 2.4887752926423983 8.455035162348246 1.1743084781906294 -1.1561163339665443 0.8913436161966907 0.8542629092943094
P 6.420161595405605 7.741662755245486 5.792648568970953 -0.5124185460514336 -0.20117519552386645 -0.0955355086051645
P 4.869808887523482 1.191630055910354 12.821324484681274 -1.2774181529025355 -1.285154859425161 -1.2570802126761318
P 3.893526463907731 6.219349679391637 8.322219806546933 -0.5448995493982745 0.5542069428421293 -1.5097702882498385
P 4.787789796032133 1.0777971146516134 3.719035417455228 -0.857737240996155 -0.6757401610626362 1.2733797211671036
P 0.07507253965736055 5.577388730230473 3.702675043389926 1.106536723266204 0.3788425377337798 0.15193728443366092
Ni 1.383038105663065 1.0251028804138471 2.3820147104756177 -0.04007835607812452 0.31711137927256994 -0.39817671928601744
Ni 1.9143429731012926 6.182693607824658 4.946676217055345 0.14958163971729077 0.9999773527467101 -1.9787595594730438
Ni 5.69905973518724 5.51574317382487 9.210423573260446 1.3863851044222575 0.03677474562618827 0.06228445986151854
Ni 8.690095615352202 2.492839138601305 10.212510061082977 -0.47133308886503344 -0.004857328092301313 0.6405826393248968
Ni 2.331009370794493 5.139615676020187 6.9425178559405545 0.4856304793243119 -0.6655395663805506 1.3099930015147634
Ni 0.42861989737678297 8.816916572092081 9.088367000736088 1.0349222442530113 -0.0548251753699959 0.5601397633867966
Ni 1.5562448319784439 1.3357653496644641 11.642232615423199 -0.38758814513689377 0.25862161056679334 -2.115761819863427
Ni 4.104665436133533 6.938351735016536 1.7645246306220204 0.9288076745804199 -0.2905048324286352 0.08747818551832677
Ni 5.8074168929156045 7.862537282597835 7.85362487922203 -1.3688761490042167 -0.3939156300168184 0.42590529554953743
Ni 5.255575574518 2.962960044609217 4.74435732921029 0.6563131626862762 -0.5595396679089525 0.7414907250958843
Ni 0.737483956400151 7.164985817001019 6.875832768510632 -0.2139504929116638 0.6041969016070111 0.5128044686359426
Ni 5.024551814827346 4.509167448595616 6.915560709383743 -0.34821581398685836 0.5097106602019673 0.6067554063628067
Ni 8.055293913748935 6.954543762679085 8.946121531116097 -0.1896085737321896 0.8902290429762733 1.3105918114410267
Ni 4.886471561043188 0.2661556627509963 10.384415270585682 -0.8129262553290516 0.4032248232328862 0.08806593970099673
Ni 8.36361220459564 7.295671500298703 4.912791525516466 -0.1013955669303673 -0.6243098703068023 -0.886647496272602
Ni 7.310777422137045 6.120079607059135 6.949869887282248 -0.1330661585607708 -0.8772403440260892 -0.6361533999089496
Ni 2.5664318590731843 5.090949084213855 2.4388569638736675 0.050337057691655245 -0.45431469993016593 1.4905695469516715
Ni 2.3614474865178883 5.458523498652908 11.373665797742463 -0.513359055587832 -0.6048458480449196 0.9594315701138638
Ni 0.9212621127378092 3.243591687820516 3.7544569487353585 0.5451715721127385 0.21372192184062547 -0.04868126725578713
Ni 3.471529096794049 2.6219771210994933 2.645653322979015 0.14998376025171586 0.0007433059239277521 -0.08019887824809414
Ni 1.2709791372505288 3.307047420599798 8.396164606323492 -0.7367241569451765 0.08172148554020765 -0.750931815904126
Ni 3.7507669041976164 2.4988217715163112 7.083438276455014 -0.992445306035723 0.9857897483924184 -0.593755651669029
Ni 4.127084470521534 6.994277134081317 6.036046694352069 0.009727254590092925 -0.3244549641218347 -0.09762427281339317
Ni 0.7001074346364478 7.485884833644786 11.309020779085674 -0.4747323443545695 -0.3467070906518158 0.5620197540183288
P 0.2528798292264419 5.48605628129655 8.105117208258049 0.407149355098273 -1.6909088768378038 -1.1802343100606707
P 8.704242143712497 1.5523439018931677 8.252329801847411 -0.5818720128575656 0.721859324018202 -1.3929851262372783
P 1.8135342508511652 3.2585708973127017 10.553445014918799 0.6024963739761365 0.30857865921121047 0.27556955127504157
P 4.09444699050412 6.134045117782062 3.963903406051771 -0.9172068571166978 -0.4642730966944585 -1.0916757469939715
P 7.080079494193654 4.158735404415294 10.433786021001374 -0.7933596460510336 -0.01923776518368945 -1.3810770619457828
P 6.399751856792386 7.7031874564229605 10.107157796134919 -1.4875747259894059 -0.6489196984356824 0.30385837091740575
P 2.153838358220759 8.35287785869973 5.728030702959769 1.5377318064597711 -0.01286502888812623 0.20968554698772277
P 6.890436366405279 3.952963605137448 1.3858221569257818 2.062474421294197 0.11150771566370474 2.2202848766791825
Ni 5.276926604845532 2.9962310863574184 0.5962802432832124 -1.5892114623963018 -0.14046682190021614 -0.3851617950835883
Ni 1.4960564675536505 0.9908362416601229 7.078470247397454 0.01662115349644879 0.8404319169484881 -0.33219912684362785
Ni 6.902130105779239 0.48939656912302154 9.039141064430288 0.8846512917781797 1.5295685539226884 0.25523289660021853
Ni 2.9573484978508153 1.6127766401284074 9.224716725907008 -0.560772254764473 -0.8843049641823545 0.5325546546796763
Ni 6.372644465596558 2.129274264829949 2.73620920624863 0.43707905277816983 -0.5129916449460842 -0.9105222460076706
Ni 4.2382111981016255 6.80677906529575 10.645696128362363 -0.15900421858277133 1.133833354198628 -1.0559091309173234
Ni 8.26140059565591 7.212973592667224 0.43059027435953146 -0.4049112097963736 -0.22108324730170312 0.13283321661435835
Ni 7.679229772117332 3.9133659969632415 8.045506290096458 0.4719311274603485 -0.47696868988425595 1.1865247710550726
Ni 3.1353521915564406 8.617887679806188 12.337045284166638 0.16612951677364293 -0.3635251906504191 0.15726255330131628
Ni 0.21283329731156367 4.998077985362306 10.305808361558716 -1.0380206806726768 -0.9235268857974546 0.18275221293198848
Ni 8.672265378071474 2.239794583324859 5.913473316473024 -0.18002015871280608 0.36801305121844363 0.026930505842256845
Ni 3.797369894937956 2.5477870424243014 11.415366830862883 -0.2791714096936869 0.451143758401352 -0.39650344534865256
Ni 0.7946864348965623 3.411087307676941 12.78531917152063 1.0118777037287219 -0.29371716871834574 -1.352953050016057
Ni 3.02095809562186 8.33527389346571 7.825912889117395 0.4893120419409573 -0.2656965151357037 1.0537404054007788
Ni 5.6650827246533035 7.905338902953451 3.661424744186552 -0.7753328704563098 -0.08007495107572016 -0.0947549216853981
Ni 2.731094552904803 8.420877134176942 3.3903797950502517 1.3860431477018065 -0.6683497821358361 1.0032873909565494
Ni 3.2999967836243225 4.432986175909378 9.33845463290613 0.6864835156220692 -1.0809372775305448 -0.030210205034793134
Ni 7.2312473231595025 6.409553961855853 11.597140216866693 0.37574615819664325 -1.121114363970063 -0.48374071850076694
Ni 0.49894705967054664 0.0765152502271819 0.04096519642451981 0.4351507254072054 -0.5649356421135432 1.313279642685835
Ni 4.55710091897061 0.3414019793402299 1.6869241796588186 -0.05276880706159944 0.03385320110401912 -0.4154103095554846
Ni 5.928273318504215 5.6176742054266775 0.5384541590260689 -0.11625500054070301 1.596933770741224 -0.47983212747498
Ni 7.687375565798884 8.880308948698286 11.344774477730375 0.7603145426706066 0.5011689412795433 0.6455860060767591
Ni 0.0872658877104555 4.684890320070408 5.880210420518504 -0.4913113317591732 0.07242874738437204 -0.10777190277035632
Ni 8.083415003714023 8.67628396962104 2.5774458772188282 -1.4370435500090735 1.6038883476821861 -0.03269337646796305
P 8.295323300898637 1.7175405977550213 3.6934684863534 0.509020061892846 -0.2784507294775785 -0.7813029719968158
P 1.6059522751996416 3.2022744120913162 1.5695297163848667 1.142451177774626 -0.8986800019571038 0.22038236457993657
P 4.808462010219536 0.9906914275502285 8.21037715421105 0.024818344595260482 -0.5002112053519644 0.7587027180987966
P 8.44371250913089 1.6648373126353866 12.310948876475509 -0.6746178745327349 0.35693956701310137 0.7345785713570833
P 6.259381729895526 7.795741774409116 1.4335510773705495 0.6430568118970023 -0.35991047671596726 0.11495453656172461
P 1.7508478430306964 3.0943516966926343 5.913314926040328 0.3583441606701119 -0.05079368561309962 0.8439337594541595
P 6.868777606094222 3.8477742560630195 5.9854178713566695 0.6905489439406945 0.5123457838319693 -0.47407517038654484
P 2.2922806472796524 8.62326390363601 10.359736230995145 0.4563605267156012 0.1427864711723283 -1.4147109479501443
