# total energy = -340892.1835165578 ev
CRYSTAL
PRIMVEC
9.12448077667395 0.00000000000000 0.00000000000000

0.00000000000000 9.12448077667395 0.00000000000000

0.00000000000000 0.00000000000000 13.35459993331665

PRIMCOORD
 96 1
Ni 5.996006627063246 2.019685596677687 11.187308860117605 0.2985631839567374 0.33653606365608496 0.8312291674032974
Ni 4.758225171539313 0.29703378874644043 6.159769160336338 -0.8531568207143242 -0.3066109939618784 0.35214214562445806
Ni 2.8371843377945742 1.6368223784123506 4.9371425551273935 0.00010387256771595015 -0.3313874295756099 -0.39998137659492405
Ni 3.638696988387132 4.44781033156346 5.044940997292082 0.3977542870366182 0.10215661346610794 -1.2403814118642122
Ni 5.021676308359499 4.679727262417847 2.7689158842021193 0.058814756145363224 -0.6481280557723225 -0.42369543238241225
Ni 7.483835356975723 6.623287315006218 2.662119310039469 0.23645201644828953 -0.86117840546722 0.45121677773113256
Ni 5.1476945139710955 4.538462049234245 11.401623754881532 0.36743095346272847 -0.46681951726539606 -0.05921353424567868
Ni 5.734197896803778 7.826559983793271 12.309989551418274 -0.6030615024509872 -0.0018504229451774587 0.6048908423502422
Ni 1.704562524561108 6.796552082681158 0.1845937231515425 0.47382191672515817 -0.8636947441311705 1.6433028449240668
Ni 2.501366943012938 1.4935224059896357 0.25332478792526686 0.960015724752108 -0.6109177652706125 0.813257156305909
Ni 0.6889722157078377 0.04827945330041825 4.879170165774466 -0.5209327541700319 0.25263711084858426 1.47873758731375
Ni 8.705493854761933 2.3780587082265283 1.748077173939263 -0.9278571377416923 0.3954554637001125 -0.5708977732342491
Ni 6.75644998915694 0.7887201283807367 4.919834327321684 1.2232277829030611 -0.3981710628590626 -0.9631203318193606
Ni 0.5536826250609842 7.90680979324617 2.9359157832960063 0.8478333516188818 -2.3548792989590215 -0.8084589635863174
Ni 7.8523731402392345 4.018594750362282 3.6822773340277157 0.20582375003947134 -0.09096588695661106 -0.3384800747563332
Ni 7.722814636041201 3.9677896407507136 12.784612199334793 -0.04818581567660733 -1.0891064436048985 -0.361725418437519
Ni 7.834689896268829 8.911907861520715 6.920313804167944 0.7550977743563576 -0.28696288071364773 0.3830252083565597
Ni 6.59749240752204 0.8015573605489327 0.2698546975108122 -0.043913413553498565 -0.2529772677968224 0.24915712271978382
Ni 1.985012569284735 6.453608468322181 9.344387269537277 0.018462063359929493 -0.5495889844541438 -0.5960776149339864
Ni -0.12215763774581749 4.937794955511233 1.4441261162279289 0.015321975069051032 -0.2132925476126907 0.3008182985395013
Ni 6.641390285097696 2.0533093087679584 6.927725619997232 -1.0728408736756556 -0.3188964961974508 1.8891908099742754
Ni 3.421497845212964 4.427116008898404 0.6792108460486325 -0.014523390427155633 -0.19182615020879865 -1.3662551664416018
Ni 6.201298322672203 5.713065599055862 4.733644732461977 -0.4267897550370198 0.5552693226683727 0.15393143204555426
Ni 5.432679425698486 3.1961505406014528 9.073315366275354 0.18708606442065198 -0.5433923687251286 -0.2574802978734985
P 0.21636425317246896 5.673337609248253 12.655233447410348 -0.957022703562055 -1.8081483527789635 -0.6546825690613886
P 4.110733758418606 5.986352926278577 12.68462613771059 0.012284988014940133 1.0054291198899008 0.056677140977070134
P 2.2791493353476855 8.507976216873713 1.5785132957144763 0.8560197440844162 -0.15082682497830152 -1.1102085156908366
P 6.343448610502414 7.680595662949835 5.8556447374880385 -0.2859709491140236 0.34901337018748924 -0.1422262277934841
P 4.560552417475913 1.024606208423527 12.56435544261342 0.03500994041628164 -0.3952631451836483 -0.03657008581454992
P 4.013329924887089 6.071456959566489 8.338278208779801 1.6842124386542348 0.14482792708238926 0.5835116053435176
P 4.624533277496803 1.067692007199717 3.687178092715283 -0.29553288177084586 -0.8724961444728845 0.6358453817502275
P 0.42855953102498007 5.60773259162843 3.5527379912395567 -0.6846310357943629 0.5621886754960252 -0.4796891741392126
Ni 1.3641281424476734 1.0708946999931184 2.805427494494987 0.6444218105653289 1.4042974659263041 -0.9811453076418715
Ni 2.0099862734885536 6.487870894074954 4.762931578783861 0.3052786483037001 0.5416969833005767 -0.08906069951409823
Ni 6.249712818289835 5.651968074997123 9.02004390947844 -0.33779590420511496 0.27794679325796645 0.937652012344927
Ni 8.461687725304122 2.2729446883405253 10.497837535304924 0.9330831620273221 0.569446128389387 0.22456940607809067
Ni 2.59470125806623 5.307674037465999 7.0051021304169625 -2.1261956136022415 -1.1112068750483635 0.9012724452746285
Ni 0.7880586035160027 0.0927795466150047 9.333556510717425 -1.3518590456209298 0.1435241206693012 -0.8548807453839663
Ni 1.19376495969667 0.9143642302757243 11.573003404804004 0.28754986356536927 0.610711048576445 0.2097948188720774
Ni 4.182689414739875 6.833305491717687 1.5540478250963912 -0.2942283040268094 0.23517829194218853 -0.27716080702156143
Ni 5.568260087285822 7.835657091243475 8.081228807754059 -0.02603859015560677 0.49050580513874237 0.026749500179702318
Ni 5.319344248527996 2.6909919049288162 5.044460137149027 -0.8639562253226735 0.47681545213584337 -0.97521145865594
Ni 0.9330602916252401 7.6491253283502845 7.072369628455469 -0.3944859006979916 -0.5297778632654876 0.02208089105943939
Ni 5.343606243222169 4.489746445747147 6.874907649900695 0.09179275373328062 0.45337393328345144 0.539052089478562
Ni 8.582386358555167 7.138227394196025 9.07601347527538 -0.6616304611341314 0.22588838199983033 -0.2280043999015686
Ni 4.741089396422479 -0.05356891487402206 10.351965371718508 -0.4571701671010901 0.8185081202922032 -0.2814645766032378
Ni 8.45585718201357 7.189589097142059 4.923106366169872 -0.5229456708350025 -0.11677307782770212 0.19813409470469748
Ni 7.455029370796894 6.099386995579601 6.932853578259032 0.30533135591850646 -0.11771513002599727 0.1742464894538225
Ni 2.4410723732727724 5.263484176501771 2.5221634598639953 -1.1522334539723704 -0.10062295043040088 1.1407115693757
Ni 2.3875572928360183 5.142155954069116 11.460650934225677 -1.0143922426204595 0.40413190842818786 1.619839985915436
Ni 1.1841751302782508 3.323829401735553 3.9390192400473674 -0.1629436628464936 0.20724325609481728 -0.558208864912671
Ni 3.7443037302413504 2.5845000884279874 2.3891248786534156 -0.5673103129933068 0.17261049651229626 0.19481788584727094
Ni 1.1333791451475757 3.367754652753888 8.25835140595051 -0.13179551937846334 0.6066461344784521 -0.49628693059689366
Ni 3.7711570775091023 2.6063805936091193 6.960510792293447 0.44765220030832586 0.0854236169821432 0.9730221643141049
Ni 3.9666399561582106 6.9185920146234565 6.176248885276973 1.8213314271281407 0.7838491354574372 -0.5718506240658217
Ni 0.6117426094304829 7.2386970533075505 11.183849769411113 0.2367957729409535 0.8798754676560911 0.7625475457661836
P 0.47327952432908493 5.573141684563514 7.925768639645401 -0.8558364244290164 -0.2832607492717122 0.09631249598050509
P 8.728852525847712 1.5881706462915026 8.111356931214267 -0.225113965727651 0.6165952752713639 -0.3465749359493257
P 1.502729007210554 3.133976327797354 10.50440807399589 0.31711497881699585 -0.0466251560577068 0.6086050579770357
P 4.0699382043465295 6.30893069928464 3.7932538328873955 -0.162132736909424 0.49341295148320824 0.3941395731021664
P 7.09576206012055 4.001121369452412 10.387648479146302 -1.124573783273573 0.427951893665921 0.18302989207340736
P 6.753594026637469 7.864955799390519 10.034860462351995 -0.5961874010389732 -0.29739230357708785 1.0008263310105667
P 2.4799061639528794 8.499463076200655 5.8548837557815725 0.7198577202071409 0.9533105448177903 1.198748309704458
P 6.760692872772132 3.9239921324648797 1.7476100005175474 0.8440327469258689 -0.00756444261081923 -1.3056470658412418
Ni 5.267562819460889 2.9366868019314545 0.27928849830596314 0.1718165398560912 0.015934154731753206 -0.019866142796307724
Ni 1.6007168075192157 1.1235703281877272 7.209120048493273 -0.08376319856058477 0.025891523054781217 -0.8575793752620521
Ni 6.989206372253473 0.8671331798298983 9.208317535774082 -0.8743205992761329 -1.0569535130214376 -0.1692287245242569
Ni 2.8391004787820795 1.8508462022357952 9.21062785433616 0.3917376485288931 -1.1691968212995865 0.7645895158968768
Ni 6.206782135688825 1.9420545132410456 2.5671416759773686 0.9973905658561403 0.3965173293057236 -0.1627531441022423
Ni 4.240264889173962 6.7079989956157355 10.48169176636497 -0.22824531226778108 0.04153720001183814 -0.005888083349660828
Ni 8.325778582404642 7.274811748681578 0.37317393200518517 -0.8728542991432516 -0.35218868259167735 0.39356981664162544
Ni 7.828120270025955 3.9198131202159394 8.167459714432242 0.2765560835580269 -0.3206620727383058 -0.025452635745149714
Ni 3.118245722738025 8.321800308735344 12.737323664659343 1.4329521535485192 0.901273730826209 -1.3288944664049565
Ni -0.06742443910986366 5.030390187612202 10.452137572752925 1.134445276751014 -1.8121011667791245 -0.7919753641089974
Ni 8.7184871155534 2.2739940036432067 5.868906258017755 1.249284885001429 0.690581854061159 -0.025536196597891504
Ni 3.3745341420573 2.7222979988722944 11.68467427665963 0.27275676441659474 0.20267774821132192 -0.12503788893965562
Ni 1.1230684817386187 3.440613632683552 13.000636109369957 -0.7527393014265101 0.259792748056759 -1.159152549689707
Ni 3.047485373413723 8.443995356852824 8.311395663173192 0.8813983320585208 0.4079723652202006 -0.35537196541566546
Ni 5.7052094210070905 8.17492353980262 3.701814672515555 -1.0123173623693016 -0.8328114242887527 -0.6078830922093466
Ni 2.8594936935776714 8.61839156015848 3.68533586002301 2.304060673645258 -0.8108529177397907 -0.1903284826173496
Ni 3.2923681916168954 4.195646177607768 9.592008344456403 0.704518261636593 0.5372032091952812 -1.333178181381975
Ni 7.318171281884554 6.17700895453535 11.51937061856373 -0.45856833300019734 0.1908442459115036 -0.22374691017679527
Ni 0.4890530144486104 0.07384351141800628 0.6007685962606135 -0.1535923035385806 0.43161802966359863 -0.43826098890141296
Ni 4.528415995771181 0.1894406474018415 1.3948210712751505 -0.451515539918474 0.06334786812902639 0.6595843772383801
Ni 6.259521635249683 5.678967413959162 0.4274490817003163 -0.6930915078568902 -0.19034185235378834 0.08440263191679657
Ni 8.014277929202537 8.769848818499433 11.924589727464717 -0.26654935005430225 0.36142485647796463 -1.5536348508432727
Ni 0.3301127693274062 4.985078015498149 5.721137114853705 -0.6726661501230028 -1.0122715967330307 0.5016474235778586
Ni 7.893588420432383 9.144372261228675 2.3943194456257335 -1.4102369713391907 0.10786189138100133 -0.2613305248575241
P 8.576628811111759 1.5072182518098518 3.831127728177571 -0.5714248493823126 0.594519269307931 -0.5827189342388932
P 1.7178386442602513 3.0045820642553913 1.636833327789422 0.6065317203877748 0.9280024050703051 0.8222470185093452
P 4.76163772739325 1.1272566184684516 8.359151371270357 0.7299937801998783 -0.3615269292734677 -0.26386023325791336
P 8.389129853243922 1.5953059903497366 12.758277122581756 0.7409492507701174 1.1369901546600547 -0.32558522107153604
P 6.271565950028288 7.7494307468057375 1.261212210008766 -0.06191293545471273 1.0624307340859251 0.15026246783439928
P 1.991828556511718 3.4037051074718434 6.02186996815412 -0.9457599861640421 -0.8287074294227081 0.0630323937711366
P 7.068607604983333 3.8127282124570736 5.684158331139122 0.22249555426819748 1.2766218822534852 1.1166514431027026
P 2.3498366888248436 8.398537193044485 10.43949104223539 1.568335647388557 -0.24956592812242825 1.1928306586684425
