# total energy = -381172.0986656883 ev
CRYSTAL
PRIMVEC
9.19425669555818 0.00000000000000 0.00000000000000
0.00000000000000 9.19425669555818 0.00000000000000
0.00000000000000 0.00000000000000 13.45672404365525
PRIMCOORD
 96 1
Ni 5.790285375080215 3.0956970070186247 12.214479805385743 0.20773176569546162 0.3518865779702262 -1.261489140377105
Ni 6.884539825762639 1.9910806291344265 8.190542603348744 1.7684052685530705 0.09914019523728732 0.9253587967998708
Ni 3.4518089541163155 3.5200027554078464 6.699833646406302 0.6040583191466178 1.3224155435488323 0.863171781748165
Ni 3.7730378916279106 8.356549503607505 10.636383117048466 0.16769197616475634 -0.03352821366443258 0.013921752287414732
Ni 7.537368822244217 6.690945558539439 8.386634030667775 -0.5853936528575789 -0.5280662798910196 -0.3992573539447059
Ni 0.7226704085579858 4.821357836276563 11.02668206850672 -0.3366394220031686 -0.4737648382349776 0.03368325118505812
Ni 8.872779429603943 5.397001048500029 6.348263662074961 0.3628001395589365 0.32044275763864816 1.9113434348119147
Ni 8.998731550932336 7.459806073465012 0.8185747798525563 0.7263394712767426 1.33131695980352 -0.6525467536653085
Ni 2.7923508986174546 9.419515899039144 8.515576124246403 0.4040771439308525 -0.6647299259950616 1.4114212214552788
Ni 1.709304246745112 0.91390910723718 4.311143712381385 -2.388444536508977 0.8267760167279503 0.4592586741990026
Ni 4.9432920674654905 4.296678388453657 4.42150237449575 -1.0092934879413136 0.5271090581840728 -0.21869237847202336
Ni 1.632100073973778 6.79719438794822 2.2485915294732344 -0.9805647525480533 -0.0929518070383883 -1.9827306283056498
Ni 1.028239688207948 3.006062199307807 12.95990140193023 -0.4255054890079575 0.0008106688267534425 0.33592054155927314
Ni 8.058986582615312 0.667025848116234 4.750532638742666 0.4744798620241313 0.9773184776966135 -0.29758745030702943
Ni 3.5981355480969968 5.545111328263448 2.5778645220947074 -0.5531026540343571 -1.5686269533767307 0.89844448890753
Ni 9.091464823121413 3.1298996416154288 1.7896767603449566 0.21525969864139055 -0.36370568209234133 0.09093426238772725
Ni 4.689070872142473 1.9803785144380073 7.7613675766577845 -1.2016045482063307 -0.21753898159387053 -1.506713503701386
Ni 1.4623465141456085 6.912324869244236 11.947282755706146 0.9813471392400325 0.3894311118829035 1.0077353994255742
Ni 1.530944862728069 3.802551455352572 5.743450751324123 -1.7598841184559368 0.2155468908645062 -0.8132317023846124
Ni 2.0731485636535316 6.016997354619996 6.869751783427827 0.2733578883357034 0.0007757018237599544 0.07711586844739622
Ni 4.913226848344107 0.8749751081878182 12.034509587610268 1.0385400435112566 -1.059904882340278 0.4548260923489457
Ni 2.4881589186079767 1.8640619740390378 1.6162197539534555 -0.15485882895583009 0.7436967316082675 -0.001058523171501403
Ni 6.740088860130814 1.9082311828032974 2.704142120107165 2.2862830379468626 -0.590318343852706 -0.3747226020281353
Ni 1.9111365678927033 4.617888937452028 8.929491443238355 0.7201145734129534 -2.131307738017826 -0.4915761553847857
P 6.551082526957025 2.9683473586852025 10.068455724973825 -0.14134253963695012 -0.48173705780717685 1.367145282356039
Ni 0.44868523922171755 5.208288931537825 0.19088931692793645 0.2710523801309783 1.2966898566479539 0.364624594362185
P 9.074970326759404 5.094280149548479 8.700270351069145 -0.24621655203422108 -0.24530663862544205 -0.7932994822370596
Ni 2.224899769035319 6.733257527468066 9.633143531994326 1.1773068520012306 0.7980652790568191 -0.266370915494909
P 7.874908370985578 1.8048233786876378 0.2601505714121256 0.37972236923557184 1.906030507239434 0.08449262052744158
P 7.988236777985632 6.4170486540666465 12.23672347040726 0.7995760592743907 0.8513794170989273 0.20862265294084717
P 7.19400930906743 8.171634614626075 2.4317650262523434 0.33742900778399953 0.7708725206921111 -0.005674938897590226
Ni 7.5601521901288615 4.920048986750244 10.268731458476998 0.34664384151404815 0.6120025136943589 -0.4801432309574956
Ni 4.637849668556775 7.579975007384427 2.1152490646800817 0.9014164270516604 0.0043693327122892485 -0.050491066771016266
Ni 9.13755563151759 6.9679960930301625 10.178289395035643 -0.7125850978051276 -0.15074480678745653 -1.098670947364882
Ni 5.097213117407721 4.920904052615164 0.5882218746944042 -2.2561049717015855 0.9999536985976261 -1.539815171351361
Ni 3.5829926074569602 0.32815956814575437 3.256351930503515 0.9483575716878894 -0.3357611331632734 -0.3711613670394382
Ni 7.135993549845432 9.028153172090876 0.21292703060134488 -0.2158245700059251 0.4385414962563093 0.42816915188304966
Ni 4.462046287877881 0.5287313567118345 0.9508792130742092 0.7079607116592388 -0.6114103886363147 -0.16400450001084013
Ni 8.581459408851329 5.683999768644985 2.370940421635366 -0.813315006127038 0.11813216295875782 -1.7880711224131143
Ni 0.663459395976422 0.859473591539912 0.2843121583629162 0.22755831350308553 -1.3018094372627065 -0.4692674645852563
Ni 7.080699290580599 6.75612364366222 4.111231152014389 -0.17373792524852014 -0.16050111484327198 -0.2710269262096816
Ni 6.9393467894270335 3.951571966520582 1.262835742792558 3.1797125901383043 -0.5197739579752403 -0.5430560684316326
Ni 4.3262655062312145 4.3478903977827414 10.354020141087302 0.03951374182390614 0.029281008352304412 0.3302502306473732
Ni 0.395268447157064 5.707307209156517 4.283046064174979 1.7813608002724741 -0.9719320165737195 0.9141289895223225
Ni -0.059298358019378196 7.7975111188253905 3.759055266172314 0.18000807452794806 1.9314016390143707 -0.4507406094256625
Ni 5.30276911248319 7.874724485853337 12.745778198543658 -0.7751559785588134 -1.2973136062748818 0.19218224799663675
Ni 3.2397342311029065 6.504660725322815 0.33341316637387636 -0.4792803687365681 -0.2853816522694569 0.256059763376888
Ni 6.744189498579787 7.764687622720393 10.840548021098533 0.29432292062314475 -0.8195681861256016 0.12353790735536144
Ni 6.860432484925859 6.598800718773534 0.8769601481903585 -0.6744615514605288 -0.032573048840014864 -1.1747164655662348
Ni 5.488327599427463 -0.05951626190108364 8.920085718724234 -0.3823724052639092 -1.1117614620002532 -0.14505032750584052
Ni 1.7583923827968153 3.5300796606546463 3.330202957888437 1.0616203223694878 0.6153367202739145 -0.21145215196984227
Ni 3.010466248224976 8.694787815851383 12.900866919075618 -0.8951136247620841 0.7968728014106147 -0.34983252365467493
Ni 7.7083544124584 4.193739491425211 3.8480041823398734 -0.628784361138388 -1.0093875903170164 0.9293064685937092
Ni 6.186548640802702 4.347154857253778 8.452840953105444 0.004221494280515311 0.5687354754756077 -0.24254707360243388
Ni 6.643061870103914 5.784676878546867 6.200656308148223 -1.1541949485741154 0.4231657851311873 0.14250390693490297
Ni 1.58915370133892 0.8966468904480672 11.374766510156435 0.3424524291405199 -3.235872168049008 2.641114043257393
P 2.5017940011636384 8.735242544944377 1.5461236609688929 -0.72378276629316 -0.37619687258081663 -0.08718970774363048
Ni 2.1444224409100974 2.813911430372698 10.8458503488867 0.26276879996594743 2.5022253644775745 -3.432488540557598
P 2.586068557269634 5.598833369647621 4.791603383028667 1.1699727802336626 -3.5787125766565655 0.5501646544519557
Ni 2.71590984914492 4.556609217132754 12.291344710088092 0.7363634311716478 0.7201325711350823 1.0153882879851417
P 2.0972834872601473 4.3340714300948395 1.1512183869480046 0.8379263769178149 -0.49315301295360225 0.581112766094038
P 0.966886413835778 8.172921810551761 8.492014002826718 -0.6791008500047531 0.4953052834099147 -0.533813723897758
P 3.8326534515004043 6.334052099629725 11.650912329796535 0.26028177187803564 0.5399072383900055 -0.519211400603551
Ni 9.017965935764732 0.7016376271322738 2.4926962842460205 -0.36087026952607526 -0.2786687590256555 0.0987792123534428
Ni 0.46604215685393435 1.0262353402665223 9.569910951570655 -0.2440866501754119 -0.7237220882585537 -0.8751878323724347
Ni 3.3554991161051535 9.134438778526105 5.6423369142331685 0.8401352116436757 -1.1118712481052397 1.2348643387007248
Ni 5.97454747184219 5.518300875982727 11.867874719624906 -0.8666137175501784 0.6036747105549539 0.5413820231633193
Ni 7.816258208057349 8.982448522472406 8.951264362321336 0.7999408988129773 -0.5056213206239422 -0.9138446255126842
Ni 8.508824781616179 2.576662832755513 11.2579893375012 1.2606543031806352 -1.4976323673357241 -1.4196459233579162
Ni 1.953393371281658 1.5376382815416374 6.843026837733599 -0.27053764527808893 0.16262176073070056 -1.8548107898325086
Ni 3.237720688904869 2.206722723713308 12.644946625130695 0.8705642175574941 -0.17670420696569566 1.3930301205426008
Ni 7.972937534983191 4.1963230775331954 12.484933460757325 -1.221875896860857 1.1254407592595586 2.0583339167632615
Ni 8.863548395965452 1.0600793988554564 7.001385035916801 -0.5994231343674515 -2.7125416030707603 -0.28685103772613174
Ni 6.0907720696750385 0.6093723426047505 6.539052761605826 0.44923420008346504 -1.1471534683463016 -1.0178107813837054
Ni 5.232855985205207 6.557619643408189 9.590041776422726 0.1629647458924161 0.6374322666213732 0.7469514911001395
Ni 4.644681001219523 1.8177229207143355 9.964259973066515 -0.9050547951351962 0.7409060562370079 1.4709731128769827
Ni 3.8520993042348777 7.588029176176578 7.695025498647919 0.8196329779252659 0.06362374749823237 -0.728687659793945
Ni 1.0246355396160267 8.07305379523174 6.159411792412254 1.5833364916727635 1.0417989167681863 0.5806849345279999
Ni 8.189747300151803 3.1612060853794386 6.45951048937805 -1.0134129094263256 0.6848063850299625 -1.9381479565992685
Ni 3.8658539121264957 2.026469322834184 4.9144763478176845 -0.1949091600094966 0.5583744439562578 -0.6061571106571754
Ni 5.216738453364294 2.6587583500444545 0.8949487112518227 -1.4338952341880788 -1.0792082106545802 -1.3122879681965272
Ni 5.978234368743619 5.3434628922480965 2.616282723348133 -0.5019361584628711 1.3225235298816063 1.6549016055052594
Ni 8.093244382751788 7.770029485811991 6.011764903182082 -2.0119123920759288 0.3490856181863214 0.6442603452868001
Ni 4.0079511480656365 5.398223884629432 8.217011948709159 -0.37899037616555376 -1.3502150822596037 -1.4060357887736494
Ni 4.751545845821313 6.926989708540446 4.74461245691017 -0.40431574230421985 0.0741668131214013 0.011249861882206431
Ni 7.133842093798213 0.8118004515808023 10.912178635511644 -1.1400371690164948 0.8047717445427172 0.1439522093456553
Ni 0.30345276177786956 2.8182511194935826 8.22596071866966 0.781783254067344 2.174315351927604 1.0424794877749788
Ni 8.865322887491576 8.587205819233855 11.781375153418793 0.1393789881526761 0.6482586678129157 1.0321354255364934
P 4.817238809314367 2.4968015198232982 2.850322525407715 -2.5584484486363617 -0.038255701047088954 3.0834756845907414
Ni 2.423992201712521 7.432067001266475 4.172956793779346 0.12912542874546795 3.50865567193848 0.36180280864267367
P 5.613884367721536 3.964333594698099 6.470275125019431 -0.5426786304875557 -1.1843773856947668 -0.2822117391819075
Ni 6.17736357844727 2.3688542448100933 5.074153921824714 1.136286700835127 0.08108616594905389 -0.27996459501894366
P 6.040185269795572 7.812258706431109 7.140769966155389 -0.2902513216569324 -1.2506869075552784 0.13775739338885307
P 9.220368300822269 2.720249538265805 4.360194151980979 -0.23534592786830436 -1.2622715270690843 0.06887625414642332
P 2.576708804038573 2.3443515509389954 8.672804348291987 0.241921524203293 1.6873478989594228 1.1606795278571946
Ni 5.847813838701774 0.04038577216840355 4.019469712749205 -0.17173323611366553 -0.7316878800728496 -0.16916367561427642
