# total energy = -340855.81114547886 ev
CRYSTAL
PRIMVEC
9.42754827568958 0.00000000000000 0.00000000000000
0.00000000000000 9.42754827568958 0.00000000000000
0.00000000000000 0.00000000000000 13.79816985265197
PRIMCOORD
 96 1
Ni 2.9774365199818695 4.6361853235245185 0.27283701270294847 0.5357721331757095 -0.5563437866794742 -0.10960432799340479
Ni 7.455239035618123 6.864103487819442 10.410250246961672 -4.082751640395053 3.278331879875115 -1.7013699242701277
Ni 8.167169757075873 8.149417684025064 12.51251145104824 0.16584849519811434 -0.3797210836839912 -1.3087110494785463
Ni 5.972907939457206 4.71812014396243 6.42097855950196 -0.01123752058703226 -0.9492232621222942 0.034595478586682354
Ni 1.9524169265021396 5.74280034571097 3.9967779012478437 0.586707486572996 0.918760831867379 1.0474090638661122
Ni 8.320885928660287 5.620100807338008 13.408150202824627 -0.2772327979100774 0.3583541879724409 3.9104972416705945
Ni 2.5725987499617586 9.1856654872783 6.884100260070143 0.8376728661461121 -0.37616113424687475 -1.5957952862614064
Ni 2.834411187929913 0.9197713893735515 12.526157826906472 1.7665077944200416 -0.9127606484198861 0.7668721412834664
Ni 4.576263827873459 8.397946706736398 12.215933043993804 -0.4727623651123923 1.2999731553849159 0.2511083329088837
Ni 0.527223371041723 3.751673906757092 4.8482212503397415 0.49229349316678445 0.2252111534271476 -1.6650021842743714
Ni 6.88340167875678 6.7099442214748635 7.275636702492067 -0.01640543794121691 0.992965183094935 -0.5284182639137995
Ni 7.611378087061305 7.193238046688196 4.321710601933516 0.37257958754320347 -0.20276825104259916 1.8162085040792788
Ni 6.594202213591279 3.127004570407305 12.978847945514634 0.5382887289499761 -0.2465130002287174 -0.6944210253015911
Ni 4.748203449913111 4.83269313588303 10.353552972756907 1.4635626793455245 2.1038761241694344 -0.43598864792746844
Ni 0.0658438813603106 6.839063920096154 9.685652671892095 2.7515388102695644 3.078294397500118 1.0345229519320636
Ni 0.2794296970812975 0.759459705146362 7.350147328810215 -0.5247215317885028 -0.8922694704450698 0.020008067690810705
Ni 1.119587328356348 7.84402169124337 4.830559681750582 -0.2607713099199444 0.5911092151851174 2.630438822931734
Ni 5.071106399495311 7.073065091202976 5.082652317639403 0.6550229831199429 -0.4920836911488235 0.2739451282977411
Ni 1.4738651579773656 8.857087153746772 8.81425686002551 -0.4338764866804721 -1.645249427127476 0.966591835307729
Ni 6.133157401867011 6.813119307756362 12.852994892306038 0.7142244331807636 0.22335610249627982 -0.11805760096708054
Ni 0.7585442902269601 1.8320271374108812 12.230034770424712 0.7263849798026975 1.103991588246847 0.21695739805878764
Ni 9.127290109513769 4.5946098364538495 2.447174650191195 -1.7881161167184367 0.3564705977964828 0.4837312054190701
Ni 0.9844811366988051 8.503506962684309 0.27154355310519435 -0.5675116303708354 0.5357507930194709 -0.08279980620605094
Ni 8.280649153418196 4.759111123051606 5.952282349748995 -1.6017435334250414 0.5776654309753858 1.137538313854041
P 8.536522236090542 5.703732586431864 11.449956074853802 2.1321736855625475 -1.7707825105359956 0.31998304439341024
P 2.202699473157952 1.9605057627621474 0.47387287640840814 -0.17297122228582468 -0.12946352881117704 1.0122266024277082
P 2.0883810250357437 4.229066086866969 8.227020546116268 -1.2105262761759927 -0.973320155170498 -0.2413589668316037
P 3.018229520561186 9.188588027185762 4.634460082224307 -0.6790280877852886 -1.3447147212666648 -0.5835640558480079
P 0.5229121533008121 7.1940205331795495 7.474524027988137 -0.4661302045078553 1.9615331682924282 0.34903008235803756
P 1.5470889239814223 7.481494757044839 11.053989627585052 2.1497219788589557 -0.09168399606955824 0.3307461964471852
P 0.9004354882438592 5.95446765539593 1.1622969494620745 0.39544029419146093 0.21945882432440267 -0.8501092921372522
P 6.440278635948916 8.74011956461167 11.054762686528315 -0.1841794322968183 0.2071311559969852 1.2923503487323356
Ni 3.58906755732514 1.7574646595782453 4.67135667717861 0.5723265352609755 0.7569463975293221 0.45804897016161766
Ni 4.3057780456638035 0.8548080410047149 2.5716475103596204 0.7782634138395436 0.8887154345452242 1.8827681942773833
Ni 6.134071874031604 9.301030393238342 4.256734997752164 0.31323389859503475 0.6918491508093568 -0.8542847636711804
Ni 3.3937853262181448 2.509113641133213 7.448003392460133 0.3939259144294635 -0.0549547589693247 0.07743699923224083
Ni 8.755250779293853 5.501332556517987 8.273589805409463 -2.467256304601557 -1.4345279826760713 -3.454429563605064
Ni 7.386116253032601 4.416052075656007 10.230417881662252 -1.1043206894514919 -1.3830478125189083 -1.0430932100995778
Ni 9.407514548898934 3.0544690154137153 7.328924975307997 -0.35413577901571913 1.9444258191881802 -0.5924199635767411
Ni 4.998174887482001 1.2529588511655907 10.374347315575905 -0.15508251493086195 -0.6181849883559869 0.11658358752471536
Ni 1.0435541530218924 7.5702079845584445 2.6746924964774963 -0.41999098694763154 -0.2852950060929216 -2.486206877562131
Ni 3.325963545268849 6.14651623750854 11.760221396223251 0.6448247024307024 0.9727511700409055 0.5428776338722393
Ni 0.8431442785095149 2.3052806239098693 9.15613463564561 0.18028189701462502 -0.9220762693938572 1.7720282100176385
Ni 1.6198601676772268 1.8672390295217542 6.093092208000133 0.8237331161365685 0.8584676914042765 -1.9968398140135222
Ni 5.419077199445064 9.015347403509885 6.44483496994013 -1.2349859518802537 -1.1291590886514102 1.5935178030811394
Ni 0.4642756324542263 4.552167014959029 9.856184761002122 1.5812590403184443 -1.5608930750675827 1.4654881785030116
Ni 4.425272217686646 3.0626709822507863 11.839243104301788 -0.8997446957761923 0.22291284431127414 0.21668768933716878
Ni 2.5489544593555817 6.003396629975698 9.36212750413605 -0.6519255751415417 0.8981979201143628 0.7750893869869361
Ni 7.365733894065076 1.6890772257436337 2.8251891603896575 2.8081861264499635 0.5498877466414852 -0.7189339228412909
Ni 3.771264351685176 9.135737192601143 0.8313532441151188 -0.376887470889938 -0.2756896217926736 -1.8161714801937558
Ni 3.2193945416754595 3.283878970601396 9.739796966074469 -0.5970533485836944 -0.9453923184119785 0.8961171263259341
Ni 7.733926784664849 9.523237701686343 6.323038590674054 -0.6551242845844976 -0.5745788216302621 0.03146618892908129
Ni 4.032605412248901 5.189412700458992 7.705449932908462 0.42758011214879915 -0.042565898386668626 0.04569158849984389
Ni 1.9405853536509627 0.5060462697703296 2.6238732985059667 1.6625179843999365 -1.312926116001158 -0.8569247723971888
Ni 7.1053450158582985 1.5495683691287208 8.68578200569348 0.9104541117738966 -0.07132934367260618 -0.005493676124719571
Ni 1.8118239018570388 3.9765303562179843 2.6949343849785015 0.22332782036150572 -1.2424971726556342 -1.3201817691223072
P 3.8167711263087867 0.5560914660437858 8.502363401101164 0.3204450716314933 0.024869252437853945 0.9216566653579353
P 0.5592091561966815 1.568904270258413 3.595057821380628 -2.4091673708786248 1.134263756867827 1.3161266252163268
P 2.532512815489086 3.836851803737477 4.9212413813050855 2.6326209181847173 -1.0290706705682406 0.3737008456318403
P 9.256711489673894 5.7776351358983 4.397048966973842 -0.15649430767672404 1.3159361064720756 -0.9455332148652167
P 8.06930238036825 1.8754881340992682 10.613372427059133 1.2547963017379615 0.911668700907288 0.9075953021688626
P 5.775466799837925 6.82174551425742 9.087557708094417 -1.4134482791876366 -2.398100828651818 -0.5250066671290894
P 5.944842128797482 2.6028423242299463 3.783748310864083 -3.9696562685292536 -0.4840808754490051 2.240679638285451
P 8.126725575775835 8.806536640895766 0.6614094340058198 0.9436439682623039 0.4154182799752846 1.29165537954784
Ni 9.428396567915154 1.3247213472159165 1.4301251058655566 -0.010878594585716748 0.6617281630542603 -0.7392350962924882
Ni 3.865643535600022 3.2557754497493177 2.8939178714650757 1.8999470200495152 -0.8348608506186138 -1.3342714144461536
Ni 8.353750361297102 9.034655021995311 8.719960638533843 0.5819663723435848 -1.7172032917579587 0.6085400090670552
Ni 8.736669082011247 3.6721808212741243 12.086368365102732 0.45280469104354276 -1.3740587216464206 -0.38373560416002295
Ni 0.5247571244617486 9.352815914888952 11.109417011062282 -1.7887686627007713 -1.4883699681971916 0.01162755693659933
Ni 5.414749954872403 1.82956654735976 6.177812868898222 1.50898918710944 1.5254817854478244 0.023294965972198593
Ni 0.7236576485251432 3.7205158603243116 0.49037202831824456 -0.2862509422482877 -0.6422718541018616 -1.3478589233226013
Ni 6.278662179066266 0.21802336260628488 1.5080437908177298 -0.48785859732388237 -1.24305664470353 -1.084190751470836
Ni 4.514070293133049 2.544702635167629 0.30894829290147285 -2.048961474409426 -0.08103165856203463 2.0334302115430463
Ni 5.969947689357389 8.920779668633267 8.949216924687681 0.04369949777047958 0.5490400539292093 -1.1025628262201204
Ni 4.035056574751934 7.914520895849825 9.86337326641967 -1.2414358212706555 0.14367041643917836 0.2628328204346635
Ni 2.314510193488596 0.92797524172024 10.32075453295671 2.7148023740804796 0.944378018214851 -0.7971957319676721
Ni 1.2597655408855508 5.422659667718727 6.5840723131700924 0.6946771071764553 -0.336866193301994 -0.5634621428918103
Ni 1.118031782921731 5.509487385614615 12.23182883282597 -0.3701318973336593 1.2072872004134045 1.146202417286942
Ni 5.562083676400843 3.195787961261637 8.821307723240967 -0.6773954372778721 0.7376669804744199 -0.94829509388107
Ni 6.82627073733994 4.436613558037216 3.9324509123749865 1.0151100946230907 1.3803563817296742 -0.28944630925713377
Ni 3.4658495038073056 7.505129620102927 3.161671550238658 1.0781208911276723 0.316301738887081 -0.5495110800283568
Ni 8.120041444181025 1.2805721395170628 13.011093930996836 -1.0889408645613117 -1.0201864807047334 0.05552220143702051
Ni 8.380703721282373 8.959621166758247 2.908102560319164 0.43953137097340433 -0.03813408786756013 -0.4498636061373478
Ni 8.683525993435882 2.072024229102045 5.300594603332126 -1.9620612728817561 -1.8788218080351256 -0.1906493562918781
Ni 7.6013471758950475 6.364669700278447 2.0306900872624434 -0.7377477131136843 0.8281600415596705 -0.5829449342067702
Ni 4.4827802610270275 4.750711177704675 4.540770994829545 -0.31696405506142833 0.6034793067146962 0.21418652018186982
Ni 5.9599167781911335 4.356187145293479 1.0194422560305219 -0.2512993658737672 1.7539171022392246 1.8816891022805915
Ni 2.858800254835088 6.962838198951214 0.4963754909410569 -0.11364815904547525 0.0701054985678341 0.5500566681191817
P 7.278642204822708 2.9955656949562224 7.128990249219284 -1.3412889834145674 0.6411086870316959 -0.790432959322542
P 5.945737745865898 7.4601319330761005 3.042593133086522 -0.7507320411884941 0.4172100817683847 -0.7572477308198249
P 7.982465234924273 3.307438413274775 1.0013715318543177 0.03850535516404981 -0.9968434351034188 -0.41707946972779136
P 4.14237978219241 5.380188563579641 2.2039127985969533 -0.32572740307635517 0.04839716035646504 -0.33309001408901345
P 3.803252022349753 7.168085348387846 6.874744361347029 0.14074938613764149 0.5080679823922217 -0.33102104737512666
P 5.335511413187827 4.92971203326268 12.767833022157404 -1.3932342661336068 -0.739306830070688 -0.6148165861043863
P 1.9585542603078097 3.63758171978901 12.010644413345581 1.2474707146108257 -1.1036997680380412 -0.7236341565304376
P 5.620147945078451 1.1106971505088103 13.195299735854551 0.19702980589692518 -1.7327587229940546 -0.7460953137474312
