# total energy = -381170.61599534214 ev
CRYSTAL
PRIMVEC
9.22139189781387 0.00000000000000 0.00000000000000

0.00000000000000 9.22139189781387 0.00000000000000

0.00000000000000 0.00000000000000 13.49643915502181

PRIMCOORD
 96 1
Ni 3.3390014068918807 2.225675115419034 3.201787097489183 1.6256817894081939 0.5826410298131063 0.06536464144873905
Ni 8.61601661322046 8.390581248840906 10.869991257814625 0.26962541787646466 -0.7139230998902608 0.4017950327648951
Ni 7.149741552097863 3.7731445309966545 1.171401694644033 -1.4213819322124166 -1.5038837475620745 -2.5400696890188574
Ni 6.1019332490864535 7.716396075807259 0.5281035733136346 -0.799032785176411 1.0022095845113386 1.7890841370586608
Ni 1.8347618758895194 4.037051541802826 8.61692307603056 0.2724526029126147 -0.24221874372873767 -2.479722555389368
Ni 4.081249672512982 8.469387262829848 4.736184268106503 0.7355931286645266 -0.11194120365669755 -0.9700941920340325
Ni 8.457648431118178 3.275954751422375 11.359911814263759 1.213496157437594 -1.258314085083233 0.13851895414522594
Ni 4.995098817413304 5.72792282065473 11.529791981840392 -0.16197589961658557 0.7011642575626956 -0.04741885560359576
Ni 2.8519090512958245 3.392347158228884 1.1960596962127708 -0.5374731750272164 -0.341384907107954 -0.8103428108725915
Ni 6.683775405026107 9.19645711761245 11.85494839886186 -0.15468039439643685 -0.15867151783370093 1.1409244567174543
Ni 1.4065481066870265 4.317317301592893 10.822281621121904 -1.7013095033458376 -0.09981382426554423 1.637289034629819
Ni 4.792338855373886 3.599671709189964 4.84601749895346 -0.6692121301361313 -1.616822796355667 -0.9329780039080254
Ni 4.642279147248208 8.24993658170314 12.201550084562559 -0.013110055019396775 -1.022393515658381 -0.7138328541692996
Ni 5.75102240701587 7.53069568852557 7.116955815831039 0.05031520331478431 0.15692985255224584 -0.021791899064110856
Ni 8.686099190603558 0.6022509401849528 3.058468226740746 0.5483422565312364 -0.1537116027252643 -0.14396840729557142
Ni 1.1487179930513114 0.3562269744207615 6.489047275210463 0.31300635596526094 0.5749488033751711 0.33748814315670905
Ni 7.553915152979601 6.287200230955379 6.076271960094125 0.5633346161750105 -0.006632160604536965 0.5896598843331006
Ni 1.1203161064276346 2.412177763783925 3.4916366497363893 -1.6089351660774742 2.148769385137699 0.6360356433841626
Ni 4.280606940992614 8.133083105308584 9.369281675578348 0.5493244179388476 1.0895124207940656 0.27252665068365967
Ni 7.384140109269045 7.712624526577037 2.7111242190032923 1.361654434444797 -0.08052900789400325 -0.820336945970826
Ni 7.515176086191918 2.625136585110935 6.812813106354384 0.5845570158888965 0.36825216381244325 0.4184712078689954
Ni 4.9255787449276225 6.045867187179974 9.064924107673663 0.4716200239778329 -1.8509554206421606 -1.1125176234399872
Ni 4.301843806218045 6.880541462420917 2.186287784790557 0.7379788552878839 -0.8595269859067262 0.8104883353115202
Ni 1.0021900779700699 2.9742676985716576 6.396111322626242 -1.1057039429522637 1.1809233657078952 -1.2704085543539216
P 5.081918220842497 0.6705583996540715 0.24865667311193795 1.3588190218785305 -0.04011692262554381 0.0648679043179786
Ni 3.0654488203037733 6.993881588554557 0.0827878109513134 0.5065566879540179 -2.564581301006977 1.0483976530316266
P 7.733870613194228 9.140142078128427 7.109546427551128 0.5532790317112214 -0.6816079326973229 -0.3535148576022686
Ni 9.254680985190987 2.5448459270484824 1.245526008035949 -0.02273883635841245 -0.683267836898249 -1.6871419535962042
P 3.226094686171005 4.984835408383384 9.94559376287897 1.0318744585656228 3.2154097864295976 0.21863581420247508
P 1.483657384591957 1.8318571374848251 8.039127266795603 -0.1269099091513879 -0.561212427625685 1.9681118499512107
P 1.7159534644416456 1.3856985399155546 1.5941997404653294 1.6287887104682917 -1.0756585456301089 0.11624034525268366
Ni 7.556690791899642 0.6734981793474574 1.1956539549752894 -1.6575994640523968 0.008376139878837188 -1.4909660110591418
Ni 4.5781720317261945 3.208140636412466 7.7689552424270545 -1.096767816804898 1.9090132440168415 1.776924361767675
Ni 1.0847307556221903 6.336516234092854 9.601946611098475 -0.49708937189353103 0.277347983331703 -0.8071165906258099
Ni 8.053963563999769 5.601368440127671 10.357625833819377 0.17771670739061007 -0.9169942268852594 -0.056353953309696496
Ni 4.823230517773015 4.366015471482386 2.1904447881963858 -1.4811369407838622 -1.070712514478743 3.138114969202176
Ni 7.206324011942955 4.008852525797889 4.7801822946154475 -0.1829154779827301 0.3445730750279485 2.2108823524183605
Ni 9.092107848445721 9.12486223198056 8.824106539697697 0.21976941358628604 2.2104951442822705 -1.4955194347577794
Ni 5.435079082502749 2.097414777416203 1.95845485855316 0.2433253465293551 -0.16776988059054332 -0.4873155803362188
Ni 2.139906950650587 7.196991963480889 3.6424598890998734 1.141283125608454 -0.8762972633865296 1.1503074405942513
Ni 2.9846509856944694 4.332265177637367 6.266423513178818 0.6955230001165182 -1.3466183660472806 -0.31471639667783213
Ni 3.4078483177790146 6.417480053753854 7.005407406116547 -0.22883897998772199 0.5769488645243355 0.938259564021939
Ni 0.050752695973828636 8.378353683365907 4.687043471412486 0.33325173647785833 -0.5991490547704584 0.6628908159037938
Ni 2.0141824953820127 0.4954644571758086 3.949152313398426 -1.0356874045538098 -1.7847669977405454 1.696673547235723
Ni 6.816369797156577 5.222940965042461 2.9113307776641073 -0.06285035966731757 1.3080484761938829 0.4116495569614717
Ni 3.058873967978227 1.8497927444598419 5.739036442005007 0.44010446986805496 0.17129049214929212 0.32077057329171205
Ni 5.354004606140617 5.110292443290891 6.356094170940493 -0.8168024504550062 1.881619939605553 -0.7290481284571573
Ni 5.607509887040454 -0.05098046435032372 2.952292199866176 1.600365422130592 0.188931602269823 0.3602994846242698
Ni 6.646059912723886 2.2666734231881467 12.668432837975352 -0.3541206095070676 0.09494106955427521 0.42358127540205115
Ni 2.132382294973665 4.915997718888012 3.24312659675345 1.397433134706303 -0.7891746614354087 0.28927635933817275
Ni 3.1170148430309164 0.33711932855293014 11.038386781317744 -2.061860441859281 0.0009073423056177923 0.2263468096934876
Ni 8.853329130188097 3.059759221587277 8.989478368842406 -0.10669718164893882 -0.18727915426806455 -0.36619862371752415
Ni 0.8850175414205858 1.2949323808126811 10.56300190470137 -0.008552774666017528 0.32552402881629744 -1.317496766090976
Ni 5.146643169612493 5.2263159944269635 0.34614891536523673 0.9408759185988634 1.3023154303648474 -2.2127384317904926
Ni 5.0757030027956285 1.0783218883483412 10.43667437041163 0.9044958373079326 1.2584372409246585 0.3567973850082823
Ni 1.5745618645712443 2.518076226766491 12.442232098079641 1.704601029612916 -1.8591461839830692 -0.07637590495757814
P 6.3339711299668355 7.18860049697844 10.326219617759985 -0.30293020267618154 0.8002538020677057 0.4953500206049211
Ni 9.284005010990759 4.774818211028112 2.187961467395166 0.5718462531904474 -1.3115091810489736 0.4680328208472068
P 7.294102440115285 4.711780776950367 12.21747635027287 -1.4611669254198385 0.1457015879365942 2.1653596853962127
Ni 7.44894805056489 1.221004483065273 10.164518824675305 1.1741423382303198 1.6928035227573555 -0.1772071147440432
P 9.050196622892276 5.154730330186832 8.222799870029062 -0.08127977001709873 0.8826849120804281 -0.5253758775430499
P 0.12797355271906619 4.172071159966421 4.334826880268555 0.23782549975704848 -0.26633260605780584 0.6661381191964978
P 4.1584511643355215 5.546538044717158 4.17828176731741 0.2896381135529657 0.702138705660823 -0.817327726830857
Ni 8.619354757037918 1.4487175312097778 5.276027595270983 0.33507824816363585 0.2744236105960564 -0.864119490373415
Ni 7.788479695202479 2.7893142440226044 2.995939813488205 -0.262955976276089 -1.356619700234367 1.5298986835685975
Ni 6.054692059095188 0.5118481039174602 8.359234971827963 -0.08774712290899726 -0.8750057982686157 0.39461317030447524
Ni 5.414847348979259 1.6867862023018112 6.580432189700495 -0.6598962520518441 -1.601423173971145 -2.1232686697634335
Ni 0.969057617373034 8.153941893471817 2.1164034673303185 -0.905192349154325 1.1152473636663245 -1.4117683203820524
Ni 6.869051608286793 9.10441840644657 5.144640283322019 -0.5806080585434775 -0.341740747785476 -0.22358698756016332
Ni 6.0717147482858715 3.880684401712667 10.461777765202422 -0.4278112543229987 -0.6239900250735383 0.37072453661233573
Ni 3.6226975244170156 8.790946414925378 6.851669284817432 0.32044584296244166 1.232067235571562 1.9676634495598821
Ni 0.4325524340260124 7.423026718324904 7.094902857434765 -0.57147550011459 -1.0205127536959007 0.052007760525858815
Ni 3.4242992806805206 1.1321932590157175 8.633685721973585 -0.0017686618646485669 0.4684241427483546 0.09712136503504565
Ni 8.83688738867835 8.045313898528013 0.11938935912881271 0.2021496436219938 1.229188114251554 1.0152515052969613
Ni 8.850590376835099 1.0991253481610082 12.563160507493354 -0.21422071585391494 -0.3198832855907523 0.34799547044593615
Ni 3.50011756373892 8.997754567947844 2.5189347383394343 -0.9130326711343502 0.49835743997267723 -1.964727249749694
Ni 3.0358204885758924 -0.08420882742167335 0.16223840022434483 -1.6492811739946887 2.739320928047134 0.17313448733656633
Ni 0.3633514216952592 6.472347334731411 12.143920074613424 0.9156428550636876 -0.8742239257972686 -0.19523646144192827
Ni 2.569789791761809 6.806078723951375 11.391683197436882 1.1542926504942443 0.21341776033664536 -1.3235547993595977
Ni 0.8130252138037978 4.300368383536296 13.270103752618542 -1.6054567206105705 2.604635488715385 1.2832666412635125
Ni 6.827518459795545 4.716382251439073 7.901193688835552 1.7060434184863973 0.9841720102833372 1.1426386111950837
Ni 1.2279942980200613 5.64242207624735 5.644602013259635 -0.06617711004770539 -0.16326016564564785 0.31102917763423205
Ni 7.322661090398898 6.913434166832168 12.367893848398872 -1.4965764152673837 -1.3030595076197236 -1.6727887701983255
Ni 8.824798144079766 6.26282809253123 4.056529887619447 -0.9564210654223141 -0.24285354909925919 -0.9309509461756676
Ni 5.996385198990802 7.0181246274940525 4.433094641568948 -1.07601310075605 -1.2876557714701438 0.10673960485110004
Ni 7.89935770973595 7.21655053540583 8.7147454441089 -1.4757538220950779 -0.4320898270936946 -0.9368027769707544
Ni 7.888753109210876 5.764319653935137 0.9095427549479658 -0.33805712828630163 3.1757937146998727 -2.378461714264652
Ni 4.157067955571382 2.3079299299265656 12.524384555138626 0.25110370492319334 -0.334294833030392 1.030233323417774
P 1.291483580294092 8.611839322752756 11.879281807440615 0.0005206483901603937 0.09993543744507306 0.6149631389845797
Ni 3.04300395275766 4.584682334309413 12.563646474839155 0.7779980759932988 0.26870342028282757 0.07897786135679946
P 2.194101070029596 7.709627574254733 5.698723283643733 -0.8221251482195003 0.07989214564095272 0.23927071684400725
Ni 1.997915960315725 8.289754551326853 8.699089365177185 1.1368793401138033 0.45867503378139074 0.35120806384596287
P 6.015086181481976 1.8642611081327476 4.546964075589665 0.9904267329437976 -0.1792845660983622 -1.8948310389791883
P 1.4369879208898697 6.181403203282182 1.2470438491197986 -0.30584609077139585 -0.36222652644365355 -0.05151822248394998
P 6.555146211352838 2.7887701819087094 8.722870412389458 -0.29934222821460704 -2.0462980686446497 0.4588640098637452
Ni 3.4768980992848886 3.076809574953244 10.467649025336607 0.23544080157495584 -2.3780261693891305 -0.2276454739002531
