# total energy = -381160.5628863102 ev
CRYSTAL
PRIMVEC
9.38615853935706 0.00000000000000 0.00000000000000

0.00000000000000 9.38615853935706 0.00000000000000

0.00000000000000 0.00000000000000 13.73759178979965

PRIMCOORD
 96 1
Ni 0.3586939240507051 5.097885490114179 6.9507816956359285 1.9071898176548574 -0.679064854560495 0.18085525301959177
Ni 1.4324498061281965 6.468405422504005 0.6228936360866081 0.6704028080101229 -0.13820656511112972 0.08022896015508119
Ni 2.154799177609131 0.8939827884565461 6.080739243032229 1.383072752219573 0.25414969083836875 0.3385888324200556
Ni 1.9873594962482977 5.216948910600875 12.204888530479824 0.34156282744671496 -0.7795345672424833 -1.448751582474621
Ni 8.864156674792993 3.574924957635709 3.488592949046625 0.5255072609145917 0.43813269085366485 0.5914115769168846
Ni 6.812004526465889 0.6800468937677703 8.783362499714919 -0.8555533459709589 -0.3927468065196978 0.7678959545622904
Ni 3.2876521907917344 3.8190401677277865 5.016473705807249 -0.720859679109094 0.8065121242725917 0.38289073966122444
Ni 4.392562610139974 2.3850416454482057 11.822997654328937 -1.296062250366284 -1.1454601398042787 2.08160497147606
Ni 5.975397447646794 5.149828491215746 7.0531405698522125 0.7451314071722651 0.5882329220785869 0.5921008896744255
Ni 8.633904820795426 0.4614338763018149 5.440526267293903 -0.09523803196940372 2.453141205356414 0.39402464479085686
Ni 7.295710818256302 7.41721463995124 2.3412843131685896 0.7318660575219267 1.063262228848285 0.0791282708917347
Ni 7.81481231372471 2.7885619852309063 9.012313432145323 1.5364112878761345 0.5126126643401108 -1.7705187153516475
Ni 8.682008883073259 8.161490077672374 9.088337561477136 -2.6431020202216997 0.47444232391797647 -0.8262381419466093
Ni 3.9496861077951353 6.3454936770350825 12.423068846039243 0.1878003168788572 -0.8048226523853108 -0.8848888617102825
Ni 3.8677355579906934 6.303687727106211 6.121814011214479 -1.1772443741944112 -0.9129074584103956 1.4052760277894896
Ni 7.041054952176322 6.133657466001244 11.16893727896554 0.2170882672096971 -0.49050529091811007 0.5071254159732944
Ni 0.3693978991963912 6.749107878402716 10.314142640834103 1.0363160392767443 -1.1934281830431253 1.0803271547503717
Ni 2.298238451702761 7.011253898960299 3.5805791795120343 -0.20391933392790687 -0.46097694244169 0.3973755635409608
Ni 1.4413948151722504 3.0413124611367603 7.178455171895404 -0.024002790672500596 -0.7909885747156957 0.35237945844624474
Ni 3.2168617834357494 0.2539443952661935 11.64727938117707 -0.18083854084904338 -0.062287802295628206 -0.5832712071979373
Ni 4.494543222168981 6.324797197557498 4.128325353470098 1.0920315876714934 -0.9758290376352807 -2.811268364919713
Ni 5.276757512519774 4.1563880901331745 2.821907251893976 -1.0265517608011288 0.7996812173936872 0.03542003137050674
Ni 3.4034680004397706 4.277413217744956 0.5154577887413323 0.2927926000215474 0.6742288666244324 0.43966352567589445
Ni 2.73688179656715 -0.005621370321598926 2.269518683945158 0.7610280237978635 -0.01794887116893683 1.3584025031664024
P 1.7290711868314346 5.628466257419812 5.2844804437280075 1.1230396060172336 0.0880029476735452 0.10379517751079544
Ni 2.862909746655827 7.568228543948911 10.226593247488445 0.13386577164393074 -0.4608620141303804 -1.5784377688195657
P 1.529671635801133 8.762513964469742 0.726832200777304 -1.1227518995734858 -0.09868793819121714 -1.7069818711402667
Ni 4.317923877801763 0.5984830536932496 -0.019302634941339443 0.7710725525180592 1.2851044658031996 0.6062452994956075
P 0.8358101939630185 -0.12203977134490132 4.346230654585663 1.707772485362362 0.37065203150318743 -3.496298693035023
P 4.930746165825129 0.8895637850379305 2.163656895379198 0.3280421672524608 0.5404448560610305 0.4488598474631818
P 3.6841235255460147 5.971962113638271 2.1418828849065896 -1.7038340695399044 -0.47621921331274114 0.4667657812093252
Ni 0.8912861451214393 4.056951127055834 0.13938539224040108 -0.3906323312798563 -0.8778874906917847 -0.5047836552139953
Ni 7.622461767722829 7.014801866870742 13.846393428880315 -2.8234199126805826 -3.918025945947471 -2.372781633160739
Ni 4.4720070556267215 8.689677374562233 8.704962733668467 1.3923940296204986 1.9988776703791575 2.089210037516828
Ni 8.379793351908052 7.697138044695012 4.69493207430447 2.0138134657533833 -0.3463831316534938 -0.9915690740783568
Ni 8.911200101161091 5.4410152861514005 1.6250885071958203 -0.343342287944641 -0.7391633625142884 -0.21888752520196494
Ni 1.8339333495178651 5.333036918845216 8.701981689731015 0.37244820417166175 2.291012839322364 1.2896105812036693
Ni 4.384678237005655 6.422178591924819 8.525412092003812 -1.3122100637707401 -1.3050091751469266 1.142979025253638
Ni 5.745727535475808 2.905410272313199 0.9433643069053089 -1.024620348106371 -0.833929597053596 -0.05652544589055426
Ni 8.35269551233808 6.655199362677892 7.264960824416613 -1.211421277186436 2.380638667311313 0.03732341904080669
Ni 6.498957368399488 0.6999981122609922 12.182661168551993 -1.3308297357544565 -1.0951909592360816 -0.8064874416822433
Ni 8.258984105941614 1.4129078241452797 10.73028173209511 0.8901951044145443 -1.213548350831768 0.39092260882676544
Ni 5.672900331726791 3.793631836686597 5.1513499875074995 0.14703239093287582 0.7822236840388722 0.5417574042248671
Ni 6.925567658075549 2.5932266408281763 3.638139796471803 -0.580442993720523 -0.35626568087452837 -0.4206728435060045
Ni 5.358163665131608 4.337709899905504 12.339860550996706 0.14230207533674205 1.482420692592292 0.9185389456645598
Ni 3.008742491165232 8.285762816122816 7.073746942208262 0.4038197765044077 -0.49867857075752187 0.300727795708224
Ni 2.4033071098760423 0.9209304494906261 8.850004225016892 2.2591913239363928 -0.16360803590336984 -0.24525701633442926
Ni 8.930347864487292 3.4569691038512147 11.558562349714855 0.3409622177482386 -0.33609923322898244 1.2837278971706472
Ni 1.4246311361033313 3.7525110763277305 2.313368939193857 0.5882308651960579 1.195705409113076 0.04651536995271989
Ni -0.2935943445891695 5.703255168293916 12.454748069569762 0.1456481089908395 1.3706427539863362 -0.17273005280929607
Ni 6.65304993238294 -0.1373683067802047 0.7413610355089838 -0.9580858547192469 2.0392542744239908 0.4629366372712221
Ni 5.234275759179388 6.0441322862927604 0.899502788266418 2.0568383060543414 -0.5350856486316462 -1.7237387788836314
Ni 9.463688162389937 4.394270890985743 9.717848439301475 -0.23334226717471424 0.22780385385498833 -1.3313601543366298
Ni 2.379231613340893 2.2380450172856396 13.563495550510037 0.5361755392617152 -1.0085455540316952 1.0102100862183117
Ni 6.6357794007553865 6.930523549759977 8.954945231434666 -0.0011562250916302668 0.6260080839448315 -0.16844968026638732
Ni 4.550353320569761 1.7623826633239283 4.6899724281566435 -1.4045841439287874 1.1247982405795531 -0.7973733951961172
P 3.6387414492312193 5.249744148376241 10.308689282749533 -0.440704565345899 -0.09042801217527008 0.6842669675867248
Ni 7.934016526588803 1.9756549566072326 1.419505354950175 0.26202780803486486 0.3442673708620716 -0.3896807659998644
P 5.448787025383799 7.597438269179861 7.08304768665921 0.280854968043697 -0.3238078174561391 -1.0073739023210972
Ni 7.262511975665728 5.527367944289169 3.2468252171937064 -0.9234880621397192 -1.9316852316930604 1.3837780058167135
P 8.839546167223729 3.3906840525719835 5.890940793524658 0.8328114242887527 -1.4027794866198808 -0.7470499643512166
P 8.120885556030636 4.214188054134521 -0.1825645371568338 0.6357101417239439 1.9526296951552116 2.136228315247895
P 0.8552601915927017 2.1995899259388527 9.5207006276937 -1.5470602829495486 0.5934993126838488 0.2705353312852437
Ni 3.552876871335098 7.849691278685573 0.4830051457509695 -1.2715879193740036 -0.7676175040899231 0.24870692255624266
Ni 0.3517275172170255 0.4231130070214811 7.944463320991775 -1.060854904958373 1.0404408600783952 -1.1865070304432597
Ni 8.207397778862791 0.14059432945432987 2.9570989085195993 0.9248988264443168 0.7223730304298269 0.1586262664180623
Ni 5.24086484244164 8.090371154769127 2.1804027407469797 -2.140061572951056 0.35570980837105837 1.4227988671646012
Ni 5.582314516108572 2.8475446052024003 8.049088952484176 0.669705267722466 -0.028701481699750567 -0.3962365648405111
Ni 8.120613357434332 5.332257867690277 5.450128307432483 -1.502287092498916 -0.38032914958163533 -1.680837094424099
Ni 1.0339698334563636 8.224405498052533 6.087937487980692 -1.3453739521172186 -2.4827801112687693 0.6159725540857004
Ni 7.204092525203828 2.0935920380747404 6.384531648824299 -0.45254089585919477 0.25252012565474574 -0.0626259023613373
Ni 7.139083991479676 2.743987118546529 12.758664372653945 -1.5858296904082623 -1.6544202949934668 -0.2336986220728685
Ni 0.8973796392152481 1.4925118343264123 1.9223012158841324 -0.3908069091845076 -0.2935492756819138 -0.2960843833989417
Ni 6.295165095194352 0.47660754012198 4.187919012359501 -0.12244698828402784 -1.9770140375368466 0.14022642375463593
Ni 1.817601433739635 7.569814804734268 12.181301114186324 -1.3063456345701632 1.1700910509790818 1.7875039370557344
Ni 0.7923804386148163 9.219985943271562 10.382776108968342 1.4185470338667827 1.0632108067850592 1.2881972457959106
Ni 7.048207204948168 9.025157451427468 6.708918224966379 0.6328166222262327 -1.2377758559205652 0.8155909466454081
Ni 4.905347220942433 0.3259578190738466 6.442133564881438 -0.8579120760111226 1.006369629426299 0.2528721096775258
Ni 0.11252783832785615 0.8608590351339168 13.069972275551548 1.225811227359521 1.5279914392435556 0.5881012815967291
Ni 8.477324924811265 8.618070371417337 11.977628045194052 -0.9627616629283613 -1.955462793728632 -0.9251461665684325
Ni 3.8008497925678952 8.701325597252339 4.354665056607685 0.5502644132546137 0.46008348409314315 0.9426934314235764
Ni 3.7396708115089843 2.9307059694524695 9.627359301115735 -0.9633414466912311 0.5789838926764932 0.49664842770137047
Ni 1.4679951883420808 2.309999308294785 4.389366623173027 -0.8212473736002373 -0.09967164226072513 -0.8089824401899551
Ni 3.2366853501734636 2.35764344880645 2.360462112201969 1.1922349340659726 -0.06266549735002111 0.23876060997680817
Ni 6.091232029611818 2.997873319630065 10.524644140130205 1.0123577286889338 -0.02907120633434348 -0.5643705136386925
Ni 0.37282854012566896 7.6315381829857865 2.502837934538315 0.39049914813610165 0.33054770728313393 1.18779875267149
Ni 8.695271525024202 8.539939988119642 0.7510297173728661 3.675690731245528 3.1906330937055505 0.24025699201667652
Ni 3.545255310638591 4.38582334834183 7.788692511869733 1.1943252409360978 -0.2927208662433475 -1.8994510542497032
P 4.787691724229721 1.03303121760704 10.100055628993585 -0.20198457879903925 0.029572571450794227 0.16034350621948515
Ni 1.8221255621333745 2.8147962982195005 11.469543083949157 0.11002007537458472 -0.3667758363772328 -1.0592513079166788
P 6.8038854993692395 4.70153617542031 9.213706603239588 0.1611688303342579 0.2882057519818133 -0.06765060926943832
Ni 6.381930744305825 7.193617572325377 5.09219560083558 -1.9267991072453527 -0.4269113682165486 0.8095370271418445
P 1.422031170200705 7.821288763085042 8.48536698540827 -0.1620671737788112 -0.35056940182069946 0.5685956074636336
P 6.502383316249519 8.21963732953797 10.861090991320241 0.5849956460882119 -0.014204059414523925 0.16738447222666658
P 3.635221639796256 2.31279638352577 7.3524548394271605 -1.0008204174732955 -1.1872649916552067 -1.2129428560372852
Ni 5.460407089598426 7.97838489778633 12.922801064841007 1.114582733499132 -0.3110124654636837 -1.355088094081189
