# total energy = -340893.4685790588 ev
CRYSTAL
PRIMVEC
9.04043000627454 0.00000000000000 0.00000000000000

0.00000000000000 9.04043000627454 0.00000000000000

0.00000000000000 0.00000000000000 13.23158313485461

PRIMCOORD
 96 1
Ni 6.361235349358934 1.8885548860948391 11.255261329711244 0.932853048294387 0.31946085334135305 1.8799230115191041
Ni 4.560137583948446 0.2554165591853158 5.800659976550693 0.9175971505765811 -0.34495668361961235 0.9832641537570872
Ni 2.631271420085205 1.390436228601866 4.868891776617905 0.13253342598575238 0.8068245133066879 -0.6262250850516442
Ni 3.169629031905865 4.248685726940326 4.576142761378628 0.2051346943922467 -0.7224658472539494 0.5894886488625589
Ni 5.102364499847346 4.469245099830144 2.8978492942588296 0.6325764811909687 0.3848990283405048 -0.04547073073828943
Ni 7.096267517773355 6.089968204097966 2.74988005477143 0.9023263404604396 -0.10875946349460623 -0.9990936645901762
Ni 5.024083415703684 4.604589378697769 11.241063334255925 -1.2462324713283506 0.36528459654368706 1.1795797071958072
Ni 5.574907780617555 7.743725039912264 12.25309428060796 -0.11771358736410051 1.398014975351702 0.6221884530884253
Ni 1.968047387870474 6.313031776122532 0.36213160404599476 0.013754373471615022 0.8936866625075706 -0.7617469042417591
Ni 2.6651639924901698 1.8820096147101513 0.3532050833757728 1.0459103678333987 -0.5154930712116993 0.0877715483890295
Ni 0.7151893284113112 8.968603872287904 4.605901145103734 -1.18655948094775 -0.5546473728136577 -0.006626504177582137
Ni 8.591165916057635 2.4839847330695513 1.5416121086419574 0.9282510307460013 -0.36288550018389115 -0.5027128887278955
Ni 6.944912637217495 0.7392070390296814 4.790058322195783 -1.5422160674833696 0.30266152239582716 -0.9313422680768153
Ni 0.592371469475486 7.500202974595503 2.1560069698581037 0.7236349278613861 -0.07645818025873928 0.6702793950583811
Ni 7.671826499411681 3.6012372452315065 3.7235922341467567 0.03474485968035306 0.5059136550533803 0.024712158034699377
Ni 7.529973110879726 3.6990275775079815 12.83413266692344 -0.050602652648216076 -0.017456247803234452 -1.3121326735655854
Ni 7.946456684665888 8.98111582753156 6.671946795142737 0.4861416146327756 -0.03269903289491788 1.7198867521273928
Ni 7.1354216204903205 0.5083479041390699 0.4228444203970276 -0.6862372039392182 0.32792261095546105 -0.36518458063071296
Ni 1.8499432091832348 6.042487865268711 9.304343748774066 0.5300997653812806 0.7438972776548478 -0.7414485590040393
Ni 0.06810698412111038 4.888395600492664 1.2587298188021943 -0.5246780801450771 0.7263764951622651 0.41181462178442624
Ni 6.348949404867511 1.973399322483368 7.0476571251829325 0.1681707155733878 0.053026688708676425 0.06657845925118211
Ni 3.5221606032399815 4.434900505920711 0.9972019288764793 0.04568618918320519 0.9939931101388173 -1.839251759051987
Ni 6.210938199123528 5.688103005766278 4.901402067262209 -1.3179770481615043 -0.530870324998718 0.8145617340499456
Ni 5.334604108412602 2.7581267350989336 9.326916798664158 0.1815273393859519 0.20136828537127902 -0.9164545523317056
P 0.23931374511016953 5.650087997240571 12.400878191278528 0.009663748342009162 -0.5300162045285388 0.033899738071238396
P 4.073690121700821 6.1494994362363204 12.593225093988517 -0.3970004395897292 -0.5424747420068656 -0.29931266052825223
P 2.3981096876508365 8.361529951358111 1.2904987941791712 0.9666828523596386 0.05157658652571118 0.6241782298249443
P 6.236323726814417 7.804756983445451 5.872771871201385 0.18974124265531195 -0.15153310701670678 0.02294503883194758
P 4.8243079915892775 1.1487493705932426 12.622507047047915 -0.08140344007915658 -0.616161530168055 0.46316597967320877
P 3.845374059794343 5.985704923877518 8.207432204313143 0.09330199128895544 0.7309222055514186 0.32390809047942926
P 4.429684177759158 0.8840112239428005 3.6977510687793655 1.1921567725298694 0.936604287806703 -0.9378530726121396
P 0.20742272392698635 5.726389227194666 3.3769378464137256 -1.0354552339383458 -0.3204399294251707 1.2835831440626668
Ni 1.520618421888474 1.1561263615461506 2.4404731430495206 0.24151760389665505 -0.5299416425368615 0.002405009897066826
Ni 1.7108742731187978 6.571768885279665 4.731971750785706 0.4246791364519202 -0.9991476577565631 0.3715804568547278
Ni 6.258762074296178 5.760950791426243 9.305229710922822 -0.1131881886899212 0.0415539121823865 0.42869494247953266
Ni 8.634523818766146 2.357283105367342 10.309758908386717 0.10056818593306552 0.5163430779168204 -0.10437444705303314
Ni 2.280846268961907 4.944437226616531 6.867297832771418 0.28885084176498 1.3093918775956546 -0.07615581852697206
Ni 0.8247087146857058 0.2467522109876849 9.167462596791252 -0.5736251994677412 0.496793437919667 0.3909670889114557
Ni 1.5056022675100673 1.2597748925205228 11.432855154558426 0.24888021490931328 -0.18995927220338898 -1.0797244881693662
Ni 4.007713062908761 6.749783994169013 1.5625705377180925 1.1852888417654426 0.7505543779600493 0.589860430379681
Ni 5.455203445804501 7.965468709143787 8.294972496954315 -0.5740782278447596 0.03401826592697367 -2.0342223684270384
Ni 5.101849195332254 2.7497372159760185 4.8495344077105935 0.0006180931999731291 -0.4422991635265286 -0.5739501869073277
Ni 0.7549111701378876 7.43274328526879 6.7713418037600706 -0.10949351344715337 -0.5318530006269614 1.199818145729869
Ni 5.30344174589462 4.64158281862338 7.4047251843358834 0.34451008300049696 -0.7928084015332539 -0.9226753364304368
Ni 8.462791808788896 7.5155445844571265 9.237550339144939 -0.4028553557086095 -0.6197268789218101 0.14403191354365516
Ni 4.802104695289839 0.3556939137793702 10.287569172732415 -1.2506149166667622 -0.35818012428842183 0.387574518290139
Ni 8.127563620645793 7.0215574035149855 4.922095611736726 0.9088780255360284 0.6290710391408715 -0.6954070433639443
Ni 7.3425107525470095 6.464196807646516 7.249597732303738 -0.7847765323677129 -0.30360820257981264 -0.6664939598740198
Ni 2.215700929738067 5.4434960888387955 2.597254089745008 -0.5865439644119381 0.16281125103368735 0.8322624937638182
Ni 2.3892048640128296 5.087176577297243 11.522962025301966 0.2218103552757148 0.20364165478648796 0.019194827760895976
Ni 1.1312109362199079 3.288953668655166 3.599559341406924 -0.7097178035596616 0.18348574866390335 0.9490977922880234
Ni 3.7574106750249894 2.611554242060338 2.444535008288664 -0.45880667426324856 -1.1528356063327436 1.2098703877595487
Ni 1.0188203093491366 3.565120727024562 8.262237099600787 -0.22753928733969198 -0.6784138512400574 0.5763785938431621
Ni 3.692337659241864 2.7899490490134373 6.92449753798973 -0.06001057622567729 -0.3173034406787181 -0.25650739243726794
Ni 4.031480353613656 6.744594787297728 6.056015964854411 0.32436266151834464 0.22988773296721055 0.26964572959143884
Ni 1.020547031496202 7.3228206958124105 11.263279287157486 0.19069537903846515 0.5177026772685084 0.13266583779855862
P 0.05012104845835298 5.723414925695271 8.197865621192596 0.43963318665859125 -1.084146785606778 -1.3626088279382662
P 8.530468468437753 1.8574015640069466 8.054395803760665 -0.35217865528934833 -1.1873583226999616 -0.37643984182955814
P 1.8091527886200975 3.2549797323793976 10.46751893366088 -1.4524737685212146 0.1540273341934702 -0.6528856250619659
P 3.9607570690246887 6.088277643671257 3.9168793415860392 0.31002361918785315 0.779843870952786 -0.63643827813922
P 6.877950171545696 4.031995658128749 10.671999901636795 1.2857832370377793 -0.6194733681501072 -1.4196184125540905
P 6.483299236425308 7.8047660238755405 10.143463813065202 -0.062064373430912465 -0.0863363586043997 1.2762069062032537
P 2.517009424185939 8.382793042928258 5.761454343382219 -0.9116041662179398 0.04270628061927484 0.9375707654850304
P 6.939605904755048 4.042618163483732 1.658089009913114 -0.9660040811250589 -0.001658361539029402 0.18323069523030378
Ni 5.186214488926047 3.1018710083862038 0.4249418001777563 1.2004799476835841 -1.0472298579757706 -0.9501000083002927
Ni 1.3302179237767204 0.8848980901345656 7.012275593942252 0.33151212807893227 1.1311568358077293 -0.6235164278712294
Ni 6.980432487038542 0.6883898774544487 9.245410089064617 0.7465236595341014 0.33377984106718644 -1.078518640786723
Ni 2.922599279714437 1.8720018586012432 9.083071989993208 -1.0713465485183162 -1.299361489942846 0.41174803021254897
Ni 6.390860838761728 1.9157937019540439 2.333270819007026 -1.0677315774735483 -0.17142701772715638 1.0722392355359145
Ni 4.175394960205983 6.907729348260007 10.317393551597172 -0.7401815193661575 -0.020957318977957454 -0.06951517328200285
Ni 8.201243125873976 7.274996820639761 0.31652625041727106 -0.2987380189717049 0.011891352120947263 0.17948382659336184
Ni 7.531320134963038 3.8303127032654896 8.402544574587465 -0.0531380174755601 0.15019381937999293 -0.3493470993778241
Ni 3.06117099212396 8.638447365424923 12.365615993715027 1.290207848468036 -0.4062147590991455 0.4144525736279056
Ni 8.900547514575294 4.944636116078496 10.250362378656693 0.5721105625954276 -0.698855406923861 0.6229970650326496
Ni 8.655759789046025 2.190541412799412 5.6131289109493 0.34998293318961016 0.33549013889007384 0.7232135240532512
Ni 3.628051160876512 2.5270623824452936 11.396667216953778 1.1118285677927626 0.38305426182228225 0.25382444628846607
Ni 0.947373790353021 3.351341676701755 12.598425149375911 0.10841596411225846 1.196568785554636 0.0566390886502831
Ni 2.891744291819493 8.126316041293462 8.13002713784514 0.5515869887207792 -0.016499540316919973 -0.43760741447781404
Ni 5.570685899765829 7.907591875711782 3.624620317657605 -0.988890241694613 -0.09457802978790163 0.4642954652919617
Ni 2.871150192075959 8.274099951964029 3.4751829123236946 1.006825228906479 -0.17571510357954898 -0.45791912945197266
Ni 3.448191804248938 4.202127511980184 9.422475048751574 0.4914419437997665 0.6700012016963299 -0.9085370972568418
Ni 7.345674903078282 6.271979183086804 11.50664766516273 -0.19424452984230417 -0.46630529663313885 -0.1767664276621988
Ni 0.8512911953204241 9.182726458954107 0.159538277872738 -1.5182767830589528 -0.8372154668937194 0.3183257112956453
Ni 4.63161122423483 0.1921597658071405 1.5541683619930526 -0.961499508386486 0.6032463647682836 -0.7676624983952457
Ni 6.12442128316847 5.731967172559793 0.37005463697629914 -0.6712965234689857 -0.44438149997685406 0.28928407264765665
Ni 8.1734709246395 8.796826660160207 11.400768860085314 -0.4218136419786671 0.6272118744449456 -0.070895084348665
Ni -0.26268596902016034 4.595341018716367 6.142206521283244 0.5398110791317735 0.8519296331754423 -0.21221242717463454
Ni 7.730797224884497 8.66622860708949 2.7587451005170447 -0.11675379455399247 -0.14659453206450881 -0.3519331149374455
P 8.628430568885927 1.4560426297602629 3.499423017522263 -0.5232045809233441 0.5695546289427933 -0.1758418589654004
P 1.7335295909227035 3.4490144833870686 1.57348685705098 0.3040226644094119 -0.9579935521157564 -0.5492637399042412
P 4.497659171600963 0.9693691567604042 7.998439157679638 1.2293968878282504 0.3258654713161162 0.1102476180043585
P 8.638845144348855 1.6910124482125009 12.486499200611732 -1.5014545692952914 -0.5203794527697231 0.07703307892560282
P 6.148794282689351 7.721847199096042 1.3945423919484479 1.5195502504547376 -0.7576745339445984 -0.08961837178978115
P 1.7117150331171074 3.0836274204658998 5.89003909267204 -0.48205767437138924 0.39730074443896735 0.46710439549566657
P 6.804270666317512 3.7266641722911173 5.729103164307488 -0.17326972736284998 0.1641713646060076 1.121749169340584
P 2.5340054327539128 8.645200566701666 10.238427202852737 0.3632639665692325 -0.16193116242157918 0.12618768627338267
