# total energy = -340856.0802244319 ev
CRYSTAL
PRIMVEC
9.44079565705156 0.00000000000000 0.00000000000000
0.00000000000000 9.44079565705156 0.00000000000000
0.00000000000000 0.00000000000000 13.81755873434694
PRIMCOORD
 96 1
Ni 4.837520264517799 2.37128237163498 3.7563310961524823 -0.23768666018633905 -1.3047199260412818 -0.15831619137681122
Ni 1.1358409894979087 4.554862846923815 10.06835728713012 -0.3154872134055857 0.42281740065283313 -0.07968028674046279
Ni 7.781953331614727 0.7579797577341516 6.826937563012883 0.37577418322110123 -0.5435381502743736 0.7646748765218314
Ni 4.3953322843819596 4.549878106894101 3.8209420124694398 -0.8943623484183566 1.3059409429325766 0.24263500533054988
Ni 2.8076264993496207 7.7992299873995306 12.411622209927636 -1.790868739762909 -1.3840628840469842 -1.9439820467825424
Ni 3.4578990533394673 6.458268833838012 2.584920021408453 0.8257079804747521 -0.18718608033362602 -0.5542455093895486
Ni 6.823542652947191 2.027901757315395 12.031708549219825 -0.3053095015416355 0.609781337673324 -0.6784292778590252
Ni 5.722821422749537 6.758844881311534 10.125313606446904 0.2885302252007676 0.3565739561435666 0.11791670451384209
Ni 6.134289054293164 1.9058511529514996 5.573754093872325 -0.43182346080618533 -0.6420011169389783 0.859544726518539
Ni 7.3126041827942565 8.859166980990437 11.11228741193243 1.7135559248133587 0.8530251802324664 0.9163532508671509
Ni 8.924176298877951 0.5519513891424005 9.117861771418855 2.215016686301708 -1.3116187100436443 -0.4851885066908871
Ni 5.062834290179055 7.925510068152274 7.990362668834308 -0.1468153898260633 0.026132692531309832 0.4744801191344473
Ni 3.0951364858361665 5.223346695454036 5.694533967160464 0.1940470691195174 0.3138789883782014 0.7122241149212831
Ni 5.010881592483007 3.173372358234341 7.855862487430293 0.5182372096157397 -1.0060909218436158 -1.6462938092315906
Ni 4.930814205755732 8.718130936854282 11.605851257158605 -1.835936321525509 -1.4905566914358652 -0.9824095190662758
Ni 0.2842236455692291 9.424510138564939 3.0460254675888754 1.1207078725602633 -1.3019896715943124 1.00000460644022
Ni 7.431737581345308 8.369869431255601 8.772975350215294 -0.10575667211254046 -1.1117668613168916 -0.33983324635011797
Ni 0.05155146388683864 6.409384394682981 0.47234943363381016 -0.013058375845854928 0.11647277297846392 -0.09496420948272677
Ni 0.5659379276916819 0.5163964091690971 5.92735908973013 0.7628794751843055 1.3648351461656238 -1.1735224452581337
Ni 2.137452748422963 3.4711256078501282 7.822091817808535 -0.9242820187959242 0.8920185307765284 0.9406581461611024
Ni 5.901724497679597 6.499978268404819 12.848463867565696 1.927600005880093 -1.2767239550489884 -1.4703935862244288
Ni 1.7941854236495074 0.4400090445319414 12.42747047335165 0.16066309434243298 1.537703524324997 -0.15893634145931337
Ni 6.1294081630140695 4.587877308825156 11.353487464199745 -0.490912810769174 -0.5565530744768028 1.8084352878917629
Ni 3.892827061727485 4.464344499566062 13.329204280249524 0.528647092095154 1.069338774059668 -1.3436191742096408
P 1.0063510382714864 5.365931030053967 6.018624204012788 -1.4248804322839783 -0.10346941874026051 -1.0519262350101755
P 5.380158308888774 2.7904159291333936 10.236972727192038 -0.16709676578291868 -0.22624910777335874 -0.1069424648905255
P 8.935845122129326 8.861234515207308 1.1444934785835763 -1.0696002552511708 -3.4466578900794445 0.09759804756114805
P 9.297673050877057 1.063949331683006 11.35818520404593 -1.7901282620524588 -1.705743113637159 0.2850486944100704
P 8.079036284749247 2.057611940787949 4.264429990147119 0.5208386517943288 -0.5351887498684137 0.9509327886142332
P 0.41485121265470526 2.0571115786258756 7.56496136719626 -1.7434336862093975 0.6207866876448922 -0.5890317638307985
P 2.7174385798347465 1.939922983950053 4.059018105502224 -1.0803405244868105 0.12938973815044813 -0.6898714582576958
P 4.432632867445214 0.5523044748945052 7.271020310807743 -1.6214371551992266 1.897667479986719 1.3576712814273326
Ni 5.053723922511113 8.788143876362529 5.754418821244704 2.2821024242066117 0.948170652488064 -0.2506077391233813
Ni 3.967116681602136 4.62470585211287 9.381155173340595 -0.36972489170322775 0.16470358296039375 0.11606396757581945
Ni -0.07121097645857251 2.6129478551209786 12.816724857137867 0.04608573861446902 -0.18664871977291725 0.16202217947348868
Ni 0.5479447155276079 7.3940310440750885 4.815888569763855 2.081408539194538 -1.4145242858606348 -5.105971251499154
Ni 6.470513545615547 4.449569654591627 9.17799586250458 -0.5651598423092072 0.3114091866814701 -1.1977311812938534
Ni 8.027017501484622 9.102324110167146 4.610490846312226 -0.746316685729618 -0.6780168729119549 2.3429144132876614
Ni 7.534113567864653 0.5273666135526712 2.636113679145432 -1.1762038487450388 -1.93456358168212 -1.2321821638828716
Ni 0.4987062465409205 2.434025898599897 3.0073776830062267 1.4453451278962333 -0.6665330406420715 -1.0644225677049732
Ni 2.4989502493278137 0.4349138471947512 2.437901345157089 1.5640845854216867 0.03966132314536395 1.13937202462867
Ni 0.6693165266942752 2.996206389678272 5.169839098737355 0.1134113604443208 0.8709411412809387 1.928071803310189
Ni 1.0331723383177291 4.5728286807809075 12.840256039948589 -0.12130284737725562 2.027288874531999 -0.3961869425494983
Ni 1.5706934715218395 5.641356798286662 3.611080680900295 -0.7735662654741903 -0.6060311266022723 0.7885704521925064
Ni 8.345266718154402 6.925153935030159 3.137152746257076 -0.5386767084170143 0.218863613942565 -0.42522883830780317
Ni 2.2754299748136133 5.017518471727114 1.3630714966478619 -1.2812575812532836 -0.976871362856866 -0.7404329732553312
Ni 8.657917543086263 4.550170771554937 3.463674932032988 1.6440605490256979 0.4976501294930074 -0.6606395579757718
Ni 1.2411341818300965 1.737106373991083 9.900750124028757 1.7629581293955703 1.7954293625503983 0.8693488570931545
Ni 6.501979717053113 6.159326043987861 5.0843640243414825 -0.7339620208190069 1.1317489608657734 -1.1907753188013106
Ni 7.783407214123394 7.794452944871055 13.15181456483985 1.4440945433185841 -0.06911125297536484 -0.28254212593813277
Ni 4.334363626973078 7.2807981427183 0.07141300948250408 -0.5904021618157639 0.02841917457264138 2.3814454794833244
Ni 9.348511734702829 7.936536917308913 6.5384136350884745 -2.6872200935868364 0.45404421987759863 6.976305590888559
Ni 1.4242478515579826 6.308518935445368 7.95865103671346 0.037249114159445526 -1.152916081861692 0.48187332627472496
Ni 7.326793698447021 3.905270030210747 5.203056537742179 -0.6850159299376074 0.24779572359588295 -1.5921656599286191
Ni 1.992328839830621 7.48786311065714 1.082886623398162 -0.3797799619463847 0.8177689281333335 0.4121172406265097
Ni 2.800272119646691 7.618495398140372 6.562290351014892 0.4167256859327985 0.8928914202997849 -0.5409655044511908
P 0.6299757877211325 6.503660178654039 11.956720310477374 -0.5833979625837888 -0.22403101707611736 0.7280680239320751
P 5.748037787558941 9.269246815593974 9.781961314513852 -0.9678691593582558 0.10397772583524674 -1.5587809138205866
P 7.718530067373031 4.018606780318154 12.753648070091417 -0.23428380515237715 0.5445167121375589 0.36800790901212105
P 2.8181341047531645 2.270492438761454 11.588233788655861 -0.5975505999350871 0.42395948467707634 -0.5257106351746494
P 0.24323548777944817 3.510729745018022 1.1080935474120543 0.8122600824999623 0.36644750650353664 0.051770447704072124
P 0.9972217890125225 8.254805015569714 8.775061766023185 0.7094141562763138 0.49921130333254027 -2.7428428251574632
P 4.658730479133869 4.683229343484449 1.5434624409504272 -0.7946940485917411 1.4686156683883997 0.9616810282696728
P 7.146937103170368 7.601228183151079 6.840700354708558 -0.7622575253295905 0.10712372766339616 -1.2351319905398146
Ni 4.333277935489333 7.220056064401677 4.513699090337533 -0.48899836735528035 -1.3927511558496015 -0.5369733525726623
Ni 7.498011965831272 3.190970001066512 7.243053842266038 0.8646897610545883 -0.8440304329330238 2.248345639471141
Ni 3.2285632487906013 6.834437330966678 9.897005904529166 -1.125687585163042 -0.005420399684622923 -0.6659720259322788
Ni 0.8404781493054618 8.272846375790893 10.779726893347796 -0.8082974983077885 0.42878775930365515 1.7550021077732871
Ni 2.2401025180121206 2.969819366225527 0.061823049402612 -1.2805158179912528 -2.032125890909326 -0.3642762098838307
Ni 3.965389016023656 2.627902075210119 1.538985615719196 -0.018646668566909823 -0.25177733395145024 0.6308407294467845
Ni 4.221111844025267 1.7873691692906946 13.142169848145993 -0.03328961529106525 -0.5090329174086523 -0.34791036693129757
Ni 8.482790786360534 3.0760755196998186 10.238907146192204 2.5753323688758933 1.5180862643147017 2.6508492682672866
Ni 3.551967139809289 1.9541880259669038 9.147762658960728 1.0943232119191475 0.385591169311523 1.7482694170351443
Ni 0.9101266741069934 0.8741402497788455 0.8642085329014617 0.9206300238656339 1.4805291319965341 -0.9418812199349264
Ni 7.178006761196481 1.7582348743443006 9.421198307499742 -5.000810818209716 -1.7261784986733755 -1.4954554142890633
Ni 7.3538132551989905 5.464587343142047 0.9374200139287772 1.2547767613539358 0.32009977247693255 -1.4784308547066087
Ni 3.224994628087511 2.7655771961444233 5.992412779356544 1.0516498414203372 -1.1686826006673292 -1.0942717898559218
Ni 5.851235123287726 0.11854523699072736 13.304139912247845 1.0566416382079737 0.04903865059520587 2.5867002443932035
Ni 8.143016555926081 6.232841518630625 10.611359746207814 0.46621659357407447 0.43942209908904967 0.5992259307549809
Ni 7.863380192895559 5.549620588308013 6.788151942815777 2.2650670659908796 -0.06824504832032763 1.7936326756612917
Ni 6.447704583661403 4.742489216905874 2.80605555097662 -0.3177220162733754 0.07628643056756539 0.8695388616167734
Ni 2.07486971498173 0.8436096611764011 7.8368081298508026 0.9248864851491427 -1.842360222773982 -1.5473022237570255
Ni 6.0463669257008865 3.6232451459159885 0.29740110794323316 0.07720148618266703 -1.7965742747881188 -0.4269805308915872
Ni 2.937390233645857 9.0824795580034 9.695393940077377 0.32822034470153794 0.4454297387357103 0.6151516008463018
Ni 6.787875327507309 7.735183630654119 1.3585946714166304 -0.44210658789974827 0.6472783061775175 0.9029002106860385
Ni 7.702631767732808 2.6429129400723244 2.1656401315796217 -0.5008470391637503 2.52077535956562 -1.615278848907315
Ni 8.122105193869611 0.8767166428737485 13.736739820462894 -1.0768924180372097 -0.042269193081856234 -0.4617431311837532
Ni 4.529939146775247 8.452155404927918 2.0866310580291105 0.6525236137368569 1.3719277913463468 0.48248087795173683
P 8.4599912652019 4.780913254634916 9.046977446484957 2.64218747882723 1.3139967233575176 -1.652806670649444
P 4.188852645764792 5.815964311259298 11.441463405326434 0.2948019171420923 -0.12352685161176791 1.136450737216817
P 6.117323944760218 8.277595095932835 3.6667927033687526 0.7366058861997572 -1.0777048866361763 -0.11803574659020963
P 5.772612178273608 1.4014672119903713 1.8760512819215927 -0.8153906577091441 0.7427402812322692 -1.2599415933843268
P 4.228305730204513 5.90635992827541 7.483478805221915 -0.7757907839293349 0.33758661640778637 1.1543846959874182
P 5.134773151971513 4.104971177651145 5.8757236027632445 0.8379993962475956 -0.11279738100940574 -0.3716264796013148
P 2.426095630370807 8.212481929294704 4.118240215741605 -0.060468489698702305 -0.11847797633395078 -0.5738031198065021
P 3.16830265104503 -0.3093635399349946 0.3178243808717925 0.1681627451535878 1.6007413174127723 -0.16698852233982855
