# total energy = -381169.4513819908 ev
CRYSTAL
PRIMVEC
9.29570220978499 0.00000000000000 0.00000000000000
0.00000000000000 9.29570220978499 0.00000000000000
0.00000000000000 0.00000000000000 13.60519980799685
PRIMCOORD
 96 1
Ni 8.80135656725585 1.2452987183756468 0.11897104204180732 0.7665931765904668 -0.00259372886910521 0.09479683066692705
Ni 8.15343684218213 5.3637780806998885 1.8828370034562205 -0.8216538650100366 -0.027721377174668382 -0.08850431278999596
Ni 0.21856519326546034 3.883130779098514 5.760033406398193 -0.1532161511460845 0.6448303588576573 1.6016897973689705
Ni 2.9869414450196303 6.664256086145127 3.702519007527197 -0.6882894584825566 0.014650402923323156 -1.72198425808637
Ni 5.602631143579464 7.961508482996506 12.609366919355242 -0.41009841042426787 -0.22467636396960014 -0.36920784285749314
Ni 5.734379128019714 0.4464809331723126 7.452262040352733 1.044703492009491 0.7481051450886084 0.5531885288799441
Ni 1.1318353797685992 8.762110113413563 12.433805502680306 -0.4032340792042668 0.23884262816765317 0.6202022758963318
Ni 5.722257532612243 3.5256924458101153 10.895179978137262 0.009968938287253799 -0.2787271230674167 1.6099137279406597
Ni 6.976833361583484 2.643428073326623 0.6807605106680871 1.414860071933499 2.1867391795132534 -0.8503800293001355
Ni 0.7459772967568405 6.671832083274796 7.961300259271716 -0.10767780039465326 -0.7553222316623379 -0.7819223507483695
Ni 1.9154723540363958 8.831205066376548 4.129626768162155 -0.7174390834633192 -0.06204637570878347 0.3894545089216712
Ni 2.0666948341657956 4.642877799227354 4.264359602514475 0.11122232321280201 -0.7340108717790714 1.3793222840382051
Ni 0.9561837947842657 1.749135062455656 5.468460699198119 0.15599525655311844 -0.18503638098047487 -0.7077804773276326
Ni 3.2054276248180935 0.9050899687434958 5.961771519903988 0.9006224703954553 0.009303793899429138 -0.60671401160191
Ni 6.477793599735266 2.3838827777959515 2.9778381640514273 0.28344535447869246 0.0421717482720435 1.4410984368047375
Ni 8.043747558586917 5.536826869124336 6.647065544437278 2.5162900701007564 -1.5081414943971638 -1.7095915408489717
Ni 4.319313004025476 8.055088315026422 4.802322327775394 1.0390848602711331 0.09073603033399212 1.5472541441279095
Ni 1.630847254510819 2.0803223332972007 12.651502477379003 -0.5146073261726364 -0.19643253863255847 -0.6713538590694825
Ni 7.901067828595145 3.803475908663991 11.818659634146554 1.0114827822831483 0.056405375372922215 0.9885487991947943
Ni 4.035905641461846 2.583721779383229 3.7666128728143997 -0.17843147406944754 0.5394783783827032 0.15578751141768654
Ni 5.3566203901602005 3.296441843096121 5.743162636839131 -0.2534907170981312 -1.7269665417923095 0.8981344138662789
Ni 4.6602049877545975 5.681179825476035 11.42538822879012 0.28440257618563924 -0.08014565641265552 0.8887470591141081
Ni 5.607390543003255 0.8699568630360293 5.201880416394155 -0.4273032043383286 -0.4529512439237361 -1.5439937282090828
Ni 1.481372366357343 4.7872214598770535 2.0303179635307833 -0.7873185820632763 0.513295035119116 -0.49259842600171294
P 5.512360581461404 1.9657992846621992 9.47770812646553 -0.1315533214606702 -0.7763332866963661 -0.31356094291715025
Ni 3.1943192609285784 2.877373005550412 10.028637426445682 2.007852105963626 0.1997333208710173 0.11693145778243731
P 9.138716184225125 3.488398089387743 1.2006774896371943 -0.23222229463765814 -0.861849977612948 0.0558585017305167
Ni 2.6625214452337898 2.0444316278767674 1.1037112333688268 -0.78057946356723 0.3007151973027337 0.5910649922107433
P 7.765397057911066 8.665815936399767 13.394454952705177 -0.5032769887614815 -0.407897289007891 -1.0222685600447425
P 3.041953409453229 3.2292339176390543 5.617845419042199 -0.1449240863406214 -0.5208432797800191 0.6688488332594417
P 1.1567106783195134 9.101096478232767 8.825543054288595 0.274600759603869 0.32663911625734715 -0.3424747977380231
Ni 7.400856808294977 5.684516982493889 10.22229385663303 -1.5807988128525743 0.03480399505306264 -0.444153443126448
Ni 4.2559070206862435 1.8522708761411544 12.671502180231132 -0.343992262823814 2.743052112954792 0.5599258476037776
Ni 9.056421334422717 2.0811589464771645 7.617564720300919 -0.22939973758719845 0.7366159135020862 -0.17732435704819782
Ni 3.9352703716142385 0.16732728384369672 0.5598271459341654 -1.0726742661908042 -1.6669497949190453 0.6126460608156288
Ni 6.5972340747280525 7.279566488604271 1.0760435059372342 2.5448858794605784 -0.06341420259058757 0.24263551955118212
Ni 8.449012278663227 0.6295421222205226 9.643202297874907 0.8496747757029948 -0.255015895493406 0.30786106431889554
Ni 3.75240532187822 7.696766890048061 10.425582493232357 -0.3185781936260836 -0.26705431471517876 1.9583203177820856
Ni 4.354924838385922 5.622960843852576 6.8466396185175675 2.3736678924204346 1.9221564662670187 -0.1024944564215009
Ni 2.013737219874107 1.7431021518579193 7.903355500857245 0.7812422939622093 -0.3757561854989722 -0.14405171103799708
Ni 5.6024545252414715 7.328898779116117 9.09824548642949 -0.4229295007506652 -0.5150462134822678 -0.8798430717562589
Ni 6.815590114698522 1.4430368913110163 11.750892107429113 0.18046393111844403 -0.47258573032521195 0.29499937786487906
Ni 7.519209686153812 1.9917993631550643 5.53651360396695 1.1752291435365954 1.2232938602543062 0.21128785847783613
Ni 3.854704522383755 0.41163227594603363 3.174854990511628 0.27432745133782427 -0.05084150813189954 -1.0373156841858522
Ni 3.01123111434457 4.35472033294193 0.1776445834930464 -0.29037190639519667 -0.24029658700536033 -0.44472705624173087
Ni 8.696473161594428 1.174270259396747 2.6351502506959847 -1.35301064272687 1.4277019608931734 0.20662979088053446
Ni 3.062915217462314 7.11142583083561 8.42172753415402 -1.358049490702358 -1.136818404968881 -0.769032639269895
Ni 6.863825512374417 2.9346624169739117 7.667046671614959 -1.2684784272107443 0.03430700081198608 -0.03094939719366283
Ni 1.892586335713395 4.24062488659891 11.73583121104937 0.6854892700296 -1.0150136782545423 -0.9281278749045757
Ni 3.7993207298701726 4.692024175699208 2.4124466109003047 1.4969769931399122 0.05679155506774736 -0.09827784723699204
Ni 3.8663613326912465 0.16124045817436236 8.82059123383341 -0.8009996790947947 1.0102887619750471 0.1659359127055981
Ni 1.1873493121101761 9.46943866996669 1.9007005539888409 1.3624414491224666 -1.5392999222778394 -1.2993928574014137
Ni 9.233978538316968 3.6074109620885486 3.5929291879433807 -1.5666996544470306 -0.6543488398710537 -1.6484455654672707
Ni 6.853721084300857 5.337936029141017 12.959687533622553 -1.2785697500084754 0.509380016335426 1.1346260253032523
Ni 1.0296756147930581 2.5920879111828636 9.78676418998644 -1.108448081356304 -0.3502572698969194 1.070104191470783
Ni 4.596194783785392 5.06863954221277 4.672351681557467 -0.2138823586778897 1.3014800789477456 -1.7068671999392735
P 8.878529485256482 1.9480166067369755 11.601044461625454 1.7565285717201427 -0.6378112472273467 -0.8247613002907667
Ni 6.775943945670253 6.702359168641465 4.07179169903128 -0.9922517019676782 0.6770192848853759 -0.299927925514748
P 6.147043226887702 4.974687882102871 2.9248591696451394 -0.8535106045093172 -0.524152289548594 -0.7154482782855355
Ni 1.5681477445235557 2.1050024221061236 3.169848325414647 1.1788963079755375 -0.21698542308324564 0.3214246619359432
P 4.353679214317976 8.163392539023695 7.1401309586103565 0.3427208523105581 -0.6947408705348551 -1.8742017927646109
P 6.453912941298308 5.14403698113148 7.800690979263126 -1.943655773791375 0.3758160922026302 1.4041298300001883
P 1.3098666644648287 7.168771016471107 2.391766462661807 0.2778071823563087 0.16161054585736684 0.5877762941571426
Ni 4.766845281093943 0.46747713527879614 11.136876596258512 1.6183204639471163 -1.3374115027370321 -2.111112236906558
Ni 7.0481685787283705 4.332401352440905 4.764186710322059 1.3345814894874048 0.1965911756976098 -0.2952084085518916
Ni 7.756315157057462 7.147325831958043 8.192684225594617 0.7241386069706819 0.878625397299074 2.6463341540057517
Ni 2.222342068447002 6.812559715846654 5.979975293129794 0.5002975944181836 -0.17607891467687095 -0.22449381564514886
Ni 1.1954830513598211 8.974581974018289 6.534413720614794 -0.8353866412150966 -0.9434297953689688 0.967471923919837
Ni 4.796080263882667 4.641399782609419 9.18239389921062 0.04484980932483889 0.8910672226068524 -1.075610723111309
Ni 4.794974075344715 6.0435820636322175 0.5254590765012654 -0.8188786162577446 -0.8252521238842562 -1.0587540565652862
Ni 7.093922023970374 8.271566623192975 10.643932955781628 -0.0730661238580548 0.011819618342747387 0.04617341323226887
Ni 6.787526390361747 8.960099270302921 2.880329968356483 -1.459002827888984 0.7802670745331336 0.6160733413296229
Ni 4.8424472254566435 2.5856181025911464 1.3813766408073076 -0.9764985528984794 0.2057497022684263 -0.1913767213762059
Ni 0.2300444556647593 4.853220944074173 10.254674504978416 1.0311535212391982 1.1928771956356616 -0.9389046538051056
Ni 2.3967108465553917 6.879711867091723 0.5950857436186264 1.0805456985190809 0.20998996560201902 0.9623253467218911
Ni 2.845507339095803 4.391549904264323 7.601102961629837 -2.859910808517765 -1.3651187388443133 0.6618757443757182
Ni 0.3596925410233006 5.1193847794285565 13.344347400646564 -0.2535760777230859 -0.9553990519157031 0.004749341759527305
Ni 9.00708904391087 5.909054664294089 4.171530863206127 1.2668234081058247 -1.4935175738364022 1.8267142887066088
Ni 4.750391888554661 7.560538377244007 2.2391710073470676 -1.0987635070786883 0.685880849041064 1.4490014937018982
Ni 8.733721039506802 7.75386109172957 3.1116999911263843 -0.03490992450330762 1.6355689666149187 -1.7284176724165394
Ni 8.06359388235605 3.0536566982707183 9.687922061054554 -1.4670041009269057 -0.01821909411118798 -0.4359408254086685
Ni 4.312945448155754 2.5189586235520562 7.712392965109379 0.08334282319371453 -0.39976334704684696 0.253712346190634
Ni 8.408520200752996 9.388473105550226 4.701304075005403 0.10790148636968513 -0.754122554927282 0.8939319457491572
Ni 0.6270508740846313 7.486377266691245 10.172566498786201 -0.41602531743166415 0.49076625788898054 0.3282200875912218
Ni 2.5334599186714226 0.6697339489561683 10.879452579924148 -1.5468679644330845 -0.25232652158670094 -0.5804712758552971
Ni -0.07104890952329895 7.271860351646608 0.5283351666999399 0.5957382293166966 0.6314282265191384 1.6943243302772562
Ni 6.154758659547365 0.5466263195245415 0.6659143450045351 0.8095048883523285 -0.529962725582784 0.3338880845102766
Ni 1.9648883058662392 6.490128996288727 12.031431745925868 -0.37496428572529616 0.24589336436684744 -1.3676391912733221
P 3.3073457015416454 8.22720753325091 12.427410989274785 -0.04905999075144454 0.5273425143511176 0.9587826236759552
Ni 8.06062855341818 9.320614480953186 7.283366571581705 0.013325513464312535 -0.3919939875140733 -1.1635640484938412
P 8.623539083705612 7.478857043773573 5.844303592875516 0.7002921393703875 0.6918460654855633 0.13898818047216063
Ni 8.342037340051897 6.894371189145084 12.077621159591652 0.573053386124671 0.29141731694057554 -0.8337791875186609
P 5.024828898688683 3.966234354974887 13.11327669948105 0.8027508574579465 -0.03772579668554793 -0.10552450149707633
P 0.6317833159726247 4.119511185246196 7.945803394468192 -0.2908701861878539 0.4465273426752633 0.8862705725491574
P 2.8623790382250665 5.500378421583926 10.094186998666022 -0.11494862302445363 -0.29196907567898744 0.08580645424285867
Ni 6.327956179203806 7.134553537410601 6.435286213631521 -1.4667451908385643 1.110754103781661 -0.6753125866069144
