# total energy = -381162.0211804266 ev
CRYSTAL
PRIMVEC
9.29595799372679 0.00000000000000 0.00000000000000
0.00000000000000 9.29595799372679 0.00000000000000
0.00000000000000 0.00000000000000 13.60557417366273
PRIMCOORD
 96 1
Ni 6.970518421555402 5.839832443337764 0.7251237764904326 -0.2813954139281993 1.1541913490296896 1.2265779303222164
Ni 2.947162674922598 2.564159904364316 8.53092679665767 0.1864548585945563 1.420210794722451 0.15336218980564556
Ni 9.277152398083597 2.930281214974202 12.98452086585084 -0.6574318496717517 0.6503309769609122 1.3054609179723646
Ni 8.56111263186936 4.020241600662149 7.077728706569084 0.03213030487564144 -3.0040519939457746 1.4529270540085493
Ni 3.794396298103632 2.894817134741202 11.20657126757987 1.1931816142499578 1.1971172018589384 -0.3960912975118985
Ni 5.7180368000316655 8.89426117902277 13.568581266637022 -0.7036173470888786 -0.501862110691826 -1.0994037117658486
Ni 6.152743689660968 5.199220081320268 7.612304863083627 0.3000593088862897 -1.9585766567672656 -1.914755031596625
Ni 7.873202434930367 8.38441505989849 1.0459124177256796 -1.2172882774901748 -0.9443127121945543 -0.07348984165903473
Ni 7.863971548515855 6.988292293483449 3.334018620122184 -0.1621263091515208 0.11425776760501612 0.02471087248311873
Ni 0.8057773683430033 7.372726641592421 2.7330879145373506 1.093218151780427 0.2170666699431423 -0.31134979419844444
Ni 4.974257894783281 3.7011578381463597 9.121272194729707 0.33189547956028 0.8884498395886635 0.27835431310903036
Ni 7.935773529045263 2.3020510691743614 3.928174431428168 -0.9436619659844327 0.8654384662951548 1.7266772926866651
Ni 3.1358055530794195 7.97400780479843 1.9632301283752946 0.6524127991906055 -0.07877577264832239 0.9967722155458512
Ni 8.245384710235383 0.9700146380479981 7.828919279227631 0.6553507987730067 1.310294849025898 -2.2952937260859048
Ni 3.468507894243005 2.839878022243946 2.9231846805443538 -1.2596166059447405 -0.16656840408327442 -3.1946828382948915
Ni 0.20859479307270332 0.35622576318969523 9.395084641194458 0.8298011767075193 -1.410385581101913 2.1960596855832306
Ni 6.3612892141556285 5.141213302642962 2.952872252400739 -0.23730819380099777 1.1023792494544047 0.9279214153207245
Ni 7.483478686650341 1.3154617377959728 13.63319375315537 -0.7652438616514241 -0.5586523802079928 -0.8712558443078802
Ni 5.685770529392414 7.729570585997186 4.307660541029138 -0.5812094395729023 0.5442374903342434 -0.2363553429694252
Ni 2.025877449346785 6.19598848684155 0.6933687835478561 0.6901046573144244 -0.1952511167299476 0.9649915807001446
Ni 0.07979929330121738 8.494878930254648 4.988184169644896 -0.49748249356689156 0.9881729039126143 -0.16200649574420486
Ni 6.751347616928024 2.4784604664434693 7.103769474054458 -1.9402197515266324 0.3153244625754763 0.13351713005526036
Ni 2.6630410109012552 8.651580896306466 10.148696810943619 1.488528862372559 -0.4438950472587387 -1.4908467118724584
Ni 4.294732652069759 8.120465625000506 6.037827055364677 0.42445879291099803 1.3563245375914512 2.6203534136712747
P 5.002340984267919 0.5028258115510279 4.003086839544985 -0.3490771335458891 0.5440022343949857 0.3613497802656551
Ni 8.79604938147057 6.14634807047347 6.9284207456069975 0.9915587896657116 -1.576273671288711 -1.7049686973649798
P 7.922136358481223 7.738438930044967 9.220388489007117 0.996568327065161 1.6246947429045762 0.07105474985498085
Ni 3.2066128660898423 5.150936874837908 12.394760183544633 1.184929915764127 1.237368078959185 -1.1663866055443008
P 4.553745933205299 8.61819911069265 8.745431959903936 -2.4818987371050807 -1.0082017975390314 -0.5880364897970646
P 8.384229140736062 4.082124793876063 2.7194684062937418 0.19903372370083144 0.08767950289585545 -0.6403640955561875
P 1.2912271749735793 4.649894028054558 13.014861013967343 -1.1179925305116294 -0.4236830910872381 0.6080972651026817
Ni 0.24274163603990645 7.632827549828161 13.320606006174788 -0.015568800972534476 -0.8837866297850392 0.37941666506969496
Ni 0.37998251376465075 2.8994651138018837 8.933570067534767 -0.7079887366836968 -1.2977329532004878 0.28528369323901187
Ni 1.86346776500845 0.7202182993897893 2.971171345962642 -1.4516929244911319 -1.0190515957693418 -0.6184870929774381
Ni 8.404243338571357 1.2997050887802624 11.496166391743069 1.3904675020217474 -0.10495448792621925 -1.373373522653938
Ni 0.1723926137648668 4.503222400815691 5.067287195682823 0.3076450916533476 1.4380640208537878 -1.2374223292358884
Ni -0.18262932284811187 8.077918024679027 7.511460450191456 0.9746288466795925 3.4172894642196567 -0.2778655463980698
Ni 6.777292636044749 7.24267618747455 7.051292860863551 -0.45344232462754164 1.0286428390022027 -0.8552427567090755
Ni 6.023697199020205 6.604192599866846 12.576652336913723 -1.510439289292405 -0.027457839100636584 -2.05701571217247
Ni 4.2675791583972575 1.1554411146948282 7.235076741710337 -0.21712631953648412 0.22188080350233402 -0.7472453681914744
Ni 3.8046125560790096 0.41854214805206497 12.078824962044553 0.2723587576472277 1.9432006885318276 -0.12992298494609883
Ni 6.396818366095478 6.537884530587164 9.6709645087454 -2.6392253108751125 -1.9099516966707104 0.17509135395262104
Ni 1.2809644372075943 6.4972333057224425 11.55242553029356 1.6274280826753391 -0.940377124585574 1.7425821368423795
Ni 8.228940160318691 6.015721266952076 11.393471153588933 -0.42637555031773666 1.0108916856663686 0.1984300286785615
Ni 6.118701891020536 1.0418909862423777 11.385661619171177 0.8164386393576841 1.47649815646027 2.193952409432241
Ni 7.867736411555007 5.02158361757914 9.044591695378207 2.4724974983958385 -0.746706722079185 0.9889676318997678
Ni 2.6121642321030354 8.169018414268384 4.612806873533567 -0.8930531426886297 -0.5291577131829854 -0.7824859365613234
Ni 7.071639853999591 4.003778458829214 5.393943445684274 -0.9194869114001261 1.5125054277928145 -0.9849297143849683
Ni 6.680856366493728 0.7216573137069763 5.423413492120619 -0.24986109076534388 0.10490409430425802 1.724311620667966
Ni 5.130160408436661 4.1213723290644575 13.191733349950894 2.3308484832620633 -0.5450900681425258 -1.5257774623113722
Ni 1.7384557201923587 5.152545075592904 3.1514320586814306 -0.7132674685841329 0.06662808154219493 0.3579746931458351
Ni 7.087610310052093 2.644876708732112 9.497602326548474 0.12471650104449489 -0.9720842258808676 -0.06231968397482815
Ni 3.0625626990411994 3.5390084406354227 4.899870708300321 -0.4218918035147702 3.5364752652539093 2.6890895426954073
Ni 0.6095564251256463 7.04667091048561 9.595467384862747 0.06810003810203111 -0.35729232236682984 -1.555347205548689
Ni 1.2822751673027066 3.838877457714354 10.923384776945534 0.6772961926958464 1.8927263339313598 -0.15664137477754958
Ni 3.2112701411086446 1.3730594943159389 4.692140439332905 -0.22207620734259173 -2.1779840590284425 1.6083260717385655
P 0.9740676757889125 6.607520552874294 4.966660308210691 0.5624054194925217 -0.71107406047724 -0.004430267857211725
Ni 1.563710299426975 3.3319874532726663 6.692336874773612 0.344878007862877 -0.9790382886011977 0.6928097149504132
P 9.246633767571161 2.1437316064094265 5.839485704099838 -0.7005986148672129 -0.4270257823072259 0.29184386295503284
Ni 2.262515359284204 7.949810425808521 7.948227324140453 0.6662826151941622 -0.2343236572513771 -0.6972767495828314
P 6.187901003275964 4.528405151366463 10.953099307080473 0.01773392694465333 0.18346312295608402 0.023035284552908715
P 1.0190415211800672 4.851188705214555 8.63423370885619 0.617031334367518 1.3791708460620054 -0.47658096752753404
P 5.419850351372701 1.9131453652090142 13.539750782119427 -0.5944771032160858 0.6216919730679809 -0.714889063347956
Ni 1.908450906357726 1.703010231875601 10.407488848275872 -0.061706218760545335 -1.600618932902295 -0.44742722878171337
Ni 6.230011693565738 9.300327221680154 7.796483822150571 0.6328035096001102 0.6000265722794054 0.2848635749824578
Ni 7.126430231166904 0.1832066018474485 3.3327673841590486 0.0038054897890192523 -1.0388138659979334 -1.769895737055668
Ni 9.137768802011879 5.633248366006712 1.2075774958184933 0.12539038718306791 -0.9196890001086031 0.49739096229434987
Ni 2.300703155246764 5.527990232198518 6.619438900781694 -2.598670786491518 0.7013102962222566 1.1902978649442597
Ni 5.58017774109185 8.27073478803234 10.678484619429849 -1.2930280915256507 0.98842024403673 0.6939214599573532
Ni 2.5158581059657132 8.33490478694411 13.425368665415114 -0.32268218849212815 -0.4277837435191729 -0.5384231976453114
Ni 3.21812126224409 3.6145381003714983 0.5572025185819415 -0.18367292497404497 -0.3036827645714899 1.1007080323995688
Ni 8.254336717906256 3.7193221403155032 11.147673006518724 -0.9884063600796591 -0.24152068922044856 -0.14068305167608028
Ni 5.606466710659065 3.169865943636094 2.2815869469659926 0.47030799003462875 -0.6032515069746063 -2.1368914027531907
Ni 7.606371253014761 8.402012308622231 12.248650032176299 0.4970351216168279 0.21877311111128772 -0.963235003020354
Ni 0.686704511170651 0.8255963510577494 0.07553430771513599 0.004498916311618059 -1.146644389920367 0.33719683716853543
Ni 5.59988517230914 7.768390507111999 2.0264417140047515 0.3477594431757301 -0.33829546954935286 -0.4248994799928424
Ni 4.820623594911513 1.4433834175040505 9.66518242279391 -0.6910222840326873 -1.2590365650715543 -1.073103383308423
Ni 8.629549475558836 1.7024524743883194 1.8586031901235405 0.39131084540411964 3.019907215810476 -0.6096070168789888
Ni 1.586215814038795 0.988364859379569 7.556726188667621 -0.5060681783533736 -0.30629140583893055 -0.9987789615632346
Ni 5.101184906972374 0.8559457951323757 1.8041130724035463 0.9940882409557847 -0.3918227520435317 1.5713924319370098
Ni 4.024322526277427 5.905759378334472 5.414433596575382 2.0230604382729482 -0.5445804754959589 -1.9755521082793397
Ni 1.0488629548334 8.916041608901125 11.552833622855086 -1.3932998292642198 0.9474998516732841 1.1488817638913182
Ni 0.9234669869468968 2.7407273329214865 3.785778015329316 0.9361507452090522 -0.6661034093038206 1.0518383032820595
Ni 2.1234013459980052 2.318263220138019 12.558857084281998 0.29515750070929814 -0.9208251705955754 1.5982830856802668
Ni 7.26081260176933 3.6349055446154046 0.5678352354811567 0.7755691548368321 -0.6798292435303454 0.3694646960633056
Ni 4.539160574912881 5.931881020655502 0.9315154274883729 -0.7810769720289387 0.11002033248490085 1.2779380299617475
Ni 3.367721116291186 5.2275448657160615 9.986885786308301 -1.0322902059468029 0.2705854677968888 0.016316477771836417
Ni 3.057738096776212 0.9803424475208327 1.0520756379601433 -0.9003183088914753 1.0555196087883887 -1.3218211044979427
P 3.811919179162401 5.170049364735431 3.1927925651508113 1.5784076869125785 -0.3925357189501562 -0.34719688580404073
Ni 1.234586902140114 3.2670272979205808 1.615103933496743 -0.6915809847496347 -0.03865910713309471 -1.1454495982813175
P 9.059710641666792 9.20952430275068 2.5034665937899363 2.3122298397196115 -1.7046048862676577 2.027075215859296
Ni 4.177770906986768 6.2121355660983575 7.944131524992181 -0.26647504517294107 1.3451155562495092 0.2542607624949363
P 6.702794827660146 6.161268083258258 5.0594507029865134 1.027671476227869 -1.7280186372059076 1.1691844800044122
P 3.7500266899903654 7.598358137114146 11.744930879049809 0.14688249561857286 -1.682864666377089 0.4215830140250998
P 4.770369645307424 3.6257211379914978 6.877413823395079 -0.7817313177834859 -0.5340680060004093 -0.817024336657825
Ni 5.234210067689079 2.872395283752474 4.451785075742752 0.7415974258770776 -1.1056319520637474 1.7026295077088418
