# total energy = -340886.62198154104 ev
CRYSTAL
PRIMVEC
9.10569850240317 0.00000000000000 0.00000000000000
0.00000000000000 9.10569850240317 0.00000000000000
0.00000000000000 0.00000000000000 13.32711017638183
PRIMCOORD
 96 1
Ni 6.563523903570996 2.3722074094385 11.384243563439838 0.8883801626929925 -1.2075250274558236 -0.23766711980231328
Ni 5.150173839800575 0.8193516740748964 5.982912711482389 -0.7410569799925754 -1.630254753490857 -0.620146225847416
Ni 3.0267978471789907 1.5665989657731536 4.498059241421615 1.3558175160480457 -0.1494065475920072 1.41853726367477
Ni 3.6317167008181794 4.059265657718734 4.680414507966933 -0.4913365285701538 1.0172335687239966 0.5170478172933288
Ni 4.164290781646216 2.6026544214340532 2.2384483440279626 -1.0266044684159352 0.48884178717275806 0.4811572740443069
Ni 5.257029209081744 4.869381422031219 2.828305462147085 0.6714667304982629 -1.5493812177732413 -0.6796533800741134
Ni 5.959533831156066 3.0681377173567927 0.3380499591052678 -1.6397920035573308 0.27574284362811224 -1.9948171271565387
Ni 5.709764527416615 8.03517775340936 12.55404442596386 -1.263530596287166 0.44690040974396583 -0.780727816219636
Ni 2.3602152048076266 6.50368125449423 0.30722079644866335 -0.8426446083290908 0.44684975901168844 -0.5295071261026042
Ni 0.4637905466130359 0.36790754375571105 0.4380897132260654 0.35557971055109727 0.11993990559145797 0.2446363520312948
Ni 7.994520810602338 -0.047894151797621756 6.838473194755971 1.0762218743327463 0.8675182316423189 0.3387870644737907
Ni 8.781316881627301 2.8341303773349136 1.0704203609584824 0.37330438152436995 -1.4630631140012866 0.9504607340738211
Ni 7.276409021681154 0.8968402558427547 4.457691859819801 -1.0814450704048988 -0.5568088992413507 0.5207221808211225
Ni 0.9189288587232199 7.39114081997197 1.9149456484901082 0.6732952990665694 0.484318702491424 -0.17329389573256607
Ni 7.947371504923778 4.082375919945884 3.6130864421433375 -0.10012518485837595 -0.9491358446148105 -0.8434637617962764
Ni 7.8660303022149005 4.167696312801831 12.625690791717163 0.44818853242777007 0.7562640267503169 -0.6982583967698104
Ni 8.1854490920755 7.734580441887423 8.873509344972938 0.20569313799887803 0.24859096580366866 1.4705370537808287
Ni 7.020903128027162 0.6904195393210226 0.1701936959264931 0.3228914762894568 0.8524276558577836 0.32106676437589227
Ni 2.463838051200443 6.926677362256259 8.97718136213645 -0.429131515796319 -0.39001809473462506 0.2786091094323137
Ni 0.37006377310771627 5.14297123246343 1.1003744660106625 -0.20144721823833048 0.18827905628748864 0.17956301657072948
Ni 6.703605965865116 2.4132194744783284 6.910826162695573 0.2218052130693922 -0.717400774026216 -0.7593370092486857
Ni 3.8098696876086415 4.535229612358355 0.8064598264542506 0.351596300423317 -0.3900062676600832 -1.3761392583245333
Ni 6.34302031409398 6.021352416758951 4.782726133807855 -0.2350037140375372 -0.7228057470918713 1.3572370221033916
Ni 5.839019914459324 3.342182812702856 9.065086862733253 -1.2730313366887493 -0.34988780237264255 0.5384879894449758
P 0.41895773057615804 6.133279659980436 12.162707009971474 -0.6222349900556445 -0.10240961001717847 1.967685046826437
P 4.209218296945174 6.100335243614073 12.490859985619418 -0.24745119577227062 0.6046501870943457 0.13457950988150372
P 2.5356182707184196 9.013120642666134 0.9894269959237879 -0.7027436862346735 -0.9032100286169734 0.4775572153978743
P 6.545212344335851 8.096604793986332 5.710426511681357 0.07574649890369535 -1.2195819586203576 0.17974350801265174
P 5.026755205353455 1.313214699817714 12.516222087030483 -0.8236112458467235 -0.5471256105153158 -0.35086533579456347
P 4.404089345772298 6.181048153141835 8.294113763604317 0.18445094079065008 0.3586645201240081 -0.940485368028664
P 5.045968228718028 0.9749106917305165 3.411286867497208 -0.30298239607035565 1.0676104785146516 1.3628546254004852
P 0.4603540560832777 6.077416201050741 3.58302033700235 1.4939510618293947 -0.6496056687591134 -0.6541542073617443
Ni 0.8610958372561994 0.3123982964889933 4.485212011722527 -0.47641898802837307 -0.14932838605590412 0.1360452957937528
Ni 2.0759626216929914 6.589028964445011 4.941292763604385 0.16381475259753722 0.7053065618658435 -1.1266167818455306
Ni 6.4907693743373756 5.784012391167672 9.22657095825775 -0.028919768358143742 0.4887528270033776 -0.03807058161947637
Ni 0.38878782047481186 2.341858117081096 9.896391586936431 -2.600069466611258 0.9476767435707806 0.7089007069750048
Ni 2.305471746766009 5.48688435068929 6.98108664117111 -0.47551087439180684 -1.6820578542050775 0.5836095643739626
Ni 0.8089047064416381 0.30984414812228117 8.904161857082968 0.2312650729307114 -0.7162437776036374 -0.34316333916461544
Ni 1.6921210165222724 1.1118694995156089 11.26775163367207 -1.5769480716479165 1.91883974318896 2.165320347517845
Ni 4.237937669310987 6.990972697790503 1.6102343824865994 0.36277622829953654 0.8658408439398959 0.41364704700747473
Ni 5.86726579051473 7.902525940909313 7.910532581404322 0.1024252937464623 -0.046074168650243226 -0.258305107767639
Ni 5.607398267386031 2.811229546168135 4.723061045847492 0.12593803215642183 0.8499781658760265 -0.39461599851795265
Ni 1.1592555533493714 7.731484504473226 7.076561708745623 -0.6134580151939629 0.62391751996439 -0.49600488058010056
Ni 5.557972537138211 4.78023663589891 7.02617259562009 0.7037911536625815 -0.08328728736543077 -0.50705265375383
Ni 0.8133983685413619 7.611207335931687 10.561681220152455 -0.505151322966059 -0.21277524165664002 0.7285840443365452
Ni 4.803683808962311 0.5053425795606932 9.97023788939347 0.287993121750375 0.12963527850235093 1.371541868761838
Ni 8.743227745734405 7.492359762019645 5.059184239197337 -0.9815525703826191 0.3371446437743613 -0.3851126870132077
Ni 7.680246740268272 6.47396936101622 7.094846861455765 -0.026739472877373303 -1.5319825626808197 -1.4795300013080583
Ni 2.5149574413277955 5.435227724363591 2.605289610515431 -0.11350571993034 1.8783664656652619 0.5315760928164909
Ni 2.3955726312174077 5.857550010453118 11.36542572738049 0.5871826264372016 0.1509882902568303 -1.5769377872352712
Ni 1.351431315486488 3.816398473273285 3.7759700834930157 -0.9644287662181389 -0.8305874200542405 0.7082959835114705
Ni 1.8253100652206666 1.4904662224787477 2.598039653547245 -0.9162568344986026 0.39012196730234106 -2.0782584236013304
Ni 1.1793882522399264 3.6797765763244437 8.167332394783482 1.2092039578201432 0.12013556654203181 -1.0301417921452323
Ni 3.699772689740843 3.343639724427184 7.233262580965186 -0.5581543575256517 -0.33452340410143033 -0.32700781245067556
Ni 4.038331657379797 6.6124032919221944 6.124873279331064 2.031579531487553 1.3845094846660992 -0.2370246011223079
Ni 8.109252608893154 7.521024500195795 0.08457918901619632 0.6466422152554154 0.07124732548176117 1.6397264404267178
P 0.482874269062075 5.952832037224158 8.192827439389392 -0.2942128774078417 -0.09768597928926402 -0.49689525360485387
P 8.754564340089331 1.823197543220391 7.726911622798492 -0.2905716811108286 0.6004924561722303 0.6849123144802075
P 2.017440298866398 3.6745681169099718 10.329362987160966 0.30422886688294704 -1.3291711171051108 1.258962260190193
P 4.170528184965994 6.35230812633657 3.7463037185063905 -0.9353753004956085 0.3472403374474665 1.8443991075808814
P 7.4394920778230995 4.00842854423797 10.388015521472923 0.2889472581335282 0.945991385448558 -0.8324483845223791
P 6.434714695743862 8.086297143536713 10.170757202861846 0.2042306945207386 0.4255633388290864 -0.22485299875678053
P 2.6740339902278394 8.681308997450474 5.784952099229863 0.5267550172787638 0.1377537938444273 -0.21202833618828645
P 7.079698621802067 4.370808018569684 1.602238668829523 1.3390752635927003 1.1015914634457868 -0.3476208607153368
Ni 2.959269988756396 1.9979449988552365 13.256383324329539 0.0892350203084334 -0.27084926298123674 0.9696470771942848
Ni 1.5429605730459344 1.328676175492143 6.706721025245694 0.23527033743536255 -1.1118146838356917 0.6171609179668467
Ni 7.006998726758109 1.0583644164396697 8.996198612988067 0.26116417448298895 -0.146354905249877 0.03576610185601583
Ni 2.8681856888910757 1.8630531845790343 9.153392103484418 -0.09063190065596004 0.24919131839182887 -0.41914046602187816
Ni 6.500111820769628 2.4089944304777773 2.359711659692906 1.5679109011463126 -1.637028838989897 1.8595794148657458
Ni 4.417975535644797 7.043567211038737 10.433167947519324 0.7671482777629884 0.2576271078640079 0.2362327013486319
Ni 7.33270044842987 6.665753578127424 11.524951187205593 0.95433332965535 -1.3151364933889156 -1.8064586237813662
Ni 7.965464527400274 3.9464369503678203 8.10076336638946 0.37807326366792304 1.276249329405415 0.3864452897817022
Ni 3.251453635070341 8.722576022042059 12.128895731129136 1.4822070339195894 -0.7486949561538073 1.8109737380429005
Ni 0.3258565185424716 5.029077158414102 10.17145014650073 -1.1489645534131117 0.3336484576956447 0.350786402927512
Ni 8.853042466955616 2.6163129688496265 5.409860159533561 0.03317108743532997 -0.7996359659780486 0.18837778664888202
Ni 4.104557400948774 2.802943360736021 11.084183488116247 -0.2826531975947003 -0.23741823701630083 0.7514828033115897
Ni 1.5048805428513161 3.947684431031776 12.457502170551278 -0.6814922330550651 -0.8317953243194127 0.5816233871818693
Ni 3.7273538498220242 8.773367607031437 8.039032195490035 -1.5529553082777448 0.42527434683375787 -1.5287216325413608
Ni 5.579370928089275 8.014007004915223 3.8119667299218456 -0.1332916443080156 1.0116882134257352 -1.5408335853135462
Ni 2.8041544186068683 8.306773415918897 3.232597555078228 0.8711967089351706 0.2837335751430726 0.030644978579366582
Ni 3.660882252399567 4.597776653823405 9.594119737501345 1.4335085402726215 0.6759797878772681 -1.2977231830084748
Ni 5.666876688531715 4.8871375336714635 11.345794752465 -0.9519573732240056 -0.7001499573655683 0.19875064524277383
Ni 8.19420877381802 8.54416807569984 2.5371489385987913 -1.121688491305978 1.0969989589790978 -0.05743150264459142
Ni 4.660961094167847 0.4346386535790639 1.263828124072484 0.1767175767021344 -0.4633631832856794 -0.44475559548682114
Ni 5.960462612380325 5.874395552265659 0.3592270815882004 1.4721825598040517 -0.5732523895093546 0.5312377356404658
Ni 8.125797662662551 0.12195534873399891 11.08828833689954 0.09110806896143019 0.014652459805852183 -0.04941763120117941
Ni 0.10614057196642039 5.157913683336067 5.476149642990477 0.5151194899223646 -0.7203261752031271 1.7877003693372568
Ni 7.688724145364205 6.292392631673588 2.8680336237298496 -1.8312854530170593 0.049689911025959585 -2.077813879864744
P 8.693902178167631 1.4775634480201694 3.0158181961965247 0.7149543693682526 1.0448425886905166 -0.7379839974942065
P 2.109070940628341 3.5449211848413493 1.7493567041823186 -0.46422887372008437 -1.113632967991353 -1.7975602928504721
P 4.904574945872013 1.6203954311939583 7.941318036709196 -0.31348278138104724 -0.3151681395032701 1.2265802443150617
P 8.771446304694981 1.8007337855709116 12.308931776323291 0.010171284106046998 0.9290167052674322 0.1328890095529582
P 6.251790323056227 7.906104480332193 1.390457427732092 1.5319841053427163 -0.06415519452167016 0.34339242445628604
P 1.7440234967014512 3.2594302267610358 5.987990048841671 2.0753083398340713 2.1217450340300554 -1.0533794225169344
P 7.312103358927185 4.1430836103589685 5.651187570400359 -1.7047028452981028 0.6729353446239895 0.9708220713389926
P 2.623178665350521 8.857322145145828 10.139185015225834 1.1837788328788195 -1.5280793709716716 -2.6834603694340884
