# total energy = -381172.89932269865 ev
CRYSTAL
PRIMVEC
9.22163858892298 0.00000000000000 0.00000000000000

0.00000000000000 9.22163858892298 0.00000000000000

0.00000000000000 0.00000000000000 13.49680021239833

PRIMCOORD
 96 1
Ni 7.693954082292415 3.6768885324610574 3.3816236603833523 1.719758968300277 -0.5837170364861044 -0.2447037149341205
Ni 6.992187403285668 7.381073114460353 8.602347245484452 0.8034062316537582 -0.3413797649016314 -0.3802748993049322
Ni 5.896241792687022 8.73246732920047 10.140820837583437 -2.2069714473997277 -0.17206413709052304 -0.00661107755861442
Ni 4.815493442101558 4.293770030386897 6.367223139339467 1.2486729624490431 -0.7880773146061718 1.332864506796298
Ni 5.725383277199019 7.66212098668228 4.773345943988545 0.3875855740337325 1.2289510585400836 -1.8430341089125548
Ni 3.3079123385002425 3.756249952165815 8.080209782207538 0.9318240928092404 0.348940865078341 -0.8485607167032095
Ni 5.280098025829783 7.446611298267198 1.9884969212563102 0.4685382997287157 -0.12087553003184988 -0.04109214205461955
Ni 7.222175063922045 4.367045168775696 10.114096529623364 0.09266821435969846 -0.10957244631420485 0.5523300375343907
Ni 7.51413213432091 0.8352849364575085 9.147860639833826 -2.0837762680957663 2.345016547232329 -0.22476018193265807
Ni 6.0575466908366415 0.5723179305631574 2.09146389082863 0.7948496003329989 -0.5921296860298318 1.1656620686734507
Ni 2.9978070838137914 6.334500155627833 6.577112239175645 0.5348627339875627 -0.5946002590575115 0.2901772738858874
Ni 8.862271110720824 8.460253786525039 9.572996611391895 2.538326738185822 -0.6999440120023495 1.23446684615199
Ni 1.8526455893010987 0.04668731067641737 3.096759874209086 -0.5593056975212755 2.28253822619245 1.0440242065542795
Ni 0.8095012356099017 4.5010540173870766 3.320388293034122 0.435721767419327 1.1874539677375613 0.7432871548746748
Ni 8.51702219225389 1.3827754500707332 1.3915332400188634 -0.2137247500541029 0.05939119747412352 0.13858451727583876
Ni -0.14679833884941543 6.203257798523706 5.4108396479710965 1.190330260844092 -2.0187628393388586 -1.3119845780234953
Ni 5.139458819239351 8.15681577637107 12.731545151251662 0.9583357659465238 1.2710274188848434 0.3400034533793951
Ni 8.972958435926053 7.072729192700186 12.276419489591124 0.3005308492060695 0.03142196595470718 -0.1265574109079756
Ni 0.4301663752820928 0.3464265216851877 12.56426555361021 -2.92050528227137 2.251236587865691 -1.2604172474691648
Ni 1.3973179737605312 7.998876776221944 7.5266256099676685 -0.5984502289312209 -0.5272810649855628 1.5247238242358774
Ni 0.6215227485111757 7.132918826259675 3.223885691950419 0.6873584620278549 -1.499997782244107 -0.34260952354367447
Ni 1.6671984419315102 1.3118149429096697 8.570791721188877 -0.35225990214924496 0.3965474112127106 -0.6440795967345617
Ni 7.290322971384066 3.4321370288143016 5.694421626413669 -2.384799740667538 -0.8906450474677693 0.6296433667045737
Ni 6.7100329344608385 1.0419990262071939 4.446008213703409 0.6712633562382052 0.3824875906855348 0.433580295596292
P 3.644170159568601 4.651449717359758 10.352342167408892 -0.1568627467597363 -2.3068364366181817 -0.938915452438383
Ni 3.1982486151526968 5.017834630942111 2.532539464287661 0.7089379879708435 1.4122066934710515 0.7997997452494227
P 9.233903136528602 3.8328264370866036 11.131202665248285 -0.524929791144567 0.49483528575203173 -0.21651002610872389
Ni 1.1442393306769416 6.258661401775645 0.877569836982049 0.10221472039755299 -1.6992559632509188 -0.49932186076847546
P 0.06622427370064464 2.0202580880872567 3.6594679354398787 0.2596384818670819 0.14835239529587999 -1.443088984872205
P 4.472328613903423 0.8002076684732001 11.240918029770635 -0.7273193186915087 -0.7990482117953787 1.0172469384604352
P 7.5861070217013 7.307383002345466 3.631921057338316 -1.2153627783326875 -2.690703681260063 0.3088668798755906
Ni 4.375280091828955 0.7371805367911053 7.990200136691359 -1.0917744773553648 0.5836856690275368 1.515989015466041
Ni 2.5785176309743854 6.199320158945048 9.466061570834338 -0.7079995353169741 -0.1309658243883164 -1.5106316078088695
Ni 2.896867030352453 8.603336727280213 9.240124975928417 -0.06927734623958393 0.02251900703812251 -0.17644092600198
Ni 0.1379483325177101 8.44293554968963 0.99764202354372 -1.2815938815467798 -0.2619635304558327 0.504215441415351
Ni 0.6205544764836369 3.3682218533583783 1.405125012794002 -0.6347133250283133 -0.11622671840592887 -1.0546132949240354
Ni 3.4302465929510113 2.409033139601652 10.121250676661122 1.1603676530437306 1.0700859366383375 -0.057557486699494426
Ni 7.580989012412879 -0.16058468819389754 11.566069309601202 -0.08970810329011002 0.17683147657217932 0.8332860499323262
Ni 2.7717201762026424 4.141115029016625 0.53075508432201 0.13399021303693698 -0.8549992732397017 -1.2347674081115445
Ni 3.3900955795423995 6.687071054950631 0.10353041167596393 1.0180069565549112 -0.9636057560962114 1.2162405529519507
Ni 6.77944420637784 6.56207174701454 10.999648616767676 0.5291726255813209 0.24494539863128134 0.020786597728048074
Ni 2.042224030654853 0.7885635057191682 10.89356381126668 1.0168648725306682 -1.514232180675934 0.9091343645212085
Ni 8.063419023086178 2.1848551111305086 12.237589014795308 -0.021839978693226906 1.4405669897812996 1.1364494516652364
Ni 6.063217998426511 2.1128802237501185 10.725555704194983 0.23313143671548883 -0.04755178163703423 0.03670224051704001
Ni 7.780065741274872 7.991527130451005 5.923893797465861 0.21450893651829506 0.33374050318881876 -0.49672581790652515
Ni 1.890371311821685 1.3036537929632708 0.629687587112918 -0.3507478363800927 0.8124117775864783 0.8817785982160751
Ni 5.713035503438309 6.589543007681573 6.783235221906613 -0.8139544394832497 -0.023538192331256237 0.16325836587343498
Ni 6.147365448438819 3.950217893377746 12.3548218589067 -0.07418866749827224 0.17221917461114858 0.2643608270434157
Ni 2.4861721444622495 1.5640728601794411 5.0130218578833246 -2.120622490389838 -0.6667623830440581 1.5421098809228087
Ni 2.2294970624192296 4.2121400876461905 5.375208159521502 0.9287395403466456 -0.16691935966478993 1.1546693171073728
Ni 9.15325990909215 6.159786995306389 9.551915023942783 0.0766129606690487 -1.4026632727569908 0.40733293186398883
Ni 9.41501611387016 0.6430681843696694 5.344287083944925 0.585219846283876 0.7321506786418809 -1.301790153988997
Ni 3.9737422928277613 8.73854438887807 5.911098774244812 -0.06809952388139885 0.4813048553657646 0.33214924744229896
Ni 6.368131470717683 1.2191098125015907 13.439613897911933 -1.1021511926039986 1.4913663318213541 -1.1440933413637393
Ni 1.153968159144118 5.118083061526636 7.46846750333834 -0.8043971348121178 -0.13467721180163256 -0.34406296816074944
Ni 6.33113425762734 9.327502765857359 7.082594501415055 -0.054614087800454326 -1.4991004672408181 -0.02094549190341554
P 7.358793636188602 1.9107511325917887 7.129103834471171 -0.30434225253235975 0.45617180774356275 0.4302743711515106
Ni 8.874729544141823 9.539692664463736 7.385030119479562 -0.020381134759513288 0.06754262293666433 1.3019673029968093
P 2.1191324945565126 7.98787536166143 1.5486229272752634 2.0964111832509573 -0.7445799055441693 -0.7571618559742379
Ni 2.539537765637178 2.79631428570213 2.7372321709093796 -0.8604039891950407 -1.76779231755942 -0.7518545848287116
P 4.9510976341487885 4.740124991805604 14.005224008733837 -0.3553943340131686 0.3216475765800267 0.028182375971486946
P 1.6494006799015097 2.767588882218477 6.987279647351799 -0.31992056658659096 -0.07678393902927422 0.09456311738956617
P 1.3990147552183139 7.456561446054955 10.835487777218734 -0.797673185824723 0.3821284075739032 0.03241312622338289
Ni 7.199849477458505 4.829159910147392 7.6653863688246755 -0.21808688367754056 1.8736011830661345 -0.6549142254562204
Ni 8.606149326979255 9.00433967125667 3.3334535102590466 -0.4356544045165013 2.541915998198977 -0.4942537022169488
Ni 4.1486491075547125 2.131609371254228 13.182284079545532 -0.9315430712337118 -0.3116506132683149 -1.643583352278963
Ni 1.7067500488468836 5.252147239968162 12.081997843772005 0.03180968831142908 0.40594453615689446 -0.9125966120381961
Ni 5.989011474563604 5.045084572288562 2.480468561138127 -1.0830175570983414 0.5651567569854138 -0.5662983267890247
Ni 4.9599227420569285 2.723002260759901 1.7554744194364758 -0.5385941760055369 0.11494219526655045 0.11021445077357793
Ni 3.7734759726176494 0.2185187090111379 1.3698716115170653 0.679846727031842 -0.390191901308328 0.20818916494785436
Ni 1.542687880828368 2.7222184214995124 12.286959822233761 -0.22783779241671728 0.33747477342027044 0.04805571785664627
Ni 8.488084691088014 3.216323026333422 8.495088525420545 1.168524220712594 -1.3121226462632563 0.029093832042162798
Ni 7.251370770961931 3.3889982045778555 0.9861343410373794 -1.0850358730799505 -0.5980401379769958 0.5647425522661306
Ni 2.1949896916854152 8.514735225941227 12.811944927435476 1.549834503260576 -1.2464690128191889 1.158668925185069
Ni 5.065741042209392 1.7662480595295584 6.1094617482979325 0.015249469959902768 1.391188953568804 -0.5119840296171763
Ni 3.9511677221285693 3.1021868083824824 4.464876607946716 -1.0474257760366605 1.6782364235764582 0.9987969592853638
Ni 5.649987161987992 3.0597396070228497 8.395347284945684 0.5661340332970185 -0.49767918295873004 0.08794946872779047
Ni 4.328849142698876 5.565830490337328 4.668327159881678 0.13467772602226483 0.8841650961703804 -1.495477268665934
Ni 5.315084921758188 5.684346986508086 9.017630818621354 -1.1176706283958364 -0.42106339407620386 0.6220730105564836
Ni 4.380121451966649 0.8930999981399369 3.9393916899460253 0.3284609999574343 -0.8526749959818991 -1.5656002507352649
Ni 9.259170425628188 1.6297954767534368 10.44058494701577 -0.08448824965206739 0.5237452839181626 -1.08034386692092
Ni 8.498837121412874 4.580516875113767 13.188560326611654 1.7243648425034044 0.9965464726882902 -2.207551231162598
Ni 3.549989567023319 7.655001881870279 11.181720644498414 -0.4108602282909569 1.6499203502405844 -0.5215860714833146
Ni 9.396941702689434 3.3700016295613784 5.392808578490651 0.6905970235698107 -0.6086325687808614 0.42197330748498296
Ni 4.580562983305555 5.884391987397618 11.673409180082656 1.8642495666479055 -1.8005836530578283 1.5419851824194863
Ni 6.630099773177916 5.42891682564333 4.89779933093387 1.1009718275839169 0.8231489614983243 -0.6728888076567702
Ni 1.7492433583983042 8.018528087561805 5.371632008166459 -0.30834957391953993 -0.02706034655190178 -1.8025456618802054
Ni 8.334267763284696 5.653122519029546 1.7708883879510589 -0.7621233137445713 -0.17052584606912569 1.304292094475244
P 5.699037056411604 3.113354212433431 3.727586333659157 3.7520033870653378 -0.5692723218156841 -0.5244963031515741
Ni 3.5998878521758226 7.774394433685003 3.741947191073312 -0.30479553801969445 -0.5702246584266244 -1.0154001150596834
P 7.161330694039173 8.621272813885575 0.39642532269578806 0.5822849320252681 -1.0479099147619308 0.42762227824064414
Ni 1.4998625922960773 3.8759560396846924 9.40185683593399 -1.0942653620980185 -0.5207782308700386 2.390437912789922
P 2.26168058028695 5.988956144733459 4.348817678398236 -1.293660582903327 2.0904657643007996 -0.9760828055172996
P 8.745912477925723 6.655560716683008 7.436035001234967 -0.12896653457010046 0.25737256865104063 0.7034211719176725
P 4.146712563499635 7.694396720933576 7.790825548910418 0.3281776643890606 -0.06604906911027335 0.8290519572463206
Ni 6.798532997777892 6.5295654718043075 13.562258921575351 -0.38459666660873765 -0.9453686642628945 0.06107655559634642
