# total energy = -340872.41793467884 ev
CRYSTAL
PRIMVEC
9.26428330267392 0.00000000000000 0.00000000000000

0.00000000000000 9.26428330267392 0.00000000000000

0.00000000000000 0.00000000000000 13.55921506156875

PRIMCOORD
 96 1
Ni 8.720219603994748 5.480462725389519 3.349396890533114 1.27452823294925 0.6243209260503957 1.8317022288395033
Ni 6.598958160007843 1.570277467257535 2.835692389244424 -1.2164768373324728 -1.2612999071844342 -0.09598648009965403
Ni 3.549498921816879 2.015861694461901 10.533530717133376 -0.6852686693783617 -1.8868991857266213 -0.09080570722966297
Ni 3.9246468041466214 5.665340760154479 12.855396316551385 0.9112264711635468 -0.48612978755823383 -0.9602291263144948
Ni 3.272357891049501 1.2824269251558058 6.850549224244941 0.5699693478827087 -0.10582146391220486 -0.3914597122771581
Ni 5.89542849674611 0.37738891242643696 7.025422759624119 -0.9412564418667337 -0.09998428840513748 -0.38177565222017473
Ni 0.8142582284610598 1.1502441330117659 6.593086457340274 -0.9089685283673056 0.11956606719180697 -0.3737157580301757
Ni 4.799723198704345 0.2976382572615397 12.14887984839848 -0.3507699478672798 -0.2723559294337503 -0.5563990653974418
Ni 2.20973534817639 5.933977178979875 6.740949975162965 0.8172979020341861 -0.8587636253781404 0.30046605740640514
Ni 1.384769461237612 6.48970446868778 2.349920628115077 0.040301784942840264 -0.37065614526824553 -0.9520293641125217
Ni 6.235853845787664 5.265466506067488 10.866300988998828 -0.761087159170573 1.397544977693819 -0.20032441748779695
Ni 2.027043684237473 0.43375095832256194 8.618454232753884 -0.40442527129889055 0.34407633789718806 -0.22890839977307675
Ni 2.0464986788759982 7.3315313509799465 8.834614972469279 -0.23135120488661445 -0.6869198318285396 -0.5183433961763009
Ni 9.221482172997941 1.8022180604814058 8.95553610200256 -0.19887560085641234 0.9138155720469617 -1.103485595144706
Ni 4.004708739225735 4.4153110332134 7.514584321962151 -0.363444972231787 0.2238898635125628 -0.8089778122042649
Ni 2.8710013516567163 5.043373845843976 3.979032778444462 -1.341978039061792 -1.914165477641742 -0.41467780226483425
Ni 5.079801007233824 3.7250663520048315 9.46654191760639 0.060345333857276716 0.6893443821096321 0.4627728579998482
Ni 4.110284510130801 7.446288026497764 1.1604237273492954 0.6315416121685511 0.7547018244695196 0.1909434904935292
Ni 6.149473669592611 8.048503489108583 2.650772665205238 0.26856612337401486 0.10580860839639841 1.252975446479139
Ni 4.526593602545767 8.196148369848672 4.824422704040427 0.7926937303322606 0.18026621328534115 0.6672717185803089
Ni 8.183372923369374 6.669996683287945 8.19094554842534 0.3256749525718649 -1.3111651674459934 -2.0770433202473066
Ni 1.9840759389358147 7.22756756534493 0.16520718232877935 -0.947313189583775 0.40166467783461796 -1.1830447829262722
Ni 8.657750542638757 7.929661264716676 3.930328589009387 -0.41722190884292665 0.3277963697902419 -0.04655805026519724
Ni 5.126103894473515 7.2950578681742915 7.283088414330018 0.17306686732342452 0.06125653281763644 0.3822407647820514
P 7.919665103185738 4.145229386214858 11.20289463052491 1.4610658810655999 -1.0652368360761526 0.5041447360784156
P 4.354101914367334 1.9509653909176763 8.6937348712935 0.7133854822192359 -1.184928115991914 -3.6611675979286886
P 3.0045367291422918 5.419077585163389 1.2212974791449258 -0.39760979103895394 -0.3402798469692333 1.1424036123661423
P 2.900193107897666 0.11893486722352024 0.8460106325677659 -0.13350170343629267 0.6183775639827672 -0.096538238838066
P 3.8497543390714584 7.532436595613787 11.586932518976143 1.636843462451968 1.0696928149649771 -0.09013284953235445
P 0.3684590698873537 7.558913916888505 12.09846732514848 0.005502160765151814 -0.07936789770636654 -0.2649326403864856
P 3.8255375028880754 3.441551494422545 5.1349151541881355 0.7219865936246856 0.36333132947205815 1.0635715325585877
P 1.1424899280058392 1.5112732478038349 10.674586839689217 0.5106537408415269 0.768014996638658 0.8498218428038203
Ni 1.8069428448936191 3.464110023920074 6.27074406260107 0.6840970176677639 -0.30588902819418934 -2.2299213713276824
Ni 2.2438927601917444 9.153491598877874 4.835134994659726 0.11932026972958805 -0.07760052139329862 0.20195064023731024
Ni 0.15456715311813804 2.8835544553401458 12.564972156587471 -0.7139151294704608 0.3643816251134434 -0.3872258767014686
Ni 6.170568442350669 2.802121406353174 11.446594378365296 -0.49195822131455275 0.14804977645379663 -1.132299948273237
Ni 7.445750698074415 4.041321186278808 8.732608729866223 -0.3041221661017537 0.44405676964758367 0.648854906636018
Ni 6.437157454597438 7.5397368507448155 11.795404830096055 -0.8968092672969523 0.6326780397658394 -0.16456834293411013
Ni 6.689636963589695 4.73328902415536 13.250010310659444 0.2624137306193739 0.2658772636879421 0.3338999115848185
Ni 1.3833520259139482 3.825778374250266 2.3384088298589667 -0.7338558342584458 0.9145943591945153 -0.3593283789602521
Ni 2.1818405915780086 2.9728899378636235 8.468584071198475 0.15932817758109333 0.06284753145384014 1.0394378727351776
Ni 6.59546552525607 5.520966171370298 6.457861274606094 0.9463855355631831 -0.11894668844025322 0.3373171647964836
Ni 8.17826830334755 3.8875340858028435 5.5934879063845075 1.96019285221445 2.142516719359768 -0.17517671457757572
Ni 4.556378272909034 5.73705557610535 5.348106691150365 -0.28437840781592316 -0.2083776268095766 0.5169341745336001
Ni 0.11476964551424351 0.4901306063566932 12.53421936863386 0.9588944666634711 -0.9316996514162341 0.10007479123641475
Ni 7.366318734250263 1.985604545657413 5.197572280492298 -0.7857574082237435 -2.594821330838441 -0.48488485940753917
Ni 9.21299608962228 5.378703839146868 12.658597928642903 0.2440077173083604 0.3911190411082877 0.27220706256071187
Ni 1.3734485072146223 6.679279495015471 4.598390870616772 -1.335159730588378 0.4435469198907006 0.7625321191472159
Ni 5.970422868936046 0.18407760069983314 0.7011867260502647 -0.22216928127703026 -1.330057376364806 0.8842658834143029
Ni 6.0634548004408435 3.9142893355723967 4.321091420607336 -0.7999426985851901 0.0969799543611749 -0.1862324581711051
Ni 7.688799166808567 8.274524205392446 6.37208512967315 0.36890368135351304 -0.5771003025005351 0.09368380010840639
Ni 7.954480279305538 2.66582527248556 0.9518856398189387 -0.05686020352215368 -0.2443458173740695 0.10630997351284917
Ni 4.112146631046203 0.2912662833032645 2.823137432704362 -0.4638393515911496 -0.09371362490507731 -1.0992396753841585
Ni 0.14812662346446995 4.489138105725024 7.53545211978276 0.7546298335810036 0.6506788472186342 0.692421221262743
Ni 1.926868990415388 3.750811794909814 11.127790013365356 -0.10695146375159001 0.056826779181056976 -0.9226066879760305
Ni 2.161792682817166 3.8734986968136216 -0.008551859786106212 0.5285414197552253 -0.13760698385391784 -0.5162690301457754
P 9.247440694415632 8.561624340558119 8.288477142261534 -0.22899401750834755 1.3407331109110974 0.7777407085668542
P 3.9649927573136594 3.449342756561117 11.929939823734724 0.9980726795248296 1.450646999725121 2.088213477931513
P 6.611038785250051 0.5677847542422104 10.89049003233273 -0.05246438844730319 -0.6038094363606052 0.34837393683127743
P 6.1837793101385445 7.023466143020473 0.31282056450611867 0.002894805049291789 0.15260731391749202 0.8994816719227927
P 8.90157721115845 5.980641373262853 5.827886313931046 0.19490684601665142 0.5028776964405339 0.5411020300290553
P 8.433638268686103 0.3050617273586114 0.9249367665313162 -0.15530362980273252 0.3036917634325544 1.0972959213942262
P 0.8520490923322378 2.935795748086168 4.2673557989874125 -0.7258920993266789 0.8435216116174054 0.9820611345879215
P 6.816020314474822 0.01733995879282309 4.639041618699813 -0.7131440556323911 -0.851026918855515 -1.0380438206011284
Ni 2.2230573873621995 8.806914765817282 10.717447119306206 -0.5098595270750058 0.19072288984229088 1.8083226735732987
Ni 0.8578059178886092 7.819842452123779 6.567500360105663 -0.15135492956762966 0.6129538218640347 -0.36284693363647186
Ni 2.4762595104410305 1.3532801627726843 12.451386486461232 0.1252895999391455 0.3843089601649897 2.0408185335873177
Ni 8.293895821482522 7.172361701987323 10.319023651962256 -0.7887044066672094 -2.3607198169001986 2.3197405462743594
Ni 8.121756176064213 3.2805382530808425 3.067799739565197 0.6189920576383146 1.3432054837109897 1.4227536157489626
Ni 6.664475170523869 1.768412691226177 9.101948833082208 -0.44295016684696614 -0.293063851405063 -0.488051687171295
Ni 2.751371663196106 2.171492387286945 3.6429949939080535 -0.529128916827579 -0.4546368591562751 1.5104038080687794
Ni 0.19550694683580888 5.29667787603758 10.091065774069387 0.06629049569711809 -1.2398587065915228 -0.3345046350483529
Ni 6.960904438832871 5.847328338573146 2.0814611570980612 -0.7954838914828881 -0.9480282133729285 -1.920305786211525
Ni 8.656953814286895 7.3244997600605934 1.1567217197980788 0.15720341792860668 0.44069016716819587 -0.33144605072768724
Ni 6.658147665124767 8.429506398396207 9.0229791569878 0.36726845974293526 0.00016789303643196892 -0.07001525284687297
Ni 4.127636512491734 6.228933426266246 9.78956338430131 0.4003618998627943 -0.9493011665480813 -0.76816694883549
Ni 8.672860588474679 9.20389856355798 10.327307773965005 0.8267837300374342 2.7403159449705514 0.28234672209787504
Ni 1.2620455022011599 9.034890245848159 2.436373992147104 0.21229367403453114 -1.0815360874568083 -0.09208405972145431
Ni 4.325919964990955 8.572704423218918 9.43618286168713 -0.3649387831684941 1.1663930333022041 0.12550480127374516
Ni 5.3982792694664905 2.5125013861676555 0.041891235598326367 -1.359481080942562 1.214298084513599 1.248628739474669
Ni 7.228632957908468 1.4514722999982717 12.891789200093536 1.1324493293669078 -1.8309003017634982 -2.151459273265037
Ni 1.2219774775289582 1.7224062610476445 1.131227338966765 -0.21403431087472172 0.1674549204532858 -0.5799663111944205
Ni 2.0994255285759493 6.44610675213116 11.185036798303377 -1.2111140303586627 -1.1827354792159697 0.30341099896734197
Ni 4.7559494607676625 1.4590041622083292 4.990442364002444 0.7005443645905097 -0.0762900301119912 -1.0284361223080354
Ni 8.999936105480941 1.2716988852551332 3.6831704842649247 0.5369355573561914 -2.2223160481765984 -0.4194618539170389
Ni 4.747518963090967 5.794373696023712 2.7958559716512528 -0.6059539935074338 -0.5855522899226303 -0.27699934174303265
Ni 3.5928001813123407 2.6228389986175795 1.6425907559006188 0.7423070503495927 -0.1694809497443791 -1.1116277646358663
Ni 5.896901517768741 2.720252936057626 6.8335057225132765 -1.2637781935215977 1.5524305461225263 0.9102216840481163
P 6.421093187595912 6.159942309564769 4.235288409253225 0.7027192607546414 0.5452247939481771 0.2951199626031434
P 3.0911763052658596 7.214968140245694 3.4386443623665603 1.2214807183049674 1.5525899545185262 0.42367537777775416
P 6.175172791081787 5.938359184915123 8.707226446861162 -0.825413846273101 -0.27939663833061557 0.24005130376377368
P 5.914429541509737 3.661883940845429 2.065596998612818 -0.5016705635063102 -0.5338908569925966 -0.8347526071755237
P 8.697197860339157 4.6458341911136065 1.1440315047238632 0.8313448670455554 0.9975697717464819 0.28393463541028524
P 8.01227087766512 2.326104008964257 7.243847690144111 0.3702100588697624 0.5318514579650646 0.2658600372967615
P 3.202857238774158 8.0822162155322 6.840678130536679 -0.9783841999569666 0.7160221485111347 -0.28527495148826354
P 2.1185006876048655 5.107204756824662 9.094517951558608 0.8036049779281257 -0.12122468584115252 -0.6055331039199313
