# total energy = -340864.5331972878 ev
CRYSTAL
PRIMVEC
9.26420968719912 0.00000000000000 0.00000000000000
0.00000000000000 9.26420968719912 0.00000000000000
0.00000000000000 0.00000000000000 13.55910731788386
PRIMCOORD
 96 1
Ni 5.870877854403864 5.7498687485359 0.6108578944463597 0.723582734467212 0.007392435809329203 2.283512160069945
Ni 2.908535662507355 8.428457464423383 2.00236811698998 -0.6444742610698192 2.575495119706003 -1.2218553280355666
Ni 7.081682257223143 0.3269367362434729 6.037341804701562 0.2206415317785942 -1.0530192109640382 0.07367547530727955
Ni 2.899808777058907 4.536340668092583 11.185816048903192 -0.6164104129540674 -2.761556856627199 0.38327383403225607
Ni 4.961299226909718 5.433357027361576 12.157936429023586 -0.6841726081007056 -0.06661933979144656 -0.25579622530285623
Ni 7.308831412542132 8.483023659000194 1.9532298228210723 0.32218390869947094 -0.9560443988091857 0.48589350317771146
Ni 2.829391519846964 6.737220415668811 11.737888827718363 0.8108773432198229 1.79975601495021 2.501630411206053
Ni 5.875519223416256 7.889382371684827 7.573574730440527 0.14365036183452037 -1.1272739558135552 -0.2458262585743379
Ni 2.0788793712804674 6.434354875243494 9.684335026236646 -0.48017896929143755 -1.6756195547789012 0.23240201474863204
Ni 9.043638039071702 5.816932361870626 3.64319674843872 1.8669122010817334 -0.04901653910801881 0.8332490260468037
Ni 1.581178238640391 8.86324534963203 9.361614431784666 -1.6237115530557007 -0.770816470643195 -0.14126463521116314
Ni 5.777994888898412 1.6837700958124813 12.85845427045362 -0.33576576114896367 -0.8515336832886045 -2.652479347671542
Ni 0.4257293410563187 6.953428539443622 5.852110418584899 -0.4419194115896066 -0.5626157357311149 -0.9932153514325281
Ni 0.7832842900462029 8.979325895989831 6.77072628254928 -0.13166105068312808 1.5520379386697982 0.15814367035468893
Ni 8.804565845990345 4.545039760912214 8.695943914785987 0.12337618496651655 1.249844871269957 1.5804511997051685
Ni 7.205377983876724 1.5720993132269316 1.6378177633269293 -0.26595054012803876 0.31755900833294987 -0.7124629704049665
Ni 5.08572682612214 7.5047231246519255 2.241537584272197 0.6380765850735914 -0.7726041586712371 1.0651031387117655
Ni 3.6641060695184926 8.981641948391223 12.22259968564951 -1.3577597273760809 1.5773465926379158 -0.14905147824543363
Ni 4.967626682070324 2.5884479564252802 1.17756349233353 0.41145235334900104 1.6983491351659332 1.439371683921618
Ni 7.297723625225053 2.425962984153175 9.03955808116141 0.2746529529980431 1.743874630401558 -1.3714768198518574
Ni 2.460018218663253 7.401001033907955 7.820296381393205 1.6752678278664372 0.7315873499392432 -2.416909219607573
Ni 7.717244093003718 3.0891414287679564 13.045854408038947 0.5580098615279874 -0.7327597729807896 -0.2828002646955259
Ni 8.640246560216337 7.617561197647777 13.352208849801723 0.6291823679077551 -0.21608348009426656 1.8483442082715587
Ni 4.97991102400731 1.6116482240331131 9.274890312824997 1.2452886193578425 0.7052695379803209 -3.8055872338290655
P 7.853770749961014 3.6147370965304066 11.01219179100135 0.6887671694499236 0.34187675914270804 -0.9948166344813769
P 8.291384219099358 0.48055493350208633 7.7768666931832495 -0.03962481348047369 0.4487055812735047 0.9228524854382494
P 4.852843125057302 6.478257964564293 4.910051472213622 0.7466514433612172 -0.2383129809164283 -0.5602719180892867
P 4.352307144277921 3.387671319097868 12.70213092399018 -0.023709942022430135 1.0716553380079865 -0.3260588182738449
P 2.0041820492307507 1.0868585425063477 10.957399549710162 -1.364449480691431 -1.091199064467869 0.7875358402804049
P 2.946120560877155 0.20665023872474253 7.488925794432506 -0.6091938406009701 -0.996920053977625 -0.35185701028387145
P 9.095267479203548 3.0671018741163034 5.140419940370547 1.0974697279679293 -0.4851303997594419 -0.834615053156395
P 6.887328403907875 3.840061202557098 1.3654425895554652 -2.999976795435137 -2.6430421135180415 1.9026533632370846
Ni 0.6765689331786731 5.526267785495844 11.497092565229408 -0.6362318185553688 -0.640283105806607 1.2254744128453927
Ni 3.608168771920057 3.8979347199630983 8.882475995931273 1.6866603859740952 1.0058209560116806 0.09995343516720205
Ni 0.8446291067914106 8.362023817341836 11.663828883289511 1.6106189815378005 -0.06770434532550922 -0.2747812510457913
Ni 3.164922663341525 1.8036211754797498 13.538483385919974 -1.6534335056001652 -1.0030454501490724 -2.3273723517880045
Ni 9.002995951532064 0.935583263856983 12.54022125913458 -1.084844583004751 1.3069177050235492 -0.07163041985279277
Ni 5.352888102727587 7.796277065148841 13.049826901117816 1.256278799820759 -0.29793557767506756 0.29217527815252264
Ni 6.893748501164535 2.7206760201255915 5.578040820876576 0.17224745674592268 0.04290836932775191 0.5073462737348489
Ni 8.45178474421021 4.9223710181471105 0.8303029330573561 0.3955752771074284 2.2475467977189294 0.8652770010166259
Ni 7.277712932477019 5.776457030103887 12.361200599137494 1.44709399226654 -1.0815443149869244 -1.306497072546363
Ni 6.470392650609163 4.71582546499091 8.204290458176429 -0.8677118357103637 -1.3960002589145184 -1.6556585382759423
Ni 5.010742313574649 4.202560460213475 4.972518184742065 -0.30954770799269915 1.3980532847888052 1.1408848617287706
Ni 2.62026125221081 1.764702230926747 8.877892991439397 -0.3532371784608497 0.268750214360363 0.22974323696954627
Ni 8.372232976327174 4.810440837692605 6.068297234677617 0.011892894782844034 0.6042781484669076 -0.3898571436767286
Ni 2.9313163539274534 6.800930385126322 5.63088016678291 -3.426740068109595 2.1843508817867345 -3.6655490148258356
Ni 1.0300226165761712 2.970846736314424 0.21368084739441015 -0.8454285988321311 0.07120875893434188 0.22607118743459775
Ni 1.293385567243336 5.303287524499362 7.159479383806884 1.658785513940698 -1.2641954835646743 1.2099480350750194
Ni 6.290018489588701 5.962843663158365 10.014336363017641 1.276895447629846 3.0679799029479873 0.770976393259827
Ni 0.944560282964781 1.5079539259179597 4.118457186151223 -0.09641816832043394 0.7801066376958694 0.7029735428572925
Ni 2.017772644722123 1.9680238391402083 6.445592361495051 -1.5893724134541982 1.3658638445404543 0.9194398602122745
Ni 0.20069613121124222 0.7565283262843541 2.1127798934901323 -0.18462269048182398 -0.4293739708244283 -0.5698194525684058
Ni 7.245306727276733 8.020804449149454 11.644425922691603 -1.0330111432732274 1.454006403115657 -0.9778524958232127
Ni 7.51477479207397 8.294450672478803 9.300096374319835 -0.19052825733298157 0.6407099089313805 -0.576070318574124
Ni 5.753315034509171 3.874718610691538 10.500172822415863 -0.7519070353332019 -2.0481711172976467 0.18485306132507517
Ni 4.6273059422096825 0.2468374535727478 1.0405430530042572 1.6923990882300854 0.4235910455940641 0.0209532052128994
P 3.228373234930079 3.8148625524299455 3.5069137401940504 -0.47607214621191557 0.9068285992061672 -1.11325861537107
P 1.0900824874490862 0.05788463445752707 0.3070186855914958 1.4458547205428003 -0.9314389415556797 0.6406240340857935
P 7.400815749715844 0.7656109573816556 3.983191388121245 -0.08603553953452923 0.5229757527419897 -1.9273405815711195
P 4.216910720892504 5.853822444520008 10.15532373690002 -0.5783208051711975 0.914863810805818 -1.2785172995039853
P 5.748210455016502 2.6583649463185224 7.569900544910957 0.3784008222106709 0.8581601874661866 -1.3080857571897215
P 3.255711917476118 3.8059689112085975 6.759784324584141 -0.24801041070985028 0.48977278362745974 -1.3687401376469845
P 8.865681836758293 7.0396412740330625 10.495386005312664 -0.3630821895757295 0.10178920282436019 -0.807774278814467
P 7.481025276480875 6.290426114811346 2.409344844962702 -1.4785987477430407 1.8973216666115262 -1.1930618008426421
Ni 2.7643567684158574 2.0447592873031506 2.1442235473124 -0.5821023837008168 -0.34515003057734106 2.379280867731838
Ni 4.914061022130913 0.6835365452230229 6.992201109484856 0.005055045925404198 0.590572368845041 -1.0556854449422914
Ni 3.651543801293339 8.56416887093539 9.837539113325889 1.4912490895171995 -1.4313529273821994 -1.091483171367191
Ni 3.0294891831176867 4.162770679957549 0.789479267009448 0.7123411001151215 1.6177993013363234 -0.4223029229102598
Ni 5.21575927214593 8.677340455477042 4.67621077829653 0.41770116247219025 -0.41976987207576094 0.5840127133496522
Ni 8.641626927447566 8.209562719862959 4.087433201024087 0.8069484404790618 1.372807622848139 -0.35081005707659585
Ni 7.080802157310615 4.717465230091097 3.8878302465463026 -1.0676858118372774 -0.947515278292252 0.43437528069376163
Ni 7.3465552740560165 1.2412373313735783 10.79704905133118 -0.9191963767429008 -1.3785995469395675 2.233888069284914
Ni 7.028653921440855 6.705851801944349 5.032719798021945 -0.31259266546661 0.9610945596385834 0.9687806154289316
Ni 5.799932537244404 2.4122704823561416 3.457979258636465 0.2165305949340142 -0.7844492309352813 0.24444531906641126
Ni 4.087452655864259 5.863642506701914 7.007956750761051 2.5624303161022453 -2.6762934193720036 2.58240753055512
Ni 0.8472360553744183 2.9848079001900185 11.201097362647582 -0.5342793506802669 0.3228868483037665 0.12885546291353292
Ni 8.436841574116425 3.0910127991082814 2.987058176703212 0.9474245183506587 -0.40346162183404066 0.08092418644989288
Ni 3.846212637735197 2.099279160831934 10.972775358392528 -1.032592824788886 1.1693778269621407 3.109636402146509
Ni 5.091970903396294 4.638154331657806 2.603579189974059 -1.0941784588111672 0.44368755923362296 -0.13630472010272654
Ni 2.4691342009151347 0.1106989669979253 5.205015568266349 1.9646688857079329 -1.0076472105871421 -0.6531743599469784
Ni 0.22560666441966135 1.2995647950502518 9.454589112965214 -1.5804334590933558 1.597039700191469 -0.14313357009910188
Ni 8.873630528599874 2.7763909766934938 7.278962674352812 0.6583258222409307 -1.8595398198770619 -0.3367965164063232
Ni 1.6259706920833255 4.746684547187067 4.821509715329341 0.11348797931852712 -0.5762140432408399 0.44797538797569947
Ni 0.756796061941955 7.410246715094314 2.0322387080212216 -1.5901190618122356 -0.29645822179859266 -1.645113158659928
Ni 3.706786283171357 2.3060285265994565 4.927894339913951 0.29370611297475224 -1.3812441836512663 -0.532031949406987
Ni 0.23435578397116236 7.290451220684679 8.2464185249368 -2.3314346947828364 -1.5289041808658121 0.682791668592779
Ni 1.3435975833055294 4.340226614952257 2.469194418277571 -0.7527390443161939 -0.4964465961032096 -0.4927097547685966
Ni 2.8518850207692896 6.299088150792556 2.677124044348843 0.5604153856456864 -2.160696475592588 0.7236652668786892
P 4.3475082837022345 0.6754581544469652 3.220803449261367 -0.8830615786935566 0.3039650716985991 -0.790461241457316
P 3.768986186463159 6.760779300695779 0.5484384293869059 -0.31290145495628047 -0.5364665881395728 0.013047062991945272
P 5.201242255694001 0.2837896064264878 10.710487982460569 3.0907166824238708 -1.8036833750290744 3.4394318046446504
P 1.0232134225160767 5.334952592931203 0.19949271038347854 3.2266773889236173 -0.2684087718605442 -0.8911572112174974
P 7.452472982476506 6.331207165495069 7.233214154478582 0.2996229926798195 1.8086584596461623 0.7992500433935397
P 1.514318437916987 3.672193724504156 9.064479731421356 -1.5086323179906533 0.3545929211577958 0.41461352468580204
P 7.044097358853342 0.147687250269127 13.53345292010415 0.7684132605183411 -1.5904967568666286 0.015418134327283124
P 1.7746427278335246 8.019127627210846 3.7405098589775556 -0.9703962966554835 -0.8143789286151781 1.851789743617998
