# total energy = -340887.45824124577 ev
CRYSTAL
PRIMVEC
9.12065071748660 0.00000000000000 0.00000000000000

0.00000000000000 9.12065071748660 0.00000000000000

0.00000000000000 0.00000000000000 13.34899425454857

PRIMCOORD
 96 1
Ni 6.481544822562991 2.3717066482207185 11.867990443822976 0.43568140109969483 0.4151747965059107 -0.5325402565019732
Ni 4.66572359370858 0.23385257209441118 5.714063955025611 0.5814881471555857 0.6559041001733155 -0.05051343536851946
Ni 2.970605056327124 1.7826585428792212 4.590545718180773 -0.7503170651382627 -0.8406062377428233 1.9954850997578406
Ni 3.7432336191242386 4.30279466072597 4.3049571670088955 0.4563530705164334 -0.2820901260023787 1.4451900903756079
Ni 3.671764200174407 2.735474681068487 2.7245162192425267 -0.13681816940403532 -0.9048154254308804 -2.575630359732287
Ni 4.943246753459154 4.62985207447304 2.2132499352060404 1.5932858895759914 0.3359189988973763 0.4096078439410946
Ni 5.173679993603042 4.965346090125238 11.462768141441147 -0.9922177634059492 -0.3600765699801863 0.9172312825967299
Ni 5.920433270340858 8.217761012035812 12.36242365491232 -1.8552195952351533 -0.5746274154800103 -1.0648123469442243
Ni 1.783269626476674 6.458168594797751 0.4863158319590027 0.8547555326600118 1.2106522602308956 -2.384304546198674
Ni 2.684216624088132 1.452518349192764 0.3223885526495174 0.9479240836948963 1.7037355962888272 -1.2383885498038993
Ni 8.398951859005871 8.796885849406737 6.647651937391747 -0.09271655109913064 0.8558870751612937 0.6365038412698328
Ni 8.732065384823217 2.6321741911468686 1.2312951421340639 0.9397515751864333 -0.3421783495435268 -0.9098951539466329
Ni 7.026832045806313 0.5638942627532196 4.726304779842906 -0.1798394101605677 -0.8780803234288812 -0.4519009482823507
Ni 1.040319661084198 7.479179838332588 2.456735738578503 -0.5684403128326919 0.9167430301064018 0.6426230667936932
Ni 7.896413125632106 3.92867468932434 3.327036437745177 0.35874293877042734 0.42966347704038904 0.051397894856001804
Ni 7.851749299113815 4.426425081076273 12.54167362741166 -0.602511286374472 -1.81283598806262 -0.13255887990704912
Ni 8.763677560178005 7.455666800806724 9.450113237586962 -1.496816813412964 -0.014451656648955754 -0.1708508335087122
Ni 7.035660835691897 0.7532663334085754 0.17308988501099132 0.2682966717627121 0.508420223525318 0.8316629125066064
Ni 1.914461066264115 6.8248917184749915 9.325607234768668 1.2839158448117374 -1.191833841972812 -0.43394564935551067
Ni 0.03612416126015836 5.094877571483779 1.0124943799034747 -0.033500445750290694 -0.4182066413536991 1.1842326325867862
Ni 6.653003935227347 1.646377779996578 6.884102982872938 -0.6778363814700327 0.9576076295312477 -0.7262212005313234
Ni 3.33901550038539 4.457927808622562 0.42741375762006545 0.3053167006304871 0.017981009958452903 -0.8617324781984772
Ni 6.200774711160281 5.397664933696199 4.357926258062117 -0.10474134347414864 0.8857326977678165 0.5203408862223038
Ni 5.166128094816613 2.709161603775191 9.250852557433726 1.970861901892522 0.6385622664607583 0.9999475279500392
P 0.23217437236409352 5.999180968555872 12.129496828864795 0.6212397160219107 -0.28001653130280163 0.3911442379192683
P 3.9225456120483972 6.427222226944665 12.840971428663106 0.31748573189285323 -0.4174872466891713 -1.7606086553267872
P 2.5016029556075883 8.604458360764117 1.1804912935589802 -0.7047530033552184 -0.2520609266301401 1.058483319402403
P 6.709533728317069 7.609130869623707 5.902284087496516 -0.1575425464355803 1.1392105593501414 -3.2275423080270738
P 4.8586800800922765 1.139415531029314 12.348594012243403 -1.2576592251080534 -0.5464447823982073 0.8885675961134504
P 4.343691658501754 6.545307291664354 7.982751941431596 -1.1007699959857558 -2.4801136201801994 1.727006651001626
P 5.021866762564252 1.0641975246383917 3.5656235396222398 -0.024752524354331562 -0.09192876509051263 -0.06556724437784836
P 0.27377913263483816 5.687656022964949 3.5394728099115507 0.8640004482970475 -1.2528147525315583 -0.3608381307365592
Ni 0.7133643986250607 0.15385260853715438 4.37856355441967 -0.11417137853879691 -0.7363431194566737 0.9123086484841321
Ni 1.978232656016186 6.286490586516396 4.989253139761698 0.728071880586817 0.6979287813445335 -1.1158238049950848
Ni 6.139374490592354 5.6518848308872 9.344228867319698 -0.6127489049420802 1.616164851056694 -1.0121651530621536
Ni 8.585833992017875 2.293114001067744 10.013067161252161 0.16401067065842723 1.2862822881613847 1.1137574093843592
Ni 2.7263905129630714 5.300976915538062 7.037710245906041 -0.7071508141634337 0.6845999254461113 0.8360237605784634
Ni 0.7034420427195576 0.5150814522277465 8.945428415101548 0.5018577398164519 -0.8553970228987526 0.03921292275403569
Ni 1.7855680304551524 1.305712355392802 11.145342134841988 -0.9090518321097311 0.2849733610874447 1.1298234617082865
Ni 4.016698089309643 6.805364405308632 1.6534864151585864 0.876474412394342 2.0916975798253716 -0.5948280587976015
Ni 5.738813752787513 8.10063361564049 7.713849620730458 0.5907790855392083 0.5095026579562193 1.2087110773441248
Ni 5.9420309712179895 2.7694308636552947 4.67679332747318 -0.44994459588692837 0.917753216538471 0.08025749940017146
Ni 1.3419213387045472 7.640816010184161 7.069119942815107 -0.5508495963341222 -0.15638863533679517 -0.49968052965947496
Ni 4.931152770620016 4.705635561207873 6.411174442023502 2.025907677913756 1.2106939121021085 -0.23677931788072126
Ni 1.0772765377540194 7.8891074844148 11.453249830362019 -1.569551007852897 -0.8322846052510053 -0.2671011087927142
Ni 4.953735501773639 0.36346613930932536 10.064580596452348 -0.2605278264505707 -0.07173377819987646 0.3402744476525946
Ni 8.779602216314606 6.8728845825017935 5.148426735922045 -1.2602912634142618 1.3446144482433746 0.05392091838817166
Ni 7.464422625486643 6.200592298146116 7.246327801620871 0.34680710656478986 -0.7723614465328118 0.25313924729598336
Ni 2.4383330016444713 5.448813542868056 2.6048696991215863 -1.316630561435939 -0.8225069570389512 -0.295595102467349
Ni 2.4430210161085104 5.414857360281248 11.378375672502798 -0.5547214205847028 0.13323610847973183 0.365644550986267
Ni 1.2734252518856035 3.6308945643507466 3.6135324936625257 -0.3150452407721606 -0.7945590656757735 0.33196592778689926
Ni 1.6325599941735818 1.2659463183048403 2.4628629917243043 -0.7112293551081816 -0.05988073551603236 -0.1511412708949268
Ni 1.3086674462222745 3.7259955892856502 8.081561422944473 -0.9868243603045199 -0.22627147637086192 0.6582440611604018
Ni 3.8858258722969903 3.0632982294750493 7.318051686725465 -1.0157238169476894 -1.3727870540228488 -0.668303759389249
Ni 4.1490660930384475 7.032778710068091 5.896677623506155 0.4093324787925209 0.4378827796263878 -1.0308796987525213
Ni 0.6973093171833316 0.1735304124401997 13.262359172360231 -0.09749571765532887 -0.8137942597563018 1.4198058459745484
P 0.3487463211312837 5.916438425330645 8.007154242401514 0.6993593431434729 -1.2259688359833079 -0.07724750892925407
P 8.576804547816709 2.0236261345911366 7.815288585842523 1.5644319414587766 -0.5420973040627889 -0.6420641089664296
P 1.8005350182673878 3.3622914009928393 10.2985225509237 0.169564767707437 1.2617128263521369 -0.01815147409804616
P 4.118001156726154 6.262165811077499 3.731751631947626 0.7317261895099527 1.244798309984985 0.7828006395882647
P 6.809195078606097 3.869308373864353 10.448497970844778 0.6539410629096738 0.8396521013596702 -0.7236385274058118
P 6.679572390740475 7.902450996400966 10.086967233615743 -1.197540405439286 -0.5122555381110081 -0.5525354686769773
P 2.473620799234683 8.91473377720801 5.6906494205273965 0.04536094463330252 -0.3739967796057043 -0.5652976534386522
P 6.865505976078821 4.086042396644453 1.1604404550419674 0.1728861187711861 -0.34978315847397823 0.5374844878811259
Ni 5.017643901286333 2.688895517901464 0.743741637873952 0.03406557422514133 -0.1731051767605277 -1.6682877970041785
Ni 1.6836082761876467 1.4307108733493425 6.951195401547883 -0.40123401805510256 0.6821476072508769 -0.8902807221498152
Ni 7.266814607241738 0.6256793747810341 8.883942460416964 -0.5541544923376392 -1.0550200434441508 0.5174764201903153
Ni 2.9521904625471707 2.0073184111247895 9.15050898247172 -0.5054328587622198 -1.5420954827451054 0.0019427255486676222
Ni 6.695150462150162 2.094995226383179 2.261065858609102 -1.2430995821263235 -0.8982786527536271 1.000849470939018
Ni 4.247277259864863 7.160978576423227 10.419476972356202 0.188831586356849 -0.6027280303709684 -0.2690723735864721
Ni 8.113502853789829 7.530848324594813 0.010882760425081666 0.9246918526398333 -0.35337550381092686 0.35681589695104354
Ni 7.426754338061577 3.957140240184782 8.284598964555997 0.5876721644791105 -1.0838667924725138 -0.4611952291000832
Ni 3.119125732460236 8.536363582576337 12.269795238384422 1.908092017754153 -0.13142579474387042 1.0454457694921544
Ni 8.955284190256881 4.867609197135652 10.095230543157415 0.7383832898151542 0.26385611949285526 0.3229871213270567
Ni 8.509211405417883 2.3290402442075337 5.455587450149071 0.5005287365923832 0.9164182997771314 0.6730638997820537
Ni 3.7327448708097535 2.928577097863516 11.603319192985394 -0.11330517388375971 0.06052402552698609 -0.118260461006506
Ni 1.0863971884622674 3.502302510015156 12.40076139809937 -0.013099256386119376 -0.1803376899532249 0.497825221618291
Ni 3.2724529915165954 8.701620652759084 7.988345636510965 0.14191846674507816 -0.43022757707397513 0.04373497899410532
Ni 5.886705104021757 7.915548250818011 3.5118664243478253 -0.7648011176870506 -0.3238528117614616 0.12002835154020618
Ni 3.3216132988340528 8.627050212568447 3.489840964952477 -0.3756109181703596 -0.5279734630668971 0.4115405421874332
Ni 3.7680509097013823 4.715622673733405 9.400842570395936 -0.43978231064194584 0.19469293023363246 -0.4619753017992173
Ni 7.193283921231842 6.267820614516613 11.43346713897583 0.3899327341096704 1.4647127337895678 -0.8087692957378845
Ni 8.180922703825198 9.02056980802652 2.335780405080929 -0.1180102926689129 -0.8276545626781617 -0.6729638838690798
Ni 4.572811524943655 0.24254546428444246 1.3946231946920171 0.8980418541524727 0.3855153217682651 -0.05338072961398549
Ni 6.018918056688522 5.979690137992346 0.35272292484007983 0.0779987852729818 0.07173892040619903 -0.19183669173175996
Ni 7.86219244417476 0.21097433185784156 11.17377576342495 0.868386236069569 -0.3116310728842891 0.3405899220104844
Ni 0.3769920643096573 4.647163069517294 5.8277437454532155 -0.6083368919173137 -0.20237770047239984 0.5367956893442174
Ni 7.732551515007721 6.472241758840577 2.4185174759157313 -0.7976852700095811 0.03557326911891938 -0.05188614734632999
P 8.507441999180482 1.6418812991974117 3.4317059373381036 1.0905316060871995 1.2287733953116389 -0.2525633201878553
P 1.7802780530443687 3.325744953604889 1.3372351483706493 -0.14007909954349423 -0.5003880972494609 0.6260587346771089
P 4.842810147859925 1.0272680099206948 7.849355128302901 0.14518273931864675 1.5647013930700795 0.5943248939089377
P 8.772770848934128 1.7365536535490271 12.397331121367998 -0.4678685273552007 1.5566175876206805 -0.04710209569412533
P 6.339071137849447 8.026254709114728 1.2466570541219661 0.7165263418410628 -0.616953429941731 1.0055751585494617
P 2.354669272697711 3.5655359813754406 5.722941084359949 -1.250556552625001 -0.7532586642650898 1.0880654039348938
P 7.089344985760646 4.204318995029015 6.09946252309306 0.03450806107919863 -0.5208574208474062 -0.9796962339001708
P 2.571813724759682 8.708552347297353 10.110861514341211 0.4341053148618266 0.8365297536806044 -0.6195654136432813
