# total energy = -381165.75407711364 ev
CRYSTAL
PRIMVEC
9.29494948785365 0.00000000000000 0.00000000000000

0.00000000000000 9.29494948785365 0.00000000000000

0.00000000000000 0.00000000000000 13.60409812336192

PRIMCOORD
 96 1
Ni 2.4492191957806524 1.7894264997909224 11.772782277955011 0.19372388145214378 -0.95301769616772 -0.13417893200897538
Ni 6.588288097255839 5.923522603278471 11.405675458588348 0.62525706471142 0.48579708680916334 -1.885862516931991
Ni 0.3999514529537993 2.886992727783981 5.161082061874381 -0.7552777515776476 0.4169324026269658 -0.48926781896658317
Ni 8.724248904663819 0.3635226868357593 3.7136873961580625 -1.6338044185153282 0.19321171770241563 3.7799579632967353
Ni 7.15369987592505 3.2968721163089882 5.8541153563003565 1.6756938596602626 -1.483372257872284 2.275386188528701
Ni 2.4201817735126494 6.195018783504494 2.8781234869619174 -2.2971035256011345 -0.486940199274671 -0.3748437009870318
Ni 0.6788287525853989 8.305511429256159 5.920544501455594 0.6691537660943702 -0.11296758803868287 -0.14280626866667018
Ni 3.5459767631663754 4.8840126299224 4.606484027464643 -0.45673410800493597 -0.11267653916082529 0.8293972564008814
Ni 1.294823646485875 2.623694693025429 9.910231480877082 0.5167279720600649 1.5439487339037603 -0.3280766200348221
Ni 8.439024084012111 5.328525000320191 5.107467863608035 -2.5970263089095593 1.3458442068854175 1.1457061943768139
Ni 4.858367864225402 6.692224222672231 12.714458260247747 0.2931643815386693 1.9280041832970471 -1.1438380308198237
Ni 8.808907304797291 4.348084431097652 7.601697852388943 -0.20508224388775648 0.07838033698211663 -0.03734938718273568
Ni 5.881370007252418 7.070091805086163 9.404771197049866 0.04057072233351078 -0.5930807370891915 -0.39954197506466027
Ni 6.806849540024667 0.7503050553243517 12.840051618021516 0.6547023665557306 -0.31973441871771385 -0.05288913468954762
Ni 1.241461341351238 5.244861159784246 4.929118231407654 1.65174763325731 -0.3697647438022277 -1.0185898256415749
Ni 6.011592249881969 7.3270785691276945 1.4324028416522783 -1.4822815959112665 0.7651710994319596 -0.6272237015194875
Ni 2.5176300241713374 5.793105166709218 12.291942387864433 -0.9159698993858032 -1.9738729208047037 -0.003039558157272185
Ni 3.9854419759804527 3.0954598553853794 9.326983623593893 1.3549911634920084 3.426204507321099 -1.029601089150414
Ni 9.095368353733777 1.7228003017060811 11.692273143282625 -0.9186158216490824 -0.34279438586097094 0.4971760180700664
Ni 9.170081157891975 4.213289073309375 0.7673389797956519 -0.1080801780393945 0.40919492477339203 1.555888936984772
Ni 7.796092426432801 7.845290594187135 5.484655055717862 -0.09959759448968009 -1.50915322349113 0.9480526388529606
Ni 4.7301626256394345 4.966272933082395 0.36148244541840124 -0.6828168654037595 -2.260319009782933 1.61732801812686
Ni 1.7897332331247393 0.12212448261678496 7.7380519732099815 0.5442513742913143 0.2876750762893239 -0.08978420794368408
Ni 2.318485730928072 5.001881884653687 9.128648920452914 -0.0717360921927216 0.022816997894515544 -1.4847475409532558
P 0.9078507315323355 9.133802969955989 2.2108427796472503 1.6434470838114148 0.08646002866645754 -1.1600007566226151
Ni 5.578215228996682 6.459422917254689 5.155721664492193 0.48441923262503017 -0.006681782895549783 0.2725035107552081
P 1.1287321936987609 4.7422274701029 10.724722810040005 -1.8158287521423568 0.08627799456263852 2.2215357183671482
Ni 8.188534489677792 8.840956290706407 1.7334476663693323 -1.9832237658919845 -0.10512340940391572 -2.159270027558707
P 8.110819416827992 2.7818296690323217 13.354748293176424 -1.5477650223260568 -1.3213760465407243 -0.46826293458014195
P 6.671468600417285 3.1078314331826626 8.053204672292711 0.5203079761018393 0.04369666955700217 0.5277019545730653
P 8.745748122879533 6.504819450659595 7.172189389489555 -0.04335548416749952 0.8632142049503263 -0.061148546484862426
Ni 0.2278275779349525 2.1115708598947776 2.602001210364964 3.9181136205652716 1.83198736418009 0.38488822970722747
Ni 8.28409586558603 6.0984907328472575 9.464888141993132 -0.23130055415433712 -0.19669144872089994 -0.37120404735191553
Ni 4.49741708991895 4.774759793386513 11.25405810117759 -0.7390718312417466 -1.3888981006520984 0.5779348825866885
Ni 4.942106064357424 3.688840137128989 6.667981135361282 -0.868764188234278 -0.7445318259150533 0.1536172432392451
Ni 6.8385360229029075 4.294545521922333 1.796149536771219 -0.5062417278167604 1.0286361541339832 0.8640868373632666
Ni 2.2462360883899204 6.382516505012226 6.6347182290462134 -0.7809831267635517 -0.8597529858746032 3.046023453281554
Ni 3.7201362321278255 6.833767713804481 10.508635682830633 -0.2938066431083585 0.4291641688064674 0.12778485555717348
Ni 6.961127111985075 5.043244409971425 13.269818480517271 -1.0431364046326872 -1.7924029170192488 1.6823568735027348
Ni 1.7501739280118647 0.4895780036001558 4.160990110398637 0.43977691132530716 0.19605715757101072 0.4764107604982569
Ni 4.538212623316602 6.380889888848046 3.076920149093523 1.6683703294156556 0.3283558418381377 -0.7499478547243019
Ni 1.0566312703527627 7.226841833616125 8.696188381589275 -0.05857178689662171 0.34633890867911965 -1.6541081630696866
Ni -0.16254728853910175 5.189165822322699 2.7557145788901383 1.4316506611282762 -0.3277002105320098 1.1110850047585188
Ni 0.12467315777231837 0.650822140218011 9.691151379925618 0.6093604480858215 -1.5243738970956264 -0.5388847106627622
Ni 7.51917729064268 8.027248525787144 11.043194735592614 0.5594725621164429 0.9984678580807193 0.010872423938129662
Ni 9.05751931933067 8.534771358910541 13.170971339957388 0.05705483603146303 -0.5783295469219459 -1.0973026062624456
Ni 8.187261081594976 6.492289858720649 1.0967445544564098 0.007118870432968385 0.6891492353796905 -0.10240112537674623
Ni 1.071977231993119 3.4281446882331257 12.771173253670497 1.2292763030899863 1.1202468737634448 -2.5575742735615243
Ni 4.036396889192101 9.113289016388293 3.7055115585694143 0.14819170134829962 -0.18938771597063514 1.0303824474011287
Ni 1.4042159072644043 6.531021913327169 0.7138911611255271 -1.4488659965652981 0.11533994492560137 0.1532706585331038
Ni 3.0811549280900987 1.2707497272560004 9.41011765200779 -0.7144069815052148 -3.3439191788576212 -0.43685588102377026
Ni 0.2565433949499231 2.0744375366039094 7.6729018131072655 -0.4332941318144409 -0.6370229469980965 -0.4859318126148148
Ni 3.6180590966133543 2.4495538139629978 4.336305871079082 1.146522262520206 -0.10298733689751942 -0.7834094768168572
Ni 2.3410259834888616 2.162962635733378 6.031730687489477 -0.013895269924853489 -0.46752502797285295 2.792049368789101
Ni 8.526387314452878 3.6426907128138053 10.03786508006821 -0.8680288527301502 0.5956500404782645 0.18154328022555186
Ni 3.652487589596928 1.3921231779524093 0.13791939031845502 -0.035352668467681043 -1.5401951803985992 -0.7135603172342033
P 2.866887751994708 4.317067184584103 6.717961937864325 -0.41064142741193144 -0.26379364168603603 0.2479052525905537
Ni 7.755975424349351 8.514025031605104 8.673564474482898 1.1605854254814916 -1.9417968662057656 0.6107095059145482
P 2.0112597647871313 3.333968259801818 2.8563984014731196 -0.36249109295894993 2.0112693591752913 1.9768021786363568
Ni 3.1457641221313564 8.639980892409747 1.3274033740119877 -1.6308147397593848 2.959618703333064 2.05799864491103
P 3.1592232090212633 -0.04854380330885782 5.92861158813498 -0.3603030841686956 1.0186052522605424 0.5369162740824818
P 2.1215257508195635 8.88194701804376 10.278603342872001 -0.5180909138458626 -1.236635828778851 0.1728868901021345
P 6.805734146083515 7.664791969660135 13.092951392763673 1.2733810067186844 0.9646961609469127 -0.7870923249850832
Ni 4.561310572847968 0.8058284362199711 7.422464270490201 -1.1634210951580737 0.36671927210768457 -1.121268887270056
Ni 7.8447793719641075 3.627028722890122 3.7140545466636916 0.2781583950481403 -1.8534118526024532 -0.25375785471658874
Ni 5.867632071877223 8.032416517714482 7.089449466934863 -0.6321270523583759 -0.6148039876988961 0.4566538895863039
Ni 2.88842415000846 1.593396014633374 2.213808798035765 -1.0926401677897697 -0.7995544620078359 0.399935353848337
Ni 4.356477770504825 5.48934621673536 8.327966168281458 -0.170540501357145 0.14482689864112477 -0.8591829723037461
Ni 6.948932138228475 0.8599296898406211 7.592229087323511 0.19276228886982286 2.666224722282092 -0.1039414732806726
Ni 5.699216881712708 4.072554242784461 4.420556222929084 -0.2783831094644367 0.4137262369848423 -0.8527894100725765
Ni 5.765155253533838 2.5754446101210746 0.46717996376686305 0.03620370361406668 0.5109049376203846 -0.20964260956492925
Ni 4.577771928429477 3.559110526823446 2.4852650099788964 -0.39947718326499587 0.07665769786405507 -0.9395152908059109
Ni 3.123976760480845 7.373962294454136 5.005451145265376 0.8146730628168292 -0.021274593108060135 -1.9603188362693529
Ni 0.8384927477866214 1.429563234577094 0.3397815267983288 0.09867919644046877 -0.9167764544474987 0.48629459527087215
Ni 2.604444852591039 4.0555073053838475 0.9767644166914905 -0.3946257687099655 0.24967237179330548 -0.6265382454166888
Ni 4.9805964502766935 1.7132822734082465 10.868422729458484 -0.8587613113852952 0.04234606906637869 1.35206293410162
Ni 6.4675095233280455 8.414922279933707 3.605535081644114 -0.5126738565953494 0.06837977412597902 -1.3309873443782434
Ni 5.033968050360841 0.7535499221981544 1.9482567380211335 2.198711007163149 0.14960760785921978 -0.6165484811938284
Ni 6.041540577201913 4.565772148612577 9.609445055756394 1.5976804190992613 -1.1983567306929943 -0.8434920439310506
Ni 8.850883296782662 5.733849863585493 12.590633731365655 2.9773418316444396 0.9115671423324171 -2.312169161685005
Ni 0.6625811808426111 7.19949609215887 10.879809042607748 0.268278416930267 0.26247286599208347 1.6660231693397178
Ni 3.5378529772949814 7.70082848890887 8.437397467847928 -0.07393438539562106 1.3777397700424336 -0.9194953960405583
Ni 6.466970416256488 5.40437178831856 7.264275383776152 1.3392493272767194 0.8756244056892211 -0.017266500389931553
Ni 2.6530853233747966 8.055393632902224 12.446253421643075 -0.3185460548365675 1.9709688597840314 -0.5007472803610924
Ni 6.429149266701909 3.1479577302156225 11.777829435538726 1.209461582356904 0.7833835086749282 0.23077142112374452
Ni 7.551867628067957 1.8930001221764399 2.0638096913346287 -3.5146540556137595 -0.5049698030828723 -1.45486823689532
Ni 6.544425230520019 0.44184843786833927 5.4538692534471025 -1.5115520627406096 1.6738418940531883 -1.4121017924620713
Ni 5.382407822627366 9.33844987330894 9.413409923124092 0.29252417685150905 -0.681360078352575 -0.8942052540152019
P 4.08009244683675 3.0717019644388315 12.683264409693514 0.43540937838523075 1.8505209042079032 -1.0726832650518687
Ni 7.164574966851287 1.5303297822107111 9.879527474162007 0.07707215969365436 0.617989070295097 0.2536339275442148
P 3.4634469064706015 6.906500693717132 0.6425868149525019 1.0549112857804284 -4.365187836882941 -0.14368687149941062
Ni 5.111971266645438 8.73054158548182 11.592595963731533 0.011143418211329196 -0.09940758996606106 0.5108650855213847
P 5.910435314368949 1.7972900270760475 3.6842484320712443 -0.02722129760979828 0.28291442167588693 0.07391715900444043
P 8.494496342685427 1.220594179702177 5.821370178672972 0.7897922404147495 -0.3099580560572404 0.8487988008559445
P 6.829910309757995 6.313482915004397 3.1616742872069454 1.1189551515352147 -0.9446508122602634 0.7477876138481895
Ni 9.038604097078625 7.37504980354676 3.328433117368849 0.5728780368890715 -0.5159700108481178 0.9208987041459881
