# total energy = -340886.13497382565 ev
CRYSTAL
PRIMVEC
9.10958874492305 0.00000000000000 0.00000000000000
0.00000000000000 9.10958874492305 0.00000000000000
0.00000000000000 0.00000000000000 13.33280393953722
PRIMCOORD
 96 1
Ni 5.070251365916022 3.3479560713233876 9.706667675397822 0.6527591267864307 -0.06317843243069764 -0.15083942338379183
Ni 4.635878843743316 0.5785800455615577 6.520341216020116 -0.016169667781326995 0.09513750183579744 -0.3474231428822339
Ni 3.5888773659965745 2.9201880010218977 2.9854144786609096 -1.569107235447259 0.10115054079909677 -0.8852814691630109
Ni 5.31741272890891 4.334724948004634 3.315641627016124 0.39150187836900313 1.5227067938058485 -0.22259171352642956
Ni 5.048479448712977 4.830887810925564 12.031762679262364 -0.3913897782711711 0.31018739845922705 -0.5190964722922414
Ni 6.187533321161293 5.89431387725686 5.145969356962041 -1.255010988851929 0.3292991795880135 0.6407438474931094
Ni 3.692826883655127 2.9903591634549733 7.240725675448281 1.7069214502159766 -1.638576385982675 2.088075666802068
Ni 5.67894497913369 8.545914762456766 13.11539927927846 -0.5116017065770931 0.39942190454702825 1.1606687292239173
Ni 2.164401857646255 5.73553374468403 12.04097520640355 0.46849124854086416 -0.5523416074986165 0.01785065502817571
Ni 8.309366070401763 7.398288766959049 10.099319191880896 -0.25435332220874257 -1.503304735130153 -1.4390310127527475
Ni 7.6951247176122735 8.97194290129977 8.260992332020338 -0.6095923615909695 0.18259537563915004 -1.3226916800283544
Ni 8.77293482463964 2.652001707106572 1.9170173097280638 0.49349188435025976 0.813814571471276 0.07597327020252077
Ni 1.4095722210933403 1.2446340064998997 3.0964503454375576 -0.711896042157903 0.32580942126720014 -2.238335563533306
Ni 1.5754122849767813 6.700731115115566 0.9506821516569207 1.1705818745725711 1.3725903646310103 -1.1802155410075932
Ni 7.607882185790701 4.001660162741994 4.436877143795337 1.378274045279349 -0.5543064445344711 -1.3057792205437317
Ni 7.630255335853746 4.229354334495173 12.908500476810266 -0.3192052856871212 0.2969091932930822 0.2503480577040914
Ni 4.393718644994976 0.6647777075491592 11.308537850050136 -0.9378571863771977 -0.2353281872564915 -1.2420927381283642
Ni 0.5962599354810845 0.21741217888829278 0.6670323307741607 -0.7102651914226993 -0.8709054029469969 -0.23587711778142606
Ni 3.1283147760586996 4.687721513535168 10.03713440593816 0.8796795495952011 0.5462699473832399 -0.5401653771473988
Ni 9.179368237999904 5.153385473194258 1.8365268051160721 -0.7362690716856288 -0.6534209287401457 0.10411245164089812
Ni 6.288877496426511 2.4012329469536815 7.35612139141881 -0.7471949745695131 -0.6074730012551215 1.8799296963873235
Ni 3.3685710707503707 4.998568011744156 0.8582180035421334 -0.25595897613296564 -2.8500521705561304 1.6864148456221923
Ni 0.34173346995319176 0.022455136362135805 5.038253024339698 1.456283372075292 0.8006235267022986 1.112461059170439
Ni 7.374713151176004 0.9021945434156469 1.1637335703924532 -0.8029483181807332 -1.4974873571174276 -1.2083832616910608
P 9.146482622475641 5.892473740321707 12.968085386112941 -0.3462664035699714 0.03226683045350572 -0.4828441748284264
P 3.8368585919803717 6.582506871826398 13.125638457076045 1.2194163795767707 1.6775237137801495 -1.1254628707467456
P 2.1245565162880475 8.62362866440621 1.907150714111906 1.4928146342321065 -0.14771527593251332 0.4696557011626105
P 6.408058246538406 8.007037037709445 6.451264115200464 -0.9419956340256035 0.7010542143473927 0.10193884102834702
P 4.822844044025861 1.566585093441321 13.224474762547958 -0.6652071227417963 -1.5468291407753487 1.7209424470854169
P 3.9448254382943815 6.542552215402736 8.735946250325313 0.49277660345079 -0.26925749301408464 0.15387126823158015
P 4.497895902373226 1.408251330719097 4.1781138085222 -0.39381715676574114 -1.3271869967955465 1.1175814111161397
P 0.30703322434238134 5.763509291851624 4.230472081039446 -1.150892880784076 -0.487671935234373 -0.06440330597673424
Ni 2.282043087252998 1.5165187934631068 5.079705297160088 1.3477969597364143 1.7292663935700798 2.7925257942048876
Ni 1.9557285072821797 6.62358200767097 5.394506267861899 -0.7177486442839381 0.5997869454647735 0.18816412797617918
Ni 6.455163930160558 1.036015313668552 10.232233558049407 0.542903087793536 0.4150876361087432 -1.7189925224478975
Ni 8.527367639684632 2.3338675378672744 10.817023610287665 -0.07445400534451695 0.925686869563251 0.7289141739824543
Ni 3.376633056827649 3.91395304189224 5.227686012224882 -0.46508762217595384 1.5657290630036456 -1.2521696627483918
Ni 1.784796183266311 6.736795977126802 9.757639468501553 1.354012601628823 1.7021096306496297 0.7731052666773718
Ni 1.4678644797470144 1.2121947608262422 11.89330148448091 0.1512651980673008 0.5387355866794077 -0.27398523750705717
Ni 4.12984118657632 7.224049662213179 2.012707163232641 -0.6690172405165058 0.18048270017152143 -0.13410514134824644
Ni 5.446878204762327 8.276462235699924 8.778531755990917 -0.8037409892853576 -0.022926269778870193 -0.4085696324845674
Ni 6.9293271361587445 0.7902331424181499 5.2921099350916805 -1.6620752404355632 0.42336427429523865 2.3117976372781994
Ni 8.164141005945305 7.317778221251725 5.3284817902450685 0.11902227887319501 -1.261055652384112 -0.5003639288797447
Ni 4.7745632234500714 5.1105157483584716 7.1873279988503365 2.0418104651869413 -1.0901693376517743 0.38128817106079493
Ni 0.4922867328916835 7.843656562798734 7.305350009268413 -0.33853843879809437 -1.3398432521069763 0.8714142242626154
Ni 6.104800035789725 2.6048413659516925 11.952658654063887 0.5282154038743742 0.04200462656655991 -0.2567267075369256
Ni 0.36254614745687197 7.493529517736385 2.877538728234779 0.17701505333789513 0.4530708002207358 0.4314169693963861
Ni 7.441586642467866 6.318265029856226 7.406492862621419 -0.08558868180509775 0.033685822288219404 1.2123299050436347
Ni 2.2034546647799167 5.778804291426482 3.046305702995767 1.5417270436620931 -0.2021352454442906 0.6199523646690549
Ni 1.0223236017203614 1.362885578555431 7.47810334008298 0.4212986500154615 0.12315455587401372 -0.48424311205848214
Ni 1.2158385963413962 3.7641094159203248 3.901524829908929 -0.9100501914672585 -1.068980876499617 0.4027789939447193
Ni 0.6948885423286334 7.637907390435569 11.927712956127145 1.135590960319683 0.48076955168758495 0.1951351599773736
Ni 2.461957465813721 5.509114915361155 7.53035411945253 -1.798821933171715 -0.5815855919653985 0.28660961113928707
Ni 6.40558954797689 1.9213944671406424 2.9645890477329266 0.636086037006124 1.6613252496434163 1.248908218388301
Ni 4.1041339270169095 7.169474115784961 6.484622518382819 0.23288101126757957 2.05380800386845 0.00811311602543764
Ni 7.933486217836064 7.271565277330786 0.8561637912704654 0.050360197620106815 0.8551435121270498 0.20783923780760333
P 0.39382209864231654 5.843436823876525 8.625257458881483 -2.6465087319104033 -0.7260139696165239 -1.5676329648945777
P 8.307917645784489 1.9443233021197481 8.701868189628716 -0.3153512020483537 -0.5056064082256065 -1.1458789725092524
P 1.7862810462387366 3.2884066894169854 10.857595896831146 -0.3682120546031271 -1.0520432202040138 0.5464720360917169
P 3.9244017402319438 6.0065349015348115 4.6368426382370735 0.6630592231608581 0.0014351897846297864 -1.2953361708335367
P 7.050457338271248 4.291181113598546 10.761066139240326 -1.5752899672192031 0.5021097079262579 0.3072221451833161
P 6.069099557330005 8.144218335266201 10.975550496292193 0.3985521003475652 0.5331850891748237 -1.8274419109012527
P 2.087817544706508 8.776624208098733 6.348721118050762 1.6360662179663115 0.17876957413515662 -1.3964468595336337
P 7.128462747061905 4.161469678847856 1.8048217922987182 -0.617885197727381 -0.5891816591451015 1.5515406873184052
Ni 2.7257984858772257 1.6621537894150196 0.9103221185321976 -0.7933935846127625 0.6854193360236132 -0.002309107749150862
Ni 0.975491205761846 3.608900242152345 8.840369466600835 -0.5853386312499274 0.36198561407744106 -0.8225102994730609
Ni 0.4273053031910656 0.2805288757640308 9.634444122610835 0.6567800750203657 0.06011547723465776 0.6594704773683352
Ni 2.5982551332580517 1.8285677573920973 9.266325639692417 1.108736559131 0.1417009514176334 1.4593481270435449
Ni 5.186425951727915 3.3909533304022035 0.9957800819102228 -0.04511797538456101 -1.2725420557571567 0.029870819417503393
Ni 4.079310297569923 7.16061048589435 10.92627308670301 -0.23804147242259652 0.14173771819283976 -0.10244072036543
Ni 6.798012413781387 6.623554678904607 12.124945573932514 1.242130533344835 -1.7155652419339036 -0.24348758313883226
Ni 7.540790064367931 4.06222981859264 8.671402080886514 0.7817310606731698 0.2901315082496165 -0.32316324189360474
Ni 3.095629571487769 8.640481403663797 -0.2677025747506891 -0.4631955473595636 -0.4637300797067949 0.20342465367967547
Ni 9.327399055803031 4.792627538016448 10.918393292401488 -1.3089097957529137 1.2720458328470285 -0.9617306505606857
Ni 8.291110454470841 2.407263494731261 6.346108487986396 1.4625789752760165 0.7764741831496047 -0.9552396435197033
Ni 3.3959909330019036 2.8136240313812224 12.209822345545872 0.12603264875275713 1.6914614069071645 -0.5324687798340894
Ni 0.8008467243149143 3.7545534572818338 13.004723241258935 1.9980518320437526 -0.9006474100961199 0.553598105613537
Ni 2.931766288371299 8.774346810901763 8.337041912098236 0.6669536731192579 -0.7301999826734134 0.03665827465298203
Ni 5.38317485036865 7.871741425031781 4.198286992892971 -0.28529526320323767 0.9210586267626201 -0.220017267931034
Ni 2.917409576441593 8.696396059643833 3.9699624375956706 0.7963578094474091 -1.2356469825030203 0.11757269091086203
Ni 5.532471901013292 2.913046083412196 5.264057867378269 -0.19172382030297946 -0.13657931392035189 -0.300269882235199
Ni 6.203265580997971 6.036177503450589 9.516555112189062 -0.990965893276719 -0.39950829361324747 0.981046063059846
Ni 7.7414834149538185 8.89481201303275 3.607789783279102 -1.4509282784109656 -1.670844501987761 -4.364763090640695
Ni 4.554092955605687 0.7618412870429496 2.121809064309621 0.04749238915400853 -1.3715441827546833 -1.080473450520249
Ni 5.913835726029297 5.625981829920929 0.8932097559941562 -0.7785799166386979 1.834160717682325 -0.07705647596437051
Ni 7.979690052168215 8.959526531781883 11.714201503157822 -0.4933396750431117 1.7912973426598957 1.678126380361155
Ni 0.008843588795278473 4.839587468217994 6.406252726040647 0.9951997288524087 0.11868263614558915 0.16529673645970241
Ni 7.153122403910708 6.097056885320023 3.001787142589375 0.4302710287174009 0.8321159408836251 -0.16801387828054937
P 8.56647510435102 1.7198083768535417 3.9456698971750184 -0.32336661615366247 1.6489212195521088 0.7562164613418331
P 1.786864059921161 3.6659171583757155 1.7197318563077235 0.4611854589080703 -0.4958423868603073 0.7749042675593235
P 4.853242741811032 1.4285110561833525 8.69090844335801 -1.3166680995420936 -0.4532708320466839 -0.1820112210009059
P 8.730848524439613 1.9104083030624537 13.067214109384945 -0.9006042155630102 -0.676299633110532 -0.4777986419847191
P 6.099261405806691 8.191515320252899 2.000800930686876 1.619363817609966 -0.7086405113350828 0.6758897992666231
P 1.7797950190217626 3.4293046991991982 6.724626477465066 -1.6701454190382075 -0.5661859695808765 -1.2653697063784337
P 6.827372618444739 4.367965837491626 6.389306158018546 0.6531699890716041 -0.7388756560705404 2.006408945759196
P 2.352924797611529 8.866663383678185 10.487463283831723 0.3842937906563382 -0.29287976041871494 1.107602702636873
