# total energy = -340856.63521421154 ev
CRYSTAL
PRIMVEC
9.36627554260114 0.00000000000000 0.00000000000000

0.00000000000000 9.36627554260114 0.00000000000000

0.00000000000000 0.00000000000000 13.70849101423979

PRIMCOORD
 96 1
Ni 1.4268022452237314 3.0028373614621398 2.555111586218528 2.424200096842031 -0.7193203596464322 -1.0236338158233853
Ni 4.329523485536314 5.696812414847962 9.932981293675534 1.6818117996325423 -1.834944132815569 0.02969264196842628
Ni 5.861078158390005 9.268454334387693 2.557292055205675 -0.5540498484389749 -0.6645100966747717 0.15471484717879805
Ni 4.712089017237466 8.873375458327311 5.802091227173271 -1.1578795965145543 0.12656460999682717 -1.9831564029891586
Ni 5.65900075977445 7.753974382167891 0.6798099113768795 -0.4623054314451264 0.8331528667885716 -2.419490092960872
Ni 8.784836053965186 1.751559123193472 1.386243461482135 3.8002174848767196 -1.2295809788145984 1.4964272912840293
Ni 8.896453961696428 3.831003460446492 3.176586459168645 -2.345657780360754 -1.0923411484921122 1.7913832175054825
Ni 2.5017978082041776 8.36973208041975 0.5461503469984991 -1.2693585158228526 -0.22079245553416169 -1.1853914287815779
Ni 8.234960739113644 8.419729260202361 2.0870357037224476 0.4500988620766055 0.0555877645676333 -0.36780247786953435
Ni 8.235700674895364 3.4710855834314303 12.736902374576939 -0.11807688424079019 0.0827481270325091 -0.2322192093138646
Ni 7.8622016980892235 5.2388389973413005 9.898805626835745 1.5072413511803977 0.21600866099227314 4.1465455949225625
Ni 6.344977427084052 8.903684726550715 11.602578947943622 0.12284910881845293 0.5106334291265529 0.8808622570493927
Ni 3.810772304895641 0.4510498664959247 12.496948693585418 0.62636083929856 0.6950370616190352 -0.06816225879853423
Ni 6.100161712367325 2.731636848047845 13.648036817126357 0.6768123110808925 0.7495560186025221 -0.6488626199455019
Ni 0.32313182913266986 4.217708886014994 7.881053201226815 -1.9111742562239022 3.942874886670352 2.1093980824289287
Ni 6.020604566418749 8.010132656779101 7.322239649457598 1.754905434294423 0.12946481436275767 1.5095278332217295
Ni 1.02041827437174 1.150759367263238 9.003270716494633 0.6042118140053465 2.249941266093035 -1.3264948558245284
Ni 5.672712987425582 6.008765593911214 5.518860669226795 2.8482547123360753 -0.20825781340226068 -0.5991223152975811
Ni 8.795597904765152 8.856703487549295 7.026575360495495 0.6127980130124607 -1.0905174650198122 1.5145522830195142
Ni 3.449824137551601 1.5885297280462016 5.4506741819998545 -1.7254138525932092 0.47569830781226463 1.8535828309626787
Ni 4.975075306847088 6.101566653725023 7.616533652282159 -1.8726537315512009 -1.246550773899718 1.465555027185205
Ni 7.327893133480974 0.680468360559854 0.24768366834157443 -1.4356582396257727 -1.889596015832494 -1.326302280197748
Ni 1.4184100621804157 9.438115052743298 11.052731731919236 0.19870873626124486 -0.7574097103189859 0.008219302585998747
Ni 3.7330696815392264 2.6062411487354438 13.694851336419996 0.3581670116622993 -1.2604565853475325 -0.15790095821626354
P 6.855626779228667 1.03004680580983 4.452668468793684 -0.4260456777821437 -0.229330832022476 -0.7835665712200117
P 9.030560297426558 2.377451131772191 7.692793869178004 -1.5793134865562994 -3.154498295656206 -0.45960783000830524
P 3.9437265887124573 6.3517024130495665 0.06859953998610377 0.41391624150846135 0.192432673444546 -0.04840101701120697
P 2.1921019015889596 3.423710960849856 4.507461181743904 0.28566164540372097 0.4386615667739413 1.5550679837453734
P 8.003960281080946 3.563352765529314 1.1828332418319103 -2.8159511151073633 1.9908740833483907 -0.5067595479934434
P 0.7590139487308873 7.008072282814613 1.404407479982026 0.44036080885323514 0.7821380663036013 -0.759499502968479
P 1.1555080690522572 4.112544342253443 11.371028689526279 -0.5077435091732675 -1.3121105620783984 0.5701207858589085
P 3.548881869545025 6.6331308995479015 5.942096443350588 -0.03556838402291294 0.5987032254822915 0.8117414909923311
Ni 2.282823648193375 2.1508340907755117 11.80491672902414 -2.0034683750736333 -0.3669275314637487 0.39510836477333894
Ni 3.1777712930469706 4.343891352487706 1.1763105674219048 0.277701767126696 1.7843970159956366 1.4105933262373447
Ni 5.704314801698068 4.929171189553236 0.7578796927414393 1.3224865059960837 0.5642496717901122 3.268873819786009
Ni 0.4192391842749277 5.445430940852925 12.97542957177661 2.6964261855661364 -1.365863330319822 -0.6309505155517715
Ni 7.765878918605452 6.847431287975429 6.4463636152209665 -0.8493104503850405 -0.7296142853732726 -2.6935236672073612
Ni 4.080933161705239 5.884915330092281 4.027472333162117 0.06966789680978325 -0.9781625708644637 -1.0905547460156508
Ni 2.5167838493529557 5.50453214063342 7.497489224534125 0.0777326760957887 -0.11478150131897007 0.7797363988406442
Ni 7.373787884499108 0.6902430058991444 9.03826874234246 -2.120009796506504 1.0746144206363106 -1.3754753994882891
Ni 6.112684423002272 6.810219074547869 2.5732212803192547 0.09264687420345981 -0.9015879196325182 1.8192843147911248
Ni 0.3033165362236979 4.844069208379612 1.2672102732649622 1.4646155460900712 0.10404457451744017 2.112499861282704
Ni 6.375661346336175 3.432299835683249 4.580446012021169 0.4731989384291786 0.14818193115628672 -0.2920099562192519
Ni 1.2375660106175355 8.203536884079801 8.94762848233679 -0.3456850771452047 -2.873851329858257 -0.9776519497766324
Ni 4.677227739015122 4.601108016255047 12.647056374752154 0.41414841212392545 0.15139195345315218 -2.146732042992696
Ni 1.851703343170182 5.588847354646732 3.6826903577073216 0.34569201912374015 -1.2778436704757283 -0.9787161293750888
Ni 7.874602647139838 6.30340052917191 0.7879398180307446 -0.2563230443406037 0.6361220324503818 -0.2079755062751515
Ni 9.051990336269311 6.085381729284342 3.1466612082496783 -1.5297259054361592 2.321874819008543 -1.3166508731509132
Ni 0.8295373217494656 7.537697709563869 12.243162896613576 0.13672046748390648 0.8371002814720938 0.3678150762750246
Ni 3.2475500471459684 7.722981375817074 12.084089816329582 0.8271719666147883 0.6575475493140096 -1.0331810931921883
Ni 3.1845056452882026 0.6355879772019788 2.0658014200422006 0.6629175553766712 0.41831822723089895 -0.07024048148380162
Ni 8.963685088800135 3.283001400738547 5.624649006951163 -1.189636062990545 -1.3963591849158339 -0.15342055384740674
Ni 3.68430885015139 1.807091771925413 8.020152698542201 -1.9187800935956176 1.1029559478934812 0.044021914106904834
Ni 3.297331802587066 8.229996612983111 8.098551236184463 1.1923593754589787 0.22794783563202034 -1.8610305454899754
Ni 2.631352133935365 9.184579335333124 4.154523053393886 -2.2492403833712684 0.06605703953007334 1.2348874786291766
Ni 1.6441654058110404 7.716593575777408 6.428418767572877 -0.6358973180340854 -1.204820226930151 -0.6946148864799522
P 8.161407375900298 8.336378772588 12.903802851478453 -0.38333682605970754 -0.8593909745494942 0.11240914443205156
P 7.882816870944511 5.324006542444951 4.635910286940368 -2.066490227321809 -1.1718854238753431 2.2597291987177344
P 5.206497247287094 0.5069496732360108 7.8196525807575545 1.9993633517663243 -0.8958790421731989 0.21971927707464095
P 5.190724438978005 0.8709877749394141 0.46548517063248523 -1.093925976480729 -1.2561656712816625 0.9742529513974124
P 4.8555709949613 3.530598899343516 2.748237635130404 0.4137884576813454 2.5596725508514497 -1.1109001424412224
P 4.219057629718384 3.9490653658717094 8.1754427400637 0.10525762098893486 0.9201975643139055 -0.10238647008872688
P 4.205139344001456 8.05841580810532 3.492224331099354 1.8150823608946351 -0.34762934535576906 -0.2532534042763445
P 2.7577593910253086 6.9515655414080015 10.004100361829776 -1.1575803201065806 1.820698421529832 0.36679563387157477
Ni 7.517504019115891 7.572596452889086 10.018426080540436 -0.5030630729784626 -0.07598586860801107 -0.6369550698746386
Ni 4.518104080842251 1.7499481237699783 3.5831942840102964 1.0792267225973413 -1.065199555080314 0.3928776756706073
Ni 7.2038555441476815 1.044489602966965 6.576566087231839 -1.1590833870146682 0.2882574311553552 -0.04221622835673375
Ni 6.601988032785598 3.259585711443581 7.0802712825591385 -0.5103282391813081 0.15331385306621337 0.09670664609513023
Ni 0.9465839228868537 5.652416267944705 9.8530607362291 -0.1275046053125933 0.803353524038952 -0.16400784244494981
Ni 1.4624409243306695 0.6143780458385988 6.6691395465457 0.6658727813502532 1.2850975238246642 -0.2602180085196357
Ni 0.22899982153933526 0.6193974329958676 13.045411574058688 0.4571097461767999 0.5449900522295517 -0.006944035418000945
Ni 1.3069888462392503 3.2497885870425676 13.71781276134264 -0.22878472971101887 -0.7399560336189128 -0.6952283516942349
Ni 7.021934370877233 5.223946618949703 8.10341795304753 -0.8787423824929125 0.4484795813056276 -3.412943271435819
Ni 8.165509804664776 6.261655038296846 12.074589602868828 -3.3266768468374064 1.491208208976935 -1.659915256669767
Ni 4.742604343526667 8.222128941380003 9.806341752947784 1.1398355945286498 -0.03541257517133901 1.1949271361861549
Ni 7.158045089611011 3.1275586889228455 9.554009601967373 0.4966227166697576 -0.5144751714701462 0.0686628525840366
Ni 9.234567148840018 2.2943254347750623 10.922555485480373 -0.1685196142723743 -0.2253124548917023 -0.35330865512873344
Ni 3.251483882947523 6.767808578096827 2.027335062296003 -0.585107746186044 -0.1916898817412505 0.18641474938524025
Ni 5.43266470704931 1.485191608049658 10.03451921547908 -3.2053230916175575 -0.7126401194127792 -0.4916671724366952
Ni 2.6607809722412776 5.631004961653389 12.133193453408698 -1.4099240680844622 -1.978670085083031 -0.9971303702162183
Ni 1.838628022267873 3.2064601955711627 6.771994366715195 2.0882859830406613 -1.742300858156535 -1.5732017172316066
Ni 4.3226392728835945 3.7090264517711558 5.857693186345526 -0.18650268111335622 0.8610079413276268 0.4946524803172643
Ni 2.121217926955239 3.4518659856581224 9.363653160785306 0.223598300414073 -0.16943646965968884 -0.27122233004993934
Ni 0.7367643607628109 5.212716454363837 5.73067056494091 -0.1794789414973554 2.0263722762550005 0.012120437412617837
Ni 7.224320856591482 8.003679292809407 4.39348952892473 0.0837678265462751 0.7369164754616405 0.18204875910706064
Ni 3.89394483327136 3.3271727570245706 10.977581418695971 1.5912089524423048 0.27407316923517316 -1.2603683965091002
Ni 6.71956289187348 1.9987257731154136 2.4539024206926827 -0.23682791173046952 1.9374175061911472 -0.14447877127308664
Ni 8.952885772897298 0.6566058999131402 4.952658999171231 0.6964164584650652 -0.1523635733378021 -0.7192923346219742
P 9.075040740811275 6.465324703784459 7.85249823644539 2.546134664266015 -0.6578452830600864 2.251205220407123
P 6.718438938787321 2.001413894246476 11.5329538007664 1.8289357218379596 0.5797930188413498 1.132091946027489
P 8.9391922777976 9.114144941933867 9.648529373375434 1.0970287837757686 -0.8639598248670991 2.1558517459057778
P 3.065001333402414 1.0641868808018902 10.028542594943433 0.7198510353389215 0.5491267001057445 0.5265251606561449
P 0.720935354799414 7.337221944096089 4.438329637297018 1.0502213365039268 1.3997957214012087 1.2213328798731933
P 6.023920228022916 6.152275670462202 11.424094261234105 0.2897679542626106 0.08386655690766846 -0.9131658542781047
P 0.7775123432739104 1.0435904404980383 3.1079073058389386 -0.04109985536410341 -1.0213810152334668 0.5963187844105149
P 2.02316238646364 1.2421554857193486 0.4237312501092739 -0.4842132872618113 -0.13091054567034874 -1.2869502607626868
