# total energy = -340859.87415829377 ev
CRYSTAL
PRIMVEC
9.43194966801771 0.00000000000000 0.00000000000000
0.00000000000000 9.43194966801771 0.00000000000000
0.00000000000000 0.00000000000000 13.80461173522264
PRIMCOORD
 96 1
Ni 1.8104061694564655 1.9820110638375918 1.382587075151402 -0.3832504369934884 -0.6691763918021895 -1.350497389386713
Ni 9.057878656148782 5.574452097798427 7.733219786989497 0.797839021978626 -1.4809780466084947 -1.446018499814174
Ni 5.405544741055698 6.714237205619602 13.554030640381926 0.3882188367423572 -0.24346084366595488 0.7667410150222408
Ni 1.342619187939133 5.586657040819707 2.0384716584432234 -2.395282642476733 -1.2456030652744678 -0.9888007673046004
Ni 4.693507987916202 2.3244757285668607 4.980993817351 -0.4947586668778253 -0.14644746496368327 -0.30510407039904874
Ni 7.098645751041015 2.9748086662154627 13.103006120021796 1.9028433677607035 0.5910099706030919 0.4537112620182121
Ni 3.575142838055867 4.270051170386519 6.096475620162181 0.6792414893476754 -2.025600173975666 -1.7740272427255384
Ni 7.660261769015611 7.5892580510370955 11.688806921972308 0.04751784307530526 2.2029661828950773 -1.3878200370965712
Ni 8.929472091781152 2.7395192468886753 9.038638421783164 0.5942778427210862 -0.00462798569031461 0.03234524909992494
Ni 3.8116206830555153 2.633928569050008 2.213887060537331 1.3377940828874315 1.2968217542401277 1.7007762565501867
Ni 2.3614584036723016 1.2340951737174535 3.583691014145656 0.09771606119625106 -0.9747563733963922 0.22866568763465134
Ni 3.50225273012043 4.560159081861438 12.182625141700175 0.17902874133381425 2.256780143391739 0.3709338244096644
Ni 4.897266399113051 0.6759208742192605 8.96080785855055 0.22691450927149953 -0.485850308644602 -0.5698968427735606
Ni 6.8161494230422734 6.1023205994437015 7.376577015344008 0.015243042201999554 -0.07690863753259658 0.8286992018925922
Ni 8.929990849019307 0.25755070720841566 8.307987715743748 0.5783370031211137 1.5527071968226807 -0.41475493535967284
Ni 2.1080030490603625 1.560968825452768 11.777404999079028 -1.0246776837068676 1.472682896479238 -0.4258667290021182
Ni 7.196558821755012 2.439800178583242 5.199782983724598 1.753227789481684 0.13122370603539338 -0.8041109710302667
Ni 2.7199102232864787 2.3301631942869783 9.04805339405816 0.9181697352505993 -0.763610182702743 0.2680717002360996
Ni 4.450173115423144 0.5120869632656712 1.29312597463939 -0.6830747470508365 0.47626677872122497 0.07536391875329602
Ni 3.388069546027986 5.6084542767719325 7.66817234529996 0.5235259688185048 3.62935585273473 2.5632926641025406
Ni 2.0202010285154626 6.825524781128172 10.722760215573537 0.9587715679323616 -0.6663425218978203 0.3321883282103505
Ni 4.682566926166058 5.60851086847064 3.75372265930271 0.037254513476084224 0.5696775276739027 -0.3987066236475585
Ni 8.874172570194007 7.844467748308971 6.598439271724033 0.09041721354199267 -0.34235421299975877 -0.4081636552954003
Ni 1.8626591712631841 6.436956745851748 13.17864186853953 -0.046398384758881375 0.9083743464267324 0.2235684756174021
P 0.4211299555178206 9.00657828127031 3.357861840452828 0.326232881957864 -0.06909454080481647 0.10407799885853687
P 4.852870211476909 7.1412970279670045 11.413888222430518 -0.8862438330762801 0.27926576917970614 -0.13771111353194992
P 1.4691487942996262 5.9263015525633795 6.5914813223679305 -0.36519717903620336 -0.2630094552218438 -0.2822523626118559
P 8.886518992462056 4.47483766410989 11.239700860198367 -1.777663553926545 -2.4017124572624766 -0.9068106014840382
P 0.36020050310424256 7.699894822010526 12.196595745721133 0.5047715710291371 0.690845649245507 -0.78901782414257
P 1.7154452990250495 4.479327272207362 0.1160846651690201 0.25838301219342596 -1.7943705822685807 0.07289128884308738
P 7.14788052891666 0.5246767298381636 5.70470072195899 0.15651539072264656 -2.149868017518517 -0.3512952242431305
P 2.707686416365629 6.623426393093413 3.0804578221427947 2.033055858922763 -0.145703130598491 0.17827437966629295
Ni 6.05098249676609 0.7857464975112158 3.336739932105181 -0.5099554292229217 1.6380518809377724 0.5621292830129997
Ni 5.226205647851194 5.923189009134459 9.37309724753526 -2.1565274318165635 -2.892905775386547 -0.02727657632776593
Ni 3.669198241307961 8.101007350500478 0.19581010711336147 -0.8365726911033978 0.323475630927701 -0.7677553152193681
Ni 1.5937731468036285 3.989186569700513 11.070912346022924 -0.48883561652517105 0.11064973853878364 -1.143424597431489
Ni 3.0441806568812417 6.771225046218193 5.137924484257237 0.3350116565917586 0.646523173179048 1.6394883562739828
Ni 3.5220032329693955 5.776484462184693 1.121718208008762 0.4347627459401674 -0.3979463484427663 0.11320618641205019
Ni 1.64883686964616 4.217637825433461 8.345467454602838 -0.9488509663845403 0.3314699619870872 -0.1217011112569388
Ni 6.7401562036277 2.039498797774767 8.179853734724894 -0.12901332864763587 0.08692128457359223 -0.28564467612285643
Ni 1.5118095031754002 4.951349199177983 4.450689986271341 0.14707275725250799 3.1948977825191753 -0.8108125514201585
Ni 3.4814930086445113 8.936414006822623 6.529912383758956 0.456896087504097 -0.6920000745649244 2.0008486780625994
Ni 6.948555134118576 6.5976111465329454 5.014180132668138 0.6406795699140773 0.27362039796847065 -1.2746310770757017
Ni 6.910855630829504 8.891187807605437 7.500487369249316 -1.6162363277245777 -0.27299356301774924 0.5873217231182273
Ni 7.45271171400535 5.148948547165484 0.6741438948798406 -1.2513137425059997 0.09554913545191931 0.6120153692101653
Ni 5.538233410625539 8.532320982200737 5.262994024791072 0.99124742907288 -0.6126712576266093 1.080001653090153
Ni 2.2254213919289256 8.042557557685273 8.540168364421529 -1.774608312039989 -1.0124723998899272 0.434474011055155
Ni 0.46420755657407436 2.540165556241237 4.0723188319070545 -0.754046707384024 0.570441916643753 -1.0697632631915963
Ni 7.741272785715593 8.649135680283086 3.796751214220084 0.3856744730539487 -0.13068223170962653 0.3971966147609353
Ni 1.3054667377375688 8.713027708124008 5.414251373901868 0.6495442193935588 -0.5336167773956036 -2.0774840073291507
Ni 5.327778315081619 9.044183465061534 12.39159942112791 -0.9624161066634844 0.3831920729517272 -0.6773797535485883
Ni 2.090355871013364 8.286892216855497 1.9405142575652379 -0.541751490687596 0.7936085288370461 0.37792722500836207
Ni 6.484022175276932 5.72469362591742 11.811488292820682 0.5138061704275797 -2.190327153974828 -2.6458027069823147
Ni 8.271159724614774 7.749893587818724 13.888130108847227 0.6052816500307575 1.0803767770413846 -0.8277149836024519
Ni 7.054947527688934 0.6109743543924187 13.33365407685958 1.7806838288101074 1.1963124465694557 0.009151070371648756
Ni 6.245318390128117 4.383045928806101 5.296001133062303 -0.7707290531357114 0.826855206705318 0.18617795078408583
P 8.15961748646202 7.313628182481546 8.712946593355861 -0.4422163740047352 1.806016136927309 0.09886920096408779
P 3.2642469092556756 4.746242019161936 9.872271871545806 0.13486310256019354 0.016602384443371407 -0.7928071159816733
P 5.664715857237109 3.787720122301323 3.1069766921571933 0.8716649068208407 -1.6445061212035486 0.26382166671049406
P 4.543596578039669 1.9695891859712655 7.3938327674749456 -0.8580002648495546 1.6137899230666144 -1.6086932252699973
P 5.4160142053166105 1.327499772434409 10.79606249971456 0.2477013641098637 -0.45155487779684167 2.1815506933337785
P 6.90413065063308 6.898773303155424 2.447723016402311 0.31718748392614404 -0.48850600109989417 0.2297005566570689
P 2.490478044775931 3.2999185433410565 4.559662961302768 1.6470481708991118 -4.776507778419135 -0.6654963718474409
P 5.664630969689047 4.459274946965289 13.241715203139151 -1.7599458249318076 -0.23250511598539958 1.1431003813228506
Ni 8.743115627936902 5.805949873311803 12.818493241159105 1.7506661994020947 -0.7175221300954288 -0.3702221430546204
Ni 7.001647579456124 2.6882848956586938 10.944572321853101 3.048772733891917 -0.6452247660825985 -0.9143938131479349
Ni 3.991384214000327 2.948502958266196 13.613818826871567 -0.6564589442355211 -0.6035186445930639 0.6310325337426165
Ni 6.446784837527307 8.54803461054189 1.0068370596322576 -1.660309149674076 -0.3598330865108126 1.3375164037460125
Ni 8.060827244418054 4.84220267627052 2.869371729158285 -0.39726140656059966 0.510181943411431 1.4936569276277438
Ni 3.215493160819046 9.096294987621484 10.684258996552774 0.7618363786317718 -0.3084611597967397 -0.21114181981827507
Ni 8.980423484517596 4.589332102545225 5.270615040217034 -2.8055324908772006 -0.9331744361895478 1.5555922316799597
Ni 4.99334023961905 3.495839004266898 10.628778381529763 -1.3329856057551945 0.9004769459565266 -0.5470952714980126
Ni 2.607811500096433 1.6874889998634763 6.331443410001314 -0.07472088585265842 1.1739137671592814 -0.14622403609896753
Ni 5.920142489354031 2.2619607653944906 0.9959280665113819 -0.4366003133695384 0.083035833476257 1.206820030968999
Ni 5.13996933097054 8.248532477081502 2.9640024813472396 -1.6668613489702968 -2.141220369145848 -0.676459555727164
Ni -0.1038363351787304 3.410064852925688 1.4766519103532803 0.4561833777077885 0.6763585113729254 -0.8624143347568503
Ni 9.075742769040827 7.285322901177943 2.004526071168425 0.36001923437968963 -0.08038348345507447 1.8814160511248628
Ni 7.535769463808593 2.3667685914010352 2.554142762627045 0.6284388048735112 0.8381636897396015 0.7128208679650175
Ni -0.11352200441254258 5.998135282122941 9.935275409717017 0.7031239523922278 0.6450651005762826 0.8127179959729873
Ni 0.3333694355519731 2.6205352003558673 6.3877662981400904 0.1331198946168417 -0.6516756639142648 0.9739449332386904
Ni 7.27509866761143 4.4284419031194115 9.350650150242876 0.2220913768512433 0.654915253897485 -0.10833754546583924
Ni 6.178464730054828 7.737028408312521 9.682540656068623 0.8867963631456406 2.0325696633149635 -0.10767137263675004
Ni 7.3770108850341 0.23012919959962988 10.190054066883738 -0.4476288032695581 1.0050321415617982 0.057596053246913706
Ni 9.227238746481174 6.60204416293171 4.382660162059911 0.8247271046187216 2.114234327475307 -0.5910670490932725
Ni 1.1248260354627897 9.23103982224437 13.625055108649967 0.8111521941477644 -0.3400271075284789 0.17553589768920735
Ni 0.3090067092583351 8.523454949403208 10.073556282314152 0.3660870378403243 -0.447478650844939 1.2328946165688637
Ni 8.977282645239322 0.6964853543346375 11.9812850824281 0.33233359553896313 -0.3948332567350813 -0.6480977167550193
Ni 0.14117082201113737 2.89330718812668 12.568367364821132 -0.07777355663605316 0.6074902276463021 1.3874073750391847
P 3.7318546837271 -0.16619944395956857 4.498757088763651 -0.3436400216907179 0.5325217445592119 -1.5945413592496476
P 0.8848300731934832 1.411010255827313 10.079603105321063 -0.788479435140597 -0.8562853390409768 -0.5227178710949126
P 9.215156418807092 1.3964001656109577 0.5086584495189668 -0.8147638227584226 0.3840600773789773 -0.7199713629668697
P 4.21935444029426 8.209380453525604 8.536372004633225 1.4389795906895217 -2.0242997099966877 0.4592509608895187
P 1.397409384237911 0.13738483736759644 7.308837695185945 -0.7446925198626336 1.1396833852215018 0.04690334941975793
P 5.130499653386795 6.135087192995424 6.147400603439228 -1.7841933846252627 -0.046200152705146234 -0.7833097180141995
P 7.943540948846476 3.569908105925411 7.04801410140227 -0.6717444096396817 0.8350022612924844 0.47485935685073705
P 3.4194024832124486 0.8883151786388952 13.116038245039185 1.2724623515591569 -2.3502286875608878 1.7843587065585333
