# total energy = -340870.3320029186 ev
CRYSTAL
PRIMVEC
9.27083800374646 0.00000000000000 0.00000000000000
0.00000000000000 9.27083800374646 0.00000000000000
0.00000000000000 0.00000000000000 13.56880852915156
PRIMCOORD
 96 1
Ni 2.7987918494307746 7.270172680097235 8.400910842280709 -0.3767347473621576 0.5813793894918633 1.1214470647191332
Ni 0.3928017010839709 3.320434095637767 12.961197155959873 1.0394291309844292 -1.1992365621947862 0.5827119922603577
Ni 3.86016374693744 5.799307864628658 7.155904965351037 0.7305661077635804 -1.5460421260976793 -0.5034083721330234
Ni 7.56616272745449 3.501475021649997 11.762868094591774 0.5678875256530155 -0.7461745037247988 -0.676901528360589
Ni 7.9198359293410405 6.99809212414645 5.444702016431331 -0.9876774523334344 0.5030795280386948 -0.5201020307386205
Ni 1.4129684316634568 1.2930964952983333 10.953719544953877 0.3533022273708302 3.170645337729714 0.7676244460684586
Ni 0.9401556896200457 5.318262618370845 1.0771731139289946 0.771398311288594 0.12048883611639248 -1.0362142235915575
Ni 6.732241571384943 5.563689514843692 3.7224129993364197 -0.6169580579274213 -0.9185083495369406 -0.3104028569041428
Ni 1.3108130668678422 8.727094155094571 12.465284266674315 1.1884476991093984 0.38341498759581066 1.257392858820544
Ni 8.722023006665204 1.209130514814271 12.297737045486478 -0.9050041444029188 -0.32263873684870237 0.416784821305508
Ni 2.2543896957391434 3.418501020840418 2.329113577741969 0.294755380174873 -1.261381411154647 -0.7195401889667221
Ni 6.791890143587048 7.391472325526569 10.589695452351808 1.6302092449649022 -2.1098392837314055 -0.2691533633360526
Ni 7.731953124826299 6.740103242076175 1.66975025061581 -0.25231263762962997 -0.8023469371513086 0.5169496011525678
Ni 5.144434404384296 8.41192274375128 11.721930854885086 -0.7954692361948688 0.956474544368069 0.3177487557462528
Ni 6.9191509379013585 6.026888397798887 7.5017600694853295 1.1590432778053523 0.7877651826823917 0.6982095458097459
Ni 1.8669335598916867 4.491146257451491 9.258418864591565 0.27226259838899564 -1.1809652746894241 -0.7511601298648483
Ni 5.6267590262970515 1.7021258713562806 10.918182568428373 -1.7270691288084452 -0.5310688141627693 1.4873019319439933
Ni 0.028798004325675457 0.09308292265122874 1.158552530588937 -0.4516811189620608 1.857752903179968 -0.166609541733855
Ni 3.14749588210683 2.757490265787571 12.227260134407773 0.16220035692256582 -0.09562369744359661 -0.22778097103685288
Ni 1.9204911914757021 1.9371787000184106 8.45855135095484 0.6825785241407083 -0.6020963103242404 0.9966912257962705
Ni 5.242260287796886 1.3267032833357326 3.230896341468056 0.9258545054893668 -0.5431627692128258 0.5234768607481244
Ni 8.855513804168792 5.42958684202687 12.667120609582181 -0.8777699912773141 1.2849607411364838 0.3874284796305779
Ni 3.586933607064824 0.2286105232808369 10.094895063635763 0.4809443867025523 0.8325149760942566 -1.4774044703246232
Ni 5.471593009364099 3.4738015699833382 12.729795183333364 -0.8349801498052974 0.5848925448514443 0.46376967469547875
P 8.893867261302786 6.06561268845605 3.606223439856387 -0.08164666643821422 2.8088361013291365 -1.6061964269900724
P 2.7168098282956787 4.314008354270639 0.06974173361901902 -0.2593980837215017 0.3018799070347962 0.35499427036127246
P 5.79037077672023 5.636549031308774 5.720908095327398 -0.7699772625713514 -0.5970296944346105 -0.11743616533299776
P 3.4301637351441556 1.1586971556629737 2.1011974402332703 0.10477348226366473 -0.1841012707607152 0.4266737982844458
P 6.747714600139266 5.401014119066521 12.479138607099992 -1.6803277588878482 0.7544398290573845 0.20703268274590797
P 0.2345985575962455 5.067718219278232 7.419519391967822 -0.06111640769534635 1.457235708686232 1.0098539884304736
P 5.368111914723147 6.666743100354812 2.2093278601709825 0.12767069857681237 -0.5949095627678143 -0.8293381210281716
P 5.547548985747661 -0.05128442208697533 5.3215648908946855 0.3971644759714192 0.030480685087360408 -0.5120791604341438
Ni 6.8561277806383965 2.765045998822186 9.419060238494142 0.24057452325709533 0.8249081102812761 -1.3637208300555221
Ni 0.49190325181626987 2.625742385842886 4.526392129661308 -0.5346025383476406 0.33853998145999115 0.038092435996347304
Ni 7.379800340384752 0.3749636815356233 10.122181921354516 1.2673517698054688 -0.17318925183390174 -0.03460447744774685
Ni 3.4233867525082 0.5443066640594146 4.959725007744094 0.7610038554281475 0.2185360553998172 -0.8667456151423524
Ni 8.854456928627755 4.975621713798639 5.288171332133109 1.6384653143261074 -2.059969652594472 1.3836257965095655
Ni 4.387683704486697 7.383657009025733 5.5549480416187365 -0.2773472120007546 0.6375423098366763 -0.519357439263112
Ni 2.1625342320496115 1.5361593280609638 0.40477498846336435 -1.4719385621140457 -0.16911199644073455 -0.10922791849059253
Ni 4.625489972058375 3.38267850250207 1.9034189431527033 0.13364388544111178 -0.22590483706006256 -0.4237548248654379
Ni 7.359209809010665 2.257829176666557 4.323185556885321 -0.2174428223356384 -0.1737626078388685 -1.0581889280904357
Ni 7.2964647768900806 7.737469273483473 12.971211515253115 0.10857717228047108 0.02918973419007876 -0.08797183732529366
Ni 4.070713750556026 8.233079006363841 2.9471855191468106 0.20316857180481138 0.8263420145143253 0.4179042796219319
Ni 1.2466403256830483 8.810364822722686 5.034692712788405 0.5292322751746626 -0.038716699843907514 0.7512064097217515
Ni 6.684654359523986 8.126223326662029 3.451863985836332 -1.930047181869005 -1.9917174051852924 2.0626189172918608
Ni 2.86798938485454 6.529377092534082 12.808276536009723 -0.4789571810691945 -0.16242224312538478 -0.07924319920304418
Ni 7.2403854773485 4.407180276967429 0.8860279014941544 -0.10093842478829067 0.0757855796717469 -1.8601831098880157
Ni 3.9031618939491524 5.388962029563453 4.158867368600501 0.19762553049939513 -0.27092253942133343 0.8270796640112982
Ni 5.026583510720457 7.764206370504124 9.201510752125698 -0.014606694169581297 -0.2838729289344143 -0.5245446398910062
Ni 2.0639481399145208 4.223302474502938 6.472701678104004 -0.1808778787274111 0.2690690311523624 -0.19829941663796816
Ni -0.09142066138361338 7.916841448641432 7.1360941114594185 1.3749953745280772 -1.6854635374525169 -0.6898483183292442
Ni 9.12950415276391 0.6634554750543542 8.035584196928498 -0.14240851900761925 0.7447758236050592 0.6545684120810276
Ni 3.436412280009592 5.4659007147834195 1.8060222995431843 0.31910218445035365 1.301332240515972 -0.7853375470775055
Ni 9.25742317658185 8.188736587830633 3.1833100566909063 -0.13213799031954662 -0.41404042579115147 -0.2383345781829831
Ni 1.3696365344808903 1.2272179199069513 2.803424487218992 -0.15000587173890292 -0.7473654387091064 0.547173947254748
Ni 4.218351846968601 9.252518903237911 7.2827865823879065 -0.18639855143532416 0.39110078627584255 0.5213742125828247
P 8.35067958739954 7.864071838294156 9.066840704018423 0.2160307724794602 0.2557838840076821 1.3114749853769283
P 2.957805264166629 3.1291859769002466 4.553542706060295 -0.06295551778661417 0.6078057020041918 -0.7800642144937082
P 6.618136096305133 3.550258171623182 2.6801381011892684 -0.29716013296162375 -0.7134970680964356 1.7014915374496569
P 8.90646633025253 2.2634565753806815 0.9848874833525841 0.7367902342964214 0.02620082676508391 0.7584440651207712
P 6.549828561336978 0.6262182268251079 12.632425425154276 0.14534291904559485 -0.04190306799168912 0.27984221050846647
P 2.508021283912156 7.236742037983341 3.9896912611621365 -1.0635386224381231 -0.6968568884365934 0.2495052500878219
P 5.838477155513627 0.9026477329188842 8.64987085514557 -0.9118772173736682 -0.44159108171591044 0.6918931166734149
P 8.364289177699927 1.975838094809019 6.342630892767861 0.31166166901190845 -1.3635297970906388 -1.8865196909000155
Ni 0.7925175932074708 6.4079198428574005 9.57175001457612 -0.23496231927664052 1.7331405318135056 -0.15056894333122456
Ni 5.5469185687582705 4.195007876684968 7.90324761876578 -1.4382067170792392 -1.497798203489627 -0.12546880582948713
Ni 3.5562842163747157 8.66222610105383 0.6188525459711178 -0.3709204546732257 -0.2674214682466104 -1.163997536486834
Ni 1.553848087116235 4.7420429483911155 11.741496958651412 1.5257556079345014 0.8593498368989135 -1.9506070082982274
Ni 8.378390122418516 4.851160712584272 9.76807669841347 -0.31336682462847326 -0.6867133722446883 -0.3154581599398632
Ni 5.111476575012446 6.8593354906138275 13.438235545999822 0.19850998998687747 -2.050841207930642 0.8278841621904645
Ni 1.9948340420334691 1.9983569605035965 6.105814750703051 -0.055763113803233 -2.1417603008097177 0.9151931691207786
Ni 1.586527791345706 6.402885777780351 6.055813412606248 0.2882245210348907 1.4480825814320544 -0.45147157405441607
Ni 8.884818923337406 4.252144051767586 2.507963804716064 -1.7848608430059325 -2.5215194368204963 0.32010131513882933
Ni 9.03454295831782 7.4535962114958405 11.57508912346352 0.5272018750081954 -0.10361005808318285 -1.8830271043657247
Ni 4.90546001121463 5.530286685244037 11.066299967169646 -0.04536351573646381 0.14745328052037832 2.0383847273348445
Ni 7.260623716875574 3.8794749026565856 6.211271460938698 -1.1903318035059887 -0.571799459112912 1.313477103408622
Ni 1.3765803922022728 4.830903931381039 3.7888728562753724 2.3645898413785664 1.717735253002029 1.1264324337488667
Ni 6.698866554299526 1.950018810758217 1.0567346242994082 1.2456963963192225 -0.059140257805582026 0.23064749395137052
Ni 9.0329854575205 3.0384522846183084 7.979924866351911 0.431262960317025 1.3741301983143044 0.8764371313985033
Ni 1.8491057382652263 7.420388069495851 1.6376064008273212 0.4989210257856311 0.5562000620127583 0.9037566451490628
Ni 3.8668294795164444 3.291026997250283 10.139699169905318 0.6303506771842434 0.32096469158038915 -0.8712154779882479
Ni 5.144323154327345 3.253294686267602 5.097679713782858 -0.736237704227061 0.8882235825104702 -0.7351606691127984
Ni 1.3706841391838491 8.798572316685839 9.815011243273645 -1.2930982826419537 -2.0813170079219963 -1.6459824486387589
Ni 4.6981455300857125 1.4465195946723806 0.25491189091176153 -1.0649527291768304 -0.2278413919611431 -1.546007159094686
Ni 6.870525392175522 8.487813824268287 7.377428860004071 -0.7094797194069266 0.8289583690912498 0.11035534722681639
Ni 8.133426767849633 9.274082872610322 5.038519714747532 -0.5657373120792322 1.76902027642925 0.9700553683762971
Ni 6.0147899541054235 8.599462527257087 1.1106779227475219 -0.14758209278875875 1.542244349618144 0.9762267872943315
Ni 6.166646281844073 1.642959382734299 6.578009127846575 -0.02972709475078751 -0.5664960446221277 0.3259364337633677
P 3.3913560069442785 3.4612673969001486 7.949748288403846 0.9387046219791576 0.30086792083051406 0.5010136466486016
P 8.871756312483697 2.525682230453189 10.14940110195529 0.8030460201008621 -0.635254542243764 0.7768997007227976
P 7.435471723050843 0.46213088240846184 2.624153364196097 1.6835670917607521 2.2695618685374397 -0.41485289439011785
P 3.3412193146115188 0.41684561964259026 12.147924010460505 -0.6517008607252454 0.5084153384293115 1.2427026037982212
P 0.05958645758697288 7.45928850607652 0.4338613158533055 0.5649037604343433 -2.0735733594208354 -2.0889997212782347
P 2.007507277687848 8.814008262087844 7.162431635358852 -0.4350697356576249 1.2966260932895541 -0.27701476836200034
P 2.9970301800800736 6.17236638893899 10.509395161244296 -1.9626176596058587 0.07251770755375253 -0.7585368819448935
P 6.230299856096425 5.433693823295992 9.543486010523809 1.0885531422045898 -0.22259634151211985 -1.5798475046828986
