# total energy = -340874.70631219615 ev
CRYSTAL
PRIMVEC
9.20990205288531 0.00000000000000 0.00000000000000

0.00000000000000 9.20990205288531 0.00000000000000

0.00000000000000 0.00000000000000 13.47962260556251

PRIMCOORD
 96 1
Ni 2.538433262385756 6.384967363328852 4.7781350558816715 -0.18042176502659896 1.1016945646825544 2.4055673122321926
Ni 2.2910644974397476 2.145861178323668 10.990961056958417 0.6454628502353336 -0.5843654687033807 -1.4213217683984425
Ni 7.165423691199948 9.117996650679956 10.82075377418204 0.8458476886474207 -0.40801710241520694 -1.1109705906678415
Ni 0.6279716600240018 6.557662240707109 13.09337820530603 1.2393915371471174 0.554839948440438 -0.3784815548499353
Ni 7.751864217948417 0.89623032528836 5.9100191504344695 0.1762087553865159 -1.242232349030022 3.260273222601192
Ni 6.886096565393049 4.365539723304407 4.874419979115152 0.7609195232444573 2.388002563875552 0.8948261754286525
Ni 1.2928768701126556 1.0547640569433596 5.861991352100933 -0.1933418155223767 0.07411744794070461 0.6599376468127408
Ni 7.4849152007861965 3.11388637573162 12.889781342856724 -1.658498064607266 -1.0085959476536566 0.965886067489956
Ni 2.6770975508934116 6.230176535954506 9.593366677098093 -0.6401329533819878 -0.3746912345695676 -0.3600408316462444
Ni 8.27176320082947 3.5233586304506925 8.744905351889612 -1.3142826300290527 0.9477536195553032 0.11642392201839948
Ni 8.84113777868018 4.5944978936219085 11.834569684663267 0.9089746990148927 0.38610564705409633 -1.0054422325160233
Ni 3.5241138424364538 2.1036890358504645 7.212218283620149 -0.6134924679763241 -1.9508157818749239 -0.3761433936350619
Ni 6.7473585976672705 3.9802895115432997 10.44370221741758 -0.26086618362659586 1.4653333980927021 0.723566793627612
Ni 0.3063425321219569 5.5708304228732395 5.191825445838291 -0.7711075195210526 -1.172119137152704 -0.2835795660637116
Ni 9.18371851324575 2.3541154883485813 1.6760428809911052 0.7941446038461742 -1.0355786468900874 0.6030787288421678
Ni 1.5999442215428985 5.3681204740120885 2.862761812641786 0.07959801143930163 -0.4507056424226689 -0.9627755468854322
Ni 2.716064647378261 8.523525089156069 10.678166067309329 1.087518273182172 -0.8557528635762746 0.12762081917548343
Ni 2.7788669709259297 8.675387167610022 7.1306535471774355 -2.35049685362061 0.5647525795684596 0.6818802125221031
Ni 5.4407221335701275 7.0959902380212005 13.378310477631645 0.4738563695075194 0.9974144771155403 0.240969701812985
Ni 4.661011807782527 0.7827597244276688 10.542898390757149 -0.5367218986834885 -0.33148667415763555 -0.7648443122201602
Ni 8.537717548547029 2.989119829742432 6.4761500007073085 0.07694309031495782 1.388709638790376 -0.6137503496234011
Ni 5.1653000063237515 2.987940962252463 4.4172450356125115 -0.9685206768993255 0.08929518412240751 -0.5129281386980005
Ni 4.979508647924114 6.2266123037778005 4.588341994947724 1.1011754589542906 0.4787121549379239 -1.088867331010899
Ni 7.928519353300791 6.764525855489951 10.825876321822047 0.6513745877340782 0.40690818562174436 -0.9406668879118509
P 8.439862336977301 0.6483955392877224 12.57915712717159 -1.0344260213428829 1.0425152261089208 0.44370427140417135
P 3.398380256709401 4.097236850509175 10.554760744874967 -0.5479709892347466 1.111695384649008 -0.5687064220098851
P 2.012943868829614 2.009084919780417 1.1008660647132036 0.43960670429603 1.0009075778704635 -1.2877480740736338
P 3.1308970652157884 0.712062672658111 8.964393900697843 -0.006395104893066406 0.38363584535736506 -0.2118442452019384
P 4.4590939105162 8.72351811684893 12.42833392569317 -1.075158980285871 -1.6397225837719758 -0.8375972757131703
P 5.351561069738923 3.088780182156177 0.6523180366625504 0.004450065351553626 -0.6283351894161114 -0.32793700913316426
P 0.3280290889862619 2.8114055556295394 10.440830569891233 -0.2200365512047436 0.4579605242128694 0.05392091838817166
P 7.295697758743836 0.9825400033782007 2.3473416052323897 0.815582462004976 -0.9196177805510355 0.6138773621195686
Ni 5.776183613684556 2.8006483897835683 6.828844128950502 0.8213764429789339 -0.5593324369941528 -1.1338847762618536
Ni 4.771779302328328 3.016289041425322 11.759030066282568 0.47947114459113555 -0.10208822212201774 0.19105996146673548
Ni 4.54706689695517 9.009623730723154 3.742496281982613 0.4037806957363562 0.6943053256593332 -0.4144515451866411
Ni 2.346471269468311 3.6691145437026953 5.903050017390251 -0.23487053089378263 0.38113441909175005 -1.8005309454430218
Ni 1.1037331072884182 8.989067228866812 12.372272329613537 0.1809133599510368 -0.2778336647188699 -0.2794138647217962
Ni 5.9233486419831625 1.0038517172203045 12.516153106764307 1.6590161418942655 0.9251844760055357 1.75613956381184
Ni 7.320730273101156 6.076242229490839 8.560328779598779 -0.7823596953961042 -0.3344442141240627 0.3642996069225984
Ni 7.6289304425100415 7.903173702266447 12.878027665585638 0.3828472880177987 -0.06402663936360586 1.0405671012436144
Ni 2.004489178549989 2.943208466949482 3.117419294240622 -0.16397236122132405 0.7460762875840377 0.3272695507524945
Ni 3.2649748223952813 1.5931565235733087 4.711626667662411 0.39296457895745873 -0.29053054346024804 0.21057206335773412
Ni 4.838670822481829 5.283776189065681 9.426206029991105 0.6248775698848141 -0.2929070141122246 -0.298456483175544
Ni 0.8099197262082928 0.43540733949840005 9.871626375232433 -0.5285676450074703 0.8022615765263539 -0.46857892315866395
Ni 4.117194708718267 2.013524092672333 2.3247359001219996 1.2447206626695144 -0.2015112387070465 -0.7951877003987079
Ni 2.2618322676494116 0.48815152878204054 2.5515039556807926 0.6435381224087949 -0.3811573019098855 -0.2705191333353277
Ni 7.583083549032949 2.2353906382454873 4.246768823689986 -0.23389171192028105 0.850510898451045 -1.8313101356074075
Ni 0.9978652807478033 2.4717351501798293 8.21608657866453 0.5122066871509436 -2.542523292765673 0.06013578894963192
Ni 7.792074651239093 1.0601150101595491 8.663164706313628 0.5213518439853215 -0.21060188815440503 -0.4001050466569819
Ni 4.849980582463723 5.004964817785643 13.173460147484017 -0.20779347217133243 -2.2352702943444216 0.37799175969771037
Ni 7.176576882843331 3.156261136054662 1.999364788929528 -1.325866221101594 -1.5840458590349622 -1.2232738056496482
Ni 5.520516726797434 0.7456511862199746 7.635424344597365 -0.514398809706256 -1.8491975574107895 0.4775662142589388
Ni 3.3449351938633645 4.15423693562965 1.5208790525750107 -0.3332514793675422 0.004554452139901834 -0.39024023804776015
Ni 2.332895873529132 3.904556485215029 12.585734839369527 1.2614906830390016 1.6132885579501635 0.2514132657438122
Ni 4.906492542764133 2.794127778979675 9.02259864103463 0.16480719841779357 0.16763515478489194 1.2232262402411642
Ni 3.4691215160098325 6.347943556221999 11.916431900949151 -1.4882974630880434 0.24759851998341229 0.038169054870553616
P 5.223442119325135 6.752589822154009 2.2364847746346155 1.0782589593674332 0.4304993426781231 -0.45789444686162434
P 8.831062145601846 6.613271630585511 1.5950307386843148 0.23263392825378001 -0.41732115342495224 -0.8234595507602075
P 0.885187652472162 4.562650051588203 7.357299111036099 -1.8560436337983452 -1.1210657701203144 0.17508955418040814
P 6.740709048231662 4.5517639471105165 7.157585143381877 1.0091353650968942 1.3739713041389368 0.256591467510642
P 2.761414206133023 6.08316807599441 0.661465311592532 -0.45735811474218 -1.4229109672624334 -0.45007495081720555
P 0.3250809992711117 0.10556389976585713 7.535015227129445 -0.20281401667887006 0.23253802610586402 1.400842160387852
P 2.3159772830676175 8.716269923766072 4.394478157212476 -0.4939935065770266 -0.5182130412460237 1.9445505176915026
P 6.567829972808096 8.272951278221706 8.626863876534609 0.688620359459414 -0.6782778398828254 1.618068238726994
Ni 6.797570984818155 7.53148046663999 6.586966307735115 -0.018280029256110455 -0.06139742927087491 -0.15876870553319755
Ni 6.867050487508229 8.707999431531755 4.321958465784599 0.22468793393382597 -0.8015496380609938 -1.4522382554716406
Ni 5.361378825553825 7.396573818256612 10.725992168783254 0.39874673285687456 -0.0647123525767208 0.14250287849363844
Ni 4.593226927109285 8.268014770607458 5.979844024459495 0.8074379785209708 -0.5021410753848256 -0.5348851025850659
Ni 0.4079415689625652 9.036765312699249 1.311590470525694 -1.7698777393335388 -0.7359219727588551 -0.796571468120112
Ni 1.2608356201313768 6.566190610204858 7.16871991522073 -1.5808728606236193 1.0540556226483524 -0.44872563587816267
Ni 0.09211099552680743 7.447974282799732 8.820944146973094 -0.8518596991694555 2.422547391729957 0.7575770891347856
Ni 4.583335492076261 4.831726556173727 6.506168756151109 -0.6018114320939699 0.36147345032771294 0.2585303364045677
Ni 9.168476124996538 8.114071254241528 5.820164580962682 0.1133383411145403 -0.6177358166337104 -1.0150159922473874
Ni 2.6970001496889116 3.9292850727975908 8.242573336589555 1.9015233633976991 2.137968180757137 1.9423486249441777
Ni 7.0769809997454445 5.330323035114943 0.6745645555845908 0.1926807848996101 0.7615741261093207 0.43600561720833303
Ni 0.5774010076749925 2.5105272585216363 12.80739416214171 -0.40488138499970266 -1.79238954728281 -0.582398574784997
Ni 7.091606324542877 7.886485359361568 1.8216901173963764 -0.055242979633704864 0.918556686276373 0.4386836782611284
Ni 0.35879568849401117 5.326114109779661 9.608140281322 0.5331334100012818 -1.700735890230555 -0.8181304252378104
Ni 2.6786448144739965 8.159733949673313 0.6366050224075749 -0.5733598616214964 0.5264457135684611 -1.5251138605854444
Ni 0.5027768535794739 7.4156291060436965 3.3467744113457623 -0.2215560731730636 0.5783961384938232 0.9564575750872044
Ni 3.2717993599739326 7.398765774995773 2.773634825448964 -0.9166859516162214 -0.9293468349133414 -0.6981961760733072
Ni 5.554897291954121 4.566739248194034 2.4848334731816615 -1.4846331268625785 1.3148482727245354 1.2809706461404842
Ni 8.271560582979632 4.865011142960833 2.904224792640555 0.7224347369056977 1.1485223236693705 1.2798529875962732
Ni 0.07191460084904194 0.6321234839652379 3.7363219635038982 0.013711436048821546 0.18557579842371266 -0.34003533505859507
Ni 0.12184792796128655 4.551303451997247 0.7070718266204981 0.8525459266032027 -0.390103969580212 0.7365765756237185
Ni 3.366992909788965 1.2168399170096267 12.976199697793296 -0.6910564797047325 0.816314197964678 0.7910153141885732
Ni 4.450768158868291 7.535588083050351 8.474126857365443 0.7557652327370274 1.1554568460056744 0.3298589087462255
Ni 4.759364354074587 8.90924500593271 1.2367968542284922 0.7398416195282356 0.9726454977009763 0.9110282391098116
P 0.9708802671102217 6.930451454703149 10.92619149828686 0.5359837349658834 1.2698236283847293 -0.024058069390468242
P 5.551084392416251 1.0257436549051275 5.378949477095729 -0.1970658013411832 0.17250610972394806 -0.07093236534450365
P 6.557570141684456 1.921719786890963 10.332467780826924 -0.6641707110574818 -0.16874689979183194 -0.062252578182318594
P 3.2098811870437407 6.412440501786499 7.188210831384967 3.1280118193299034 -0.7368817655689632 -0.18503895208363616
P 3.5033363029257427 4.615229383621293 4.080577979291544 0.17064077438043515 -1.3518150797568718 -0.7305167425828838
P 6.785736260407134 5.5547959830292015 12.034499164030496 -1.4028411930957518 -0.196781437331545 0.3353351013694483
P 0.6209951590579718 2.7862256828359735 4.692000365934873 -1.3394413886828676 -0.14961917782344553 -0.18950650093668656
P 7.682624172717243 6.749218997924878 4.741470434963169 0.47543759795171026 -1.221447808184503 -0.37841676305027083
