# total energy = -340888.12150974775 ev
CRYSTAL
PRIMVEC
9.11852111059086 0.00000000000000 0.00000000000000

0.00000000000000 9.11852111059086 0.00000000000000

0.00000000000000 0.00000000000000 13.34587735959421

PRIMCOORD
 96 1
Ni 6.440375119512723 2.4618548544328767 11.60354631621576 -0.4188419609448529 -0.9470360246629884 -0.7043051171845224
Ni 4.383428203369123 0.9416970501283278 5.879205817276103 2.4574956256703677 0.15270553005825313 0.8301112517487703
Ni 2.7406445246334465 1.4426230176977766 4.398760996933663 -0.1686466267685418 1.3090316660427586 0.992247331092304
Ni 3.7409371926301875 4.239939152205514 4.572751501842967 -1.448011618984803 1.4261428439361696 0.060213693375418875
Ni 4.077036769195989 2.896170023911949 2.472444193217593 -1.58287780686879 -0.6056140936695118 -0.2850273542538317
Ni 5.6629482305887935 4.5023154840675925 2.6291240972925696 -0.4157486667315098 0.727911700859869 -0.38949153280719373
Ni 5.469207008545504 2.8387871693763245 0.46345978725545317 -0.8652224936296067 0.319116839738373 -0.198243109478736
Ni 5.684632074238199 8.299076264091248 12.662194784970747 0.4230536850333553 -0.8642616723782341 -0.1301045048292856
Ni 2.202715597632 6.625107242512439 0.3208379074673947 0.34099101410364496 0.6648181148334937 -0.5316295717622457
Ni 0.8933041457415466 0.28514436769395607 13.494817907022762 -1.3060234753440538 -0.4585451930717458 -0.4582801123358172
Ni 8.020013038251705 9.271438901348656 6.980735044292526 -0.0447932450552906 -1.4623568319628815 -0.7704436606848086
Ni 8.833102463976655 2.727905950378518 1.413848611886142 1.036105980148467 -0.4634544574479051 -0.8627380366448562
Ni 6.884811847633865 0.7873341623154688 4.607771182892398 0.9484521882842245 -0.3699861157844144 0.8807475858483993
Ni 1.118359281778287 7.365467342355277 2.1916466246269475 -0.6634741992110896 0.2167185425751042 1.291163784623402
Ni 7.97077302323623 3.820013009336518 3.4580104493161876 -0.10876229170808366 -0.05874919301475043 0.29524131867235603
Ni 7.967955400154789 4.121726642083181 12.440986753070124 0.9368410864078576 0.9249201666005555 -0.0994448709618997
Ni 8.365313202808359 7.719648946657316 9.10324959968988 -0.066714213498098 -0.3610420192172492 -0.19555270713076647
Ni 7.101194358062972 0.8540963278594111 0.32019687542006364 -0.36999691441769184 1.0142387477617307 -0.7902000173761294
Ni 2.2606182078816768 6.902228223315264 9.060569448897024 -0.19296874845367412 0.28309311334559634 -0.41342490369433965
Ni 0.24131893062592505 5.199782059719173 1.161475297889243 -0.17045694050440321 -0.31337350949669257 -0.11748475918274605
Ni 6.865909152980703 2.1673357349912523 7.026991479138914 -1.001362663130011 1.2142106670061155 -0.8500748393548908
Ni 3.560217219002102 4.518072288872545 0.04834639992815542 1.4112988369448016 -0.044970136952787065 0.1058551453636177
Ni 6.4593325252936795 5.319316755429885 4.692624494693877 -0.9918310694904918 2.9834939672887653 -0.6816267017504003
Ni 5.25964515204817 3.0104250957904455 9.265148945356495 1.006237988944441 0.1166360380292056 0.6288458105039428
P 0.3431144550012468 6.050157119036396 12.367197855013048 1.2362553055109806 -1.6595558164478195 -0.12729094663989046
P 4.576613195613162 6.345524260958843 12.74581983195323 -1.4499484309961999 0.4147117408265632 -0.674340195391316
P 2.6687541027108557 8.727902083748225 1.2865093737954785 -0.1485334009584345 -0.0033398630065103775 0.052165883370277895
P 6.509684999907651 7.971165119652094 5.714731401194603 0.3268162652651597 -0.030842182191837205 -0.11237134921558066
P 4.809481992551155 1.1588819904317615 12.540440641175822 -0.08161684164154331 0.9932184367563217 0.12926786786060318
P 4.362182048742076 6.357496879424642 7.935792551828386 0.04030769848011123 0.6534880345326552 -0.09512233232714586
P 4.9602749792753915 1.29029811939528 3.629905518030945 -0.6101788302220588 -0.8980302841882468 0.21373349180485124
P 0.19342572120633797 5.5386354297173215 3.449749069019147 0.7707118267445308 1.8646570864989693 -0.04263377551012657
Ni 0.4048140175198946 -0.19643574508719125 4.662956473794925 1.3510591754274537 2.396896523931072 -0.44651191605629553
Ni 1.854433676610518 6.758675342502561 4.700351529642787 -0.00614827898958296 -0.0406653389298461 -0.40119133774262516
Ni 6.370299283328665 6.139126531352318 9.342020815464819 -1.079543739617128 -1.4068742255145448 -1.5190730537080033
Ni 8.591069553133005 2.536973232895371 10.424251604003697 0.928236375457982 1.011055722048059 -0.6589729689066264
Ni 2.6571188695331256 5.466416741027961 6.623158614510809 0.5393130564494324 0.3691978155551642 0.7806776797079911
Ni 0.9346940257705716 0.26363651150562334 8.959728633701724 0.2361511973784191 -1.607952747559547 0.566358747713315
Ni 1.5990603691061949 1.4153859945771805 11.109749208597997 -1.2227564996935976 0.6819902557374061 2.3558012965526585
Ni 4.517461347945501 6.87169941400567 1.534656253170216 0.0315453789064489 0.48122489405744867 -0.5666873346973271
Ni 5.790990506671622 8.066326007930146 8.07607097164256 0.18002093004375447 0.7810921415375903 -0.5881745580368257
Ni 5.580380020224885 3.0412821718668086 4.816247023503003 1.236863885629257 -1.049821787072663 0.3222476720578708
Ni 0.9034740325465017 7.965858140255982 6.906864991395888 0.7830001571935805 -1.0194765991219024 0.03729308002350351
Ni 5.774440390513643 4.658205724198062 6.872872967696872 -1.1349924075037356 0.2159940057042538 1.150099181238187
Ni 1.009602678243185 7.802846334990868 11.289291069274231 -0.6481712503054321 0.6889795425710457 -0.457827855289747
Ni 4.6446282459836095 0.5812336965032959 10.217296732745794 1.234634482078106 0.13913036247697974 0.07022042687914358
Ni 8.463209647476159 7.03399997460945 4.844473406184558 -1.2699447273436257 -0.8261502102184933 -0.05910863323669821
Ni 7.408534118451218 6.312378436036389 6.975329584866384 0.9178056670429613 1.0962283993616604 -0.0906360144210181
Ni 2.608042987901037 5.385252782944122 2.4259470294089076 0.3917008817536867 0.2535418820510408 0.9471638084901043
Ni 2.5802588535024915 6.114816553568752 11.397566214884739 0.6132232734753376 -1.9619723127123758 -0.3200979727047197
Ni 1.262495747954136 3.6433143036013624 3.7835033619068046 0.7351609262231146 -0.520623193349413 -0.6192160007236626
Ni 1.7926739318512956 1.4867748978283177 2.440694413906042 -0.8973823661916029 -0.1412911175737244 -1.8851472360325212
Ni 1.518242914831725 3.9729488485660585 8.031989304126023 -0.9171019561077174 -0.7243147275372299 0.696514160385194
Ni 4.095209982145219 3.182482474184328 7.1235092033862815 -1.4676394205180596 -0.8691477968259419 -0.4430396412369789
Ni 4.151662747508329 7.129726211208049 5.827330549605171 1.7801534102279344 0.006650672547298224 -0.7224321658025364
Ni 8.305942510629517 7.611722128560438 -0.19204882449016455 0.035647831110596676 1.4061476317611654 1.6842918857419187
P 0.3332163001310067 6.054014253545942 8.0016547193201 0.3893071847105295 -0.0035751189457680363 -0.9505741197232339
P 9.10105933087382 1.8106921299384393 8.129267513049738 -1.0833978232558954 2.4540189799756766 -0.8984344616052011
P 2.1862384296444146 3.713982843669866 10.228707650299564 -1.7650582064577085 -0.3915013641483709 1.0020105811266549
P 4.447914385996794 6.218913592719982 3.5985423640224785 -0.9511127658355232 -1.4964622582870226 0.8959854858440761
P 7.132270278650516 4.267203530890007 10.27759386668863 0.1586774313709719 -0.10690055590899654 -0.7086795921031344
P 6.5425572691911285 8.362614120503807 10.31095853612226 -0.13777436266971754 -0.9184990935655601 0.22749737835816305
P 2.7201187331890337 8.720379303676417 5.6467747093604705 -2.5569065580705383 -0.0649810328570752 0.1522974959865571
P 7.123416194469029 4.101410576628648 1.145935513891212 0.4920811200456622 0.12506205730937173 0.7328322780899378
Ni 2.6712252219829287 1.685038906435991 0.09121712781616421 1.8179722808479208 1.699852716294653 0.6938759514313986
Ni 1.928694914070891 1.4757597240989304 6.840790362357902 -0.01992656372059794 0.4117403169030651 0.2019257005366458
Ni 7.200376514233954 1.019979555481631 9.125671131712387 -0.4012782410294767 -0.33397987289313447 0.7578771368737077
Ni 2.8313555745175076 1.8414215467166144 9.251990007269676 0.8533313986189756 1.0884050466624997 -1.8928872849892562
Ni 6.720714938334151 2.0342235610660895 2.4785700158263695 -0.34842253068102574 -0.225889667551411 0.010754924523658897
Ni 4.548546387054343 7.237105918026978 10.678597254157605 0.16157917839879915 0.08373491642581063 -0.8268963443558984
Ni 7.572804279655616 6.498833959561648 11.21077786533206 0.18583470851205416 0.12023506823437356 0.7759458214499605
Ni 8.01734131151105 4.131866437767849 7.9650201481485885 0.5094180686622131 -0.3408683724828516 0.948413107516173
Ni 3.1662879803570165 8.805938389026451 12.243775021820374 0.3799031177878103 -1.1228832829450273 0.8414253912100089
Ni 0.14065319103956944 5.224547963567697 9.976657131956655 0.7047851421447346 -0.6550006145224397 1.0298857102703682
Ni 8.89602026094087 2.2062535838960744 5.894433747845702 0.8664031442012692 0.7983941231511477 -1.2461085441559765
Ni 3.861721125758884 2.9055529823287864 11.391093888466592 -0.05526303423836289 -0.11926267701877524 0.32320695064734656
Ni 1.501118331831899 3.867082816282791 12.470775138450225 -1.1276318533736063 -0.0541965406470615 -0.751933260585447
Ni 3.405047342054267 8.884430620369635 7.800478255009476 0.296734872498747 -0.5940127619851576 0.8653993855271032
Ni 5.595662661922279 8.000864143523465 3.46015877293427 1.9693876313398408 0.6297058445113929 1.0942396510664056
Ni 3.270321189859153 8.322392323053206 3.50019637625463 -0.5810184066080186 -0.009319477628712982 -0.7782567289713243
Ni 3.632125877967291 4.802597508970287 9.180348520978551 1.1820073428006936 0.16691601723068028 0.2939326271632615
Ni 5.424845402425082 4.815764653726276 11.478415583983754 -0.45857450364778446 -0.09319143385302014 -0.19689379453969316
Ni 8.580993587097431 9.078190079455524 2.2302024682361927 0.5924629009995345 1.0002874277879612 0.7976988968563359
Ni 4.90916566739359 0.322389879792512 1.538592718815064 -1.022408942277349 0.8518776968915844 -0.27696977405667783
Ni 6.604818532621805 5.977482504282078 0.10007303570191008 -0.22723281184286673 -0.14769702110006822 0.7164219550527146
Ni 8.302222153939459 0.1523066612598981 11.309723851801394 -0.6029519734563165 0.7047103230427412 0.09686862559429124
Ni 0.4006349992084888 4.975867650696958 5.767661681779847 -0.9500634986354024 0.10965317895346921 0.5607601705796149
Ni 7.368968854534155 6.3611898805508025 2.5422163826423887 0.43333012725869885 0.33264752723495616 -0.43330647310961506
P 9.01481635642635 1.7825706102518246 3.600690687640561 -0.7110149251045303 -0.8790226327374927 -0.30154874894762257
P 2.123329751201498 3.6100317008594223 1.3879447165794834 -0.7894081176024533 -1.8441638516416239 -0.22095726324680012
P 5.276140557078353 1.2417328749559449 8.01502703080532 -2.0234695007859087 -0.47036198320101574 0.04899082807640595
P 8.487583454908819 1.996190208727286 12.618621019090574 1.946199366148835 -0.2591761975186827 -1.0792411207750445
P 6.794729975719446 8.322966789895052 1.4847952668542697 -0.8164185847530261 -3.059093913312267 0.49930386304634644
P 1.994266200733163 3.4946824064250266 5.841396780561258 1.6078015666936634 -1.1260979332275833 0.4277264079186763
P 7.508418400762235 3.949249811709537 5.744079361995955 0.04697302631542878 -1.0882142708079325 1.053067033482838
P 2.6128940412321913 8.895865246078785 10.190445423076152 0.8557508066937456 -1.2706862334953406 -1.2679708914467065
