# total energy = -381165.7001611579 ev
CRYSTAL
PRIMVEC
9.31772348743652 0.00000000000000 0.00000000000000

0.00000000000000 9.31772348743652 0.00000000000000

0.00000000000000 0.00000000000000 13.63743017378616

PRIMCOORD
 96 1
Ni 8.736874952351428 1.6739848756157851 2.5931708131385878 1.5571158674133376 0.7699672352690223 0.13963969801323048
Ni 6.592428915657157 8.920564547120819 12.807878591583238 0.3838950125560227 0.1680619579096654 -0.6645638327308425
Ni 1.7137901890405003 0.19767736080712028 1.3732758589741303 0.025896151040471528 -2.621568259914982 -1.3246919982878347
Ni 5.970098184468784 6.617391096056223 12.831075995212023 -0.7434103107161003 -0.8243057008105868 -0.05924001660823991
Ni 1.3708234342331695 6.403754338986498 11.417651930600156 0.06417216380253464 0.711998114953406 0.90136731898128
Ni 1.5292433637385552 7.163046283196847 0.2685712576217143 0.10208745079106933 0.15838149739710788 -0.1948032305592516
Ni 9.251315766839245 7.409965947465329 9.205987838885777 1.615331299411805 -0.11390784046476511 -0.08588975798528434
Ni 6.524232499703157 0.1373199453644055 7.383836256351815 0.6670452043917996 0.8749037254731125 0.6625930821577168
Ni 6.700477233651772 0.7577871319167896 2.9968658287711953 -2.226296372980585 0.29775302935061626 -1.32135573482575
Ni 3.7065809632580247 4.767739185328978 13.004134999605418 -0.9718713385391133 1.3284211263129637 -0.15216174173964114
Ni 8.592282524045077 4.071817076465418 6.219282055469991 -0.27019594566795396 1.0149326885049619 -0.4811392763221778
Ni 8.950977595580152 6.833021845886457 2.0212172840948934 0.3175273837640661 0.7342535839174967 -0.5645494624187181
Ni 1.5268393911581302 5.083311833987278 9.59346815264065 -0.01976201311827564 1.5568459015814027 -0.909707206305543
Ni 6.027486041534051 8.08281737373535 1.250755253336428 0.7346811583732186 -1.3079068084096959 0.9644786456194678
Ni 6.884669985472879 7.342244735393505 8.67419649206459 -0.630475889908198 -0.3018922483299704 0.06107501293444965
Ni 4.652553491378527 9.210737082390594 8.568874539872425 -2.634454886069663 -2.3279979011871457 -1.4504166288818698
Ni 6.694001416041712 5.585686196957068 1.3569642527753227 -0.42368694774197996 1.4495679077283294 0.3771749202233698
Ni 6.70413909886149 7.28465188841828 6.38207199714677 -1.6803244164537385 -2.3617323173251137 -0.5659265452719028
Ni 1.6140625978455734 0.7349931857016958 7.405288450428998 1.1687355653924518 2.8748165219850037 2.2830110520638103
Ni 2.0743394874883827 7.80163644133422 7.816565297413124 -1.9058852399108208 1.1482641849119772 -0.13071694160230393
Ni 6.311154806024227 -0.006181377557573984 9.894200463590252 2.704049763549665 1.6659686619526988 0.9807658128152656
Ni 2.355091804623236 1.803873936744186 5.26603890795218 0.42199207653806037 0.9103160435341354 1.3429067215236485
Ni 4.237747090853838 3.5607399600455616 10.82513232295369 1.6362312827892658 0.010628169137807503 0.09293123821309802
Ni 7.192089626348729 2.6964745464899766 10.027247301104337 -0.053251403124972806 0.5684724516222082 -0.3549472191734209
P 5.144995161438499 1.8399428431737443 0.9600134051803579 1.2525291029703398 -1.4230240958015299 -0.9562560005993596
Ni 6.807044033660777 9.078434730958588 5.062050653235284 0.2621111117772905 0.9958335057816655 0.11434158556807406
P 1.3710004709735883 8.789296462961786 5.9420732684604705 -1.3039028294566253 -2.282876583368475 -2.479058182332492
Ni 1.423580382878005 5.416904959275586 3.788001091949 0.04050541631321411 -1.428274545567192 0.4666601088693963
P 4.999508231706873 6.186446398983874 8.287534274404917 1.9933248588817285 -0.16304496431104823 1.6310980753277586
P 3.3909524082606457 7.191688964251991 12.333173207596287 0.06276731303520802 -1.0141248478916856 0.4075427338819497
P 7.124918159944522 5.413140599110889 5.351054746018296 1.414232465651829 0.512629119400343 -0.16409011774611096
Ni 4.511921095423652 1.0712959048907316 3.9903391778907276 -0.008725552798455941 1.0183915935878396 1.0096192467118483
Ni 3.3809172203958475 2.940645482420375 1.1044614087774196 -0.35149988405476884 1.438544560034632 1.6657663161339054
Ni 5.565997847877849 5.161757745439216 3.933157242507737 0.2737594946494963 1.2782002824841987 -0.23003454295771997
Ni 0.4782796625987766 2.9070550903566814 4.430132916667069 0.4462776885583023 1.1597631866905123 -1.6790936293704308
Ni 8.357280227723743 5.069009128906066 9.98326671592269 -0.2396576678697808 0.5889350903519341 -0.3942033364605662
Ni 8.467667294236524 6.003474268899338 12.647133890144456 -0.24270159690242715 0.2082866097576671 0.11386747414513292
Ni 4.109218417309708 1.2161305939997609 10.232408657169588 -1.6199528573442166 0.5662235076870313 1.9867153239850106
Ni 1.0448242533365144 2.9938124108851283 9.63076606675764 -0.6148955189714378 -2.2962524904547488 1.605365446448345
Ni 5.77234814542086 3.839880311070285 13.48464998399506 0.8289804805784369 -0.21086388356654007 0.051154925607260295
Ni 3.3400776396981584 6.169012938914201 4.6321169291279585 1.3867897960598439 1.1744763245309708 0.3461684445395264
Ni 5.182415137729149 6.311741822584563 10.412273326573612 0.35992436067303823 -0.7619201965948298 0.8986059541860589
Ni 9.373722696254152 8.890803739284081 3.797001080768507 -0.07267583039817162 0.6579198450517637 -0.4582654570477978
Ni 4.3464290140246895 2.9128041255587065 6.2952829963595125 -2.121648360551191 -0.05170025658776902 0.30943637922581546
Ni 7.569420144243688 1.4697124303419014 0.5801484665804542 -1.1621291158195275 0.8396577577866249 -0.5797788777739628
Ni 2.110259310347062 8.950120365047596 12.170097211817884 0.13885576865935442 0.04610065101280447 0.4218792051092799
Ni 8.665920490336164 5.989255423326747 7.738314126375648 -1.4407639362834541 -1.2882674369122136 -1.2353631327140142
Ni 3.066416109903242 6.994619118996203 9.589785788439936 0.4789805781079622 -0.13347804928720883 0.9880772588750145
Ni 4.270368439706817 0.10605618877874376 6.204498555872694 -0.14240646212509026 -0.2786039672259912 -0.15424690640344402
Ni 3.172190903441951 1.9391393241474142 12.781776853639263 -0.5287370807057991 -1.014035887722305 -1.3163698515753846
Ni 2.347190375366645 1.5440864967642038 2.932797164185909 -0.5396472998603997 2.5518885360306567 -0.390679639578024
Ni 0.8760355614764884 2.117927796524155 0.7245582675124781 -0.22413514675414947 1.7426659548054377 -0.6455201858358302
Ni 7.892987399390378 1.173352926880644 11.627026761087377 -1.0421437017021151 -0.12145197136061019 -0.2805963150656716
Ni 8.559847529655697 8.32031681986891 6.852562974939433 2.329438490288414 0.8257612023101908 0.2626387021459864
Ni 4.402782603816983 8.910221874391082 13.611450219889313 -1.6610740528645587 0.8860970230857707 -2.0266016186569873
Ni 5.683904316996845 2.9226809121294455 4.35181279447806 1.158744515618011 -0.5176255441736699 1.1368680272598937
P 4.876495650285269 8.2340999272849 4.2735616234405835 -0.17272285372044446 -0.5227592658558093 -0.19147236641380572
Ni 0.6870525681685726 1.5981386089310514 11.938438114573513 1.9654908673885956 -0.06620924883722147 -0.036055865182292736
P 6.935293175509508 4.468463234512399 11.57776861749661 -0.4353139904579471 0.39748483542531543 0.49174559108311444
Ni 0.1350743740780393 6.908337002349934 4.87775447468688 -0.8631483847093973 0.1150920905808534 0.8845649027119604
P 2.5097007853480253 4.237234616078941 5.654896381193047 -0.07622420987106228 0.15273458352397568 -0.3368219703276199
P 1.0035467396493682 3.9516650360600574 2.1133928606524766 -4.5222647565360115 -4.056862688443433 1.0588108779451506
P 4.870364588432867 4.526121305549885 2.071907561738418 -1.0972817803268393 0.33369062378748987 -2.1672820992299062
Ni 8.964879638564627 3.648214745258864 11.80009974206554 -0.29095683236438924 -0.02765709959563624 0.31319996003330575
Ni 6.924801419208893 7.195965799191585 3.4030020878769474 -0.09731805442688402 0.2148120695810107 0.6136449343937884
Ni 1.7849962295816222 0.5113585116598911 9.91891199723578 0.3484978640036514 -0.27704999247531 -0.19348913973351836
Ni 8.852470626121798 9.023068819823369 13.26372304030935 1.4667392773012933 -0.4700429092987002 1.2708204450803597
Ni 9.219756638428779 8.499915934162306 11.04511817659823 1.5416180288880548 1.955686479703664 1.1263684132801506
Ni 7.348906907467165 7.434900174694855 10.934627683358151 -0.8161139090284139 -0.8094969179325284 0.8418668496228018
Ni 1.3568375317400754 5.862217585491408 6.7671930633924795 1.2565474801011134 -1.032894415189705 -0.6849141142524204
Ni 3.7346273100296523 4.5278264488918145 8.819762622443244 -0.18522998504851973 -0.2540386191818012 -0.846862245954864
Ni 1.1189374235097787 4.734596043977922 13.39691989316663 0.8873974870647492 -0.44937843897081314 -1.0629799217211757
Ni 5.185145230620872 2.1788563883978 8.577793464500267 1.3001626456879027 1.0203469175419977 -0.7027220889681188
Ni 2.014324032486372 7.508547458709122 2.736404717405303 -0.24358579927959337 -0.8312916452101168 -0.6808705403106661
Ni 3.8542109693210365 6.904591277631598 6.8593406867805236 -1.3457179657201985 2.2936464202904694 -1.2992267641371948
Ni 3.8477444694341565 6.850930509838307 1.2103154029631586 0.9128647780979182 -0.11180673496136229 -0.8898441488330288
Ni 8.394420672318994 4.135848470157985 0.7129362713901355 0.5605264573022539 -0.5442305483557079 0.24330426348343262
Ni 1.323098056105503 3.2728129960621524 7.386563553926584 1.150415169816709 0.45328368756249027 -1.2299023667097593
Ni 9.004470644356203 1.7234247148085609 6.186142641208208 -0.4545954643953784 -2.078083331476047 1.2950276384541826
Ni 8.54161274539255 4.947403523684633 3.4750485870489007 -1.812930347548639 -0.19787826994014954 -0.11352860274847544
Ni 4.729536520291213 8.680465456220055 11.343082191991073 -0.7478647469430282 -1.4490454595659563 -0.05179975828011078
Ni 5.152272303242033 5.209716066646381 6.309261444674062 0.14731418383935274 -1.4778310163390806 -1.1356256702123604
Ni 6.524661114969434 2.435429213880702 6.7517964576099425 1.9645225899380556 -0.5854831272475918 -1.3680084016872827
Ni 6.782249572278949 3.4617764221513903 2.378845476325864 0.2570817768834992 -1.292824974375909 -0.36901475301008063
Ni 9.021829562640436 0.5139889049135891 8.819680626479261 -1.438577984375729 0.6521618595220638 0.3681740022763401
Ni 2.3488675655390345 5.1809708906362575 1.6713759131254011 3.819096066948778 2.7823465396790406 -0.9795548232262999
Ni 3.5405857248073453 3.818225922400098 3.6607088802708487 -0.9841984926458985 -0.635630437525944 0.21806502930066962
Ni 4.135997553728863 9.189464720370784 2.09076756522694 -0.8604528401551053 0.2684205989350861 1.7045892025383738
P 2.3549706742218968 3.6294395330512788 11.607157648178466 -2.537720729170707 0.24558046111211898 0.46006780036385925
Ni 2.6127920746109115 9.116367182024135 4.23258041335056 0.04599317890066273 -2.444810316893215 0.8154608488254472
P 3.107684305867208 2.3017105685253445 8.503387717819152 -1.5841607873462717 -0.23857806165235684 -0.07313991451878371
Ni 5.472270870410806 1.859845499886102 12.078698733373509 1.0390393517451784 -0.7736014895875 0.5304319519097187
P 7.6135395635007175 1.8760769736655623 4.570639523359015 0.37412430632250404 0.6010627268534037 0.16808304095558793
P 7.902621925158439 8.858993032347756 1.7784710280387084 2.4931069471160745 -0.8118217094109631 -0.29762370286160356
P 8.524058154921537 2.9309550503132344 8.0762903086478 -0.7459816709877023 -0.3385037289054171 1.0218070470272917
Ni 6.502661970541588 4.393716459162899 8.008499213652128 0.8321524505485152 0.40138828424477974 1.3132264208503963
