# total energy = -381171.7127033652 ev
CRYSTAL
PRIMVEC
9.19543904119757 0.00000000000000 0.00000000000000
0.00000000000000 9.19543904119757 0.00000000000000
0.00000000000000 0.00000000000000 13.45845452601139
PRIMCOORD
 96 1
Ni 7.472351495527418 6.6168078701404 5.590615291615676 -1.2106054661533603 -2.5481871759196695 -1.052537129121297
Ni 6.588154882858522 0.7437813427417426 11.660135472426255 0.4889307473421386 -1.3929553014406075 0.3196464869895979
Ni 0.8361237781981216 3.4098342226866176 6.597481816427203 2.018221107902776 0.319114782855844 1.193131220627997
Ni 4.186057993037217 5.240949536037788 4.96790569375418 -0.5137493490477152 1.3211371910570409 -1.4177353365987648
Ni 1.4127412391050556 4.595926286398948 11.588482774256212 -0.04491717222766458 1.1456462876731561 -0.19607669795503652
Ni 0.9645095750950583 6.340981488077751 9.777876048047139 -1.542634385967711 1.0261223865731939 0.5912069171052463
Ni 7.063862517984775 7.948436143644221 2.531656024708348 0.22616991779599113 0.3365548327091623 1.6551605155936011
Ni 3.1519297508333324 3.3163166101523753 0.5321611925138121 0.28829496926150994 -0.4770442803171978 0.45201613370397636
Ni 9.513141204257725 8.202257840673003 11.990110115370825 0.33495457810157797 -0.6069196998548128 1.1572044248244007
Ni 2.518713444605895 7.97156267221095 5.2150432263236555 -0.06820313933879867 -0.6129306819355831 -0.5443537041971335
Ni 5.259138113972177 6.6301688427079775 10.747961737226836 0.34038011999252343 0.18238325962834398 0.34338214004364087
Ni 7.553629979026943 2.650851900074634 3.6497036804333733 -0.9769785778586917 0.10272328460285536 -0.38401971105934507
Ni 1.010118951512939 8.677009150164688 9.941437156962486 1.045245223445574 0.18847985944438506 -0.47000125742748733
Ni 2.54272273529684 1.3349662177860167 9.782815837767236 0.5303813011774414 -1.32445854212079 2.2149696351138566
Ni 8.95717577933807 4.6445701576188245 4.023081714029162 -0.9565059118266364 1.5755607043820865 -0.23959621850422608
Ni 8.428438048687239 5.955775361561333 11.49989943417879 0.39202149831789906 0.9178905134472837 1.0312118852809595
Ni 3.8451922723851166 4.169230340044329 2.733829700663277 0.5542208267992004 0.03549896423755822 1.8999755592946053
Ni 3.3069740443377444 7.591662313878627 9.288029506231343 -0.374933946707993 0.7817117773994602 -0.8782790697032486
Ni 2.2014524153378074 5.0166176112211325 8.630556552009404 0.8481056314436619 -1.892117239592451 -0.6417478632775916
Ni 8.447536975062226 3.7874908939532212 12.243411350563871 0.5482298993230881 -0.3302111498793216 1.1260457398334092
Ni 4.209625902666052 1.7065906812038039 8.23812189105708 2.2843881349169943 0.033130464005381645 -0.32657792400210855
Ni 2.478851217434219 1.604576483223972 2.3109241141795147 1.4820951909320734 3.3763058227184435 0.573443165363922
Ni 4.899265421333029 2.1572775273717797 1.9879885796316945 -0.8096673820721216 0.2825647516459521 -0.48216026138752444
Ni 7.256212706676151 6.513828151087206 8.584622576602097 -0.46516089861605053 -1.6265266539069922 -0.05320538037838579
P 0.31853919526044344 2.697150934402059 4.734240398561688 0.37947374355987545 -0.773299642076365 -1.3987608523787909
Ni 6.812247726266536 4.859688252763965 10.354679256817711 -0.49442956567318075 -1.8805997258711546 -0.7439947224646606
P 6.603575633715939 2.8881677844683153 11.796536933319858 -0.4899843854176335 0.7041827326740453 -2.0861385976803555
Ni 3.026108561816022 9.109010864703402 7.293271244559559 0.41282583665775996 -0.3739273598203495 -0.16244795415699764
P 8.69002989149689 4.578427366374104 9.138021554554365 0.061680764839248614 1.4098309941500236 0.2881561296908005
P 2.2529468725838018 0.20225735444795354 11.864407547513958 -0.18005486860548348 -0.08782579866573262 -0.6863953267836371
P 3.4696413566023225 7.243302310609477 3.3755416727924237 -2.286636050410907 -1.686830335893056 0.8604145307180021
Ni 6.782500481768181 0.9220634296222889 2.124860846991547 0.9592112265729416 0.40058764272035524 0.46459859835467726
Ni 6.031766467754349 3.9605214657385557 7.547258459486631 -0.5762672650762786 0.24717197396895496 0.08577328701207809
Ni 4.67775649622611 6.637975770244021 13.530591631569484 -0.4035513533343695 -1.1132778986447793 -0.244212891340631
Ni 6.477598122239131 5.128241042740619 3.779241665811189 1.3319124272956737 -1.2833414603655058 -0.17105035111402803
Ni 4.6676231226752005 1.9853136264865412 11.705719101615513 -1.2271875388817575 0.3814414088092076 -0.5652675715316652
Ni 6.581984743427797 1.6990044441988137 6.704706150027675 -1.3826104678711737 0.21882427606419733 -0.009645750619880163
Ni 0.927120920958949 0.7820003450009435 8.089002218767595 -0.0788387646757739 0.6865403370019337 -0.3485575135969933
Ni 8.251664933312776 0.8746361149548489 9.96933611826326 0.11363813174314621 0.23194564393750375 -2.128599337947728
Ni 4.261120359912047 9.020422007362706 2.8737833595629745 1.5690979794758784 2.1369448816989456 0.32148893951497537
Ni 2.5755228654747793 5.576914087812725 1.452611742171646 0.6151886247318243 1.2130007058584142 -0.963173296544483
Ni 6.633801041031579 2.6944198890802626 0.40662046437971644 0.09077588243299205 -0.33478025730724276 0.8151309762898542
Ni 9.129994856031145 1.4596839541480557 11.936424385060239 0.092581311072847 0.6394922344741953 -0.3346434746190624
Ni 3.62858451615536 0.9798383715645356 13.703128408291585 1.2757790746372157 0.5545069905810515 -0.818539744861087
Ni 5.632279824790962 7.155835296801639 4.419109952462153 -0.9749875155705919 1.9885354079128852 1.294590293806448
Ni 1.356005381746523 6.529368442648943 3.322811348572526 -0.4004205210148717 0.32663166005817945 -0.9502370480987892
Ni 5.51500119841321 7.957925836479554 7.550825370194795 -0.3212889076890273 -0.7350107737984956 0.7346456771495928
Ni 7.98256961244728 7.835727650347052 10.252004826332474 -1.2450909015247393 0.34664615550689337 0.27065308781003067
Ni 8.916807803032729 1.20589903887445 6.280751363977525 -2.0011965483203213 -0.35889514807757544 -0.7272064472627282
Ni 5.081270741381237 6.398121944743216 2.3994669943262426 0.011797506855560328 -0.7692483548251268 -2.026325482177465
Ni 1.6791790781591058 0.9782291697755983 5.244598286151218 1.4532175886657748 0.22491727633581263 -0.47144004675654294
Ni 7.680058067004653 3.748603383293702 5.779463857214325 0.1349777737611869 0.8664031442012692 -0.189619372365467
Ni 3.130412424055542 6.249965034895456 6.860190905050316 -0.1419187238553943 1.826400871231248 0.30559823642664785
Ni 1.3804100763056064 1.0314615649536447 0.3023883265627892 0.6669009655044514 -0.8372728024942161 -1.1720535740220912
Ni 1.4243458828629922 5.465134333833742 5.348335709361033 1.449481004441478 -0.04572629839252125 0.586609270432235
Ni 1.4402172102213113 3.9161258872414737 2.5978585863052293 -0.9057657051592917 -0.578515694790823 -1.060595223539083
P 6.6513551336891865 7.690835121271135 12.158542048215319 0.0008685186478823751 -0.09741138547163869 0.5511316463509153
Ni 2.37450137800073 6.737396854483967 12.839997626355698 -0.6455325271310044 0.2570267552758477 -1.6339242319226441
P 8.337090559708363 6.245073061457086 2.5213874782071692 1.245741390624545 -0.449382038515239 0.17284446689997326
Ni 4.774786766379632 5.764473452892464 8.556508442033543 -0.0811373309019635 -0.6225103552042183 0.9956360450588788
P 5.520325357474895 5.940400587897886 6.559610401754412 0.374632099196858 -0.15011385807167696 -0.7003389334479229
P 1.0693283819070383 3.6445018207076485 0.32065322663916745 -1.3891099595525882 0.06793857282350235 -0.2699501482057351
P 4.931863251857502 4.380008188078736 1.0057437617347882 0.9733306966934592 0.6095964753560275 -0.25176087889121807
Ni 0.4149395778565827 8.165200222333475 0.8506351001588186 0.5532335231852665 -2.736501713430784 1.5169385238635036
Ni 6.370508042045052 2.219944442752396 9.384243221419965 -0.871339405160622 0.3883579334233828 0.791544704329482
Ni 8.177512914878545 2.9549818427449925 7.861823386100339 0.3961116092268726 -0.5593252379053012 1.8754186958908474
Ni -0.13020465469037562 8.033861770039808 4.6598419423677795 0.9270505826799971 -0.7286580921075902 -0.042338355756894826
Ni 3.8580107140638518 3.5335588516589125 9.8576179737242 0.31097904112258706 0.28133756410707034 -0.23445349796102202
Ni 8.319950261796482 7.866615129255854 7.032594347909904 1.546773347836749 3.5092652804980204 1.8411443480890097
Ni 8.122064418951162 0.2538879041880978 0.0881962121041971 -2.7497063850465158 0.4196775694722708 0.14348581123219806
Ni 2.629472504878752 3.3165005189282533 4.4986229117132455 -0.48699444955137416 -0.6050353383479063 1.2069149046756507
Ni 3.9430593274688874 1.8037772738168238 5.94396657906217 -1.50533050731093 0.28895240033985076 -0.550215305184233
Ni 4.213681091174174 8.414056382413536 12.051184380752334 -0.4813706756066936 0.8988414672356325 -0.648264838460503
Ni 5.429207754465866 3.2983027455550706 5.136742225905604 0.3793750131984821 0.3327884236881946 -0.9149394012387598
Ni 9.090408492023286 0.8192115271683301 3.5971756558669417 -0.8506985889818186 0.2889439156994185 1.5452805653413064
Ni 0.5320517667921643 2.820526136700184 10.021918395918577 0.4274070769060446 0.6277011553765383 -0.6192036594284885
Ni 7.1234857431246015 9.593969111256346 4.8697131201371056 -0.11949741873740065 -1.0104792807192986 -1.037134935633614
Ni 3.5194714394266158 3.946903020884749 6.752052544833728 -0.16694455647577056 -0.500972251887705 1.1219702842124548
Ni 6.059858533269798 4.942033407163587 12.817347421518495 1.8006849545223826 -0.7548782021463838 -1.3095800823470607
Ni 2.221342149449073 2.4744282113743403 12.02514197854405 0.015723581382843885 -0.39630032819891103 -0.6716523641465078
Ni 1.543638310336614 8.998325367940897 2.5570529071132966 -0.45685083608845833 -2.8412744243635 2.1448991035490157
Ni 9.114095942356444 1.7339103298605625 1.6665068439571942 -1.4965656166341064 2.4001122026548924 -0.038277555423959886
Ni 4.994263499513095 9.1500501080407 5.7545524939776955 -0.11744105042900418 -1.0958203652899643 -1.468472457942316
Ni 9.133673031548717 5.628417740497512 7.066818851557023 0.2810837962250514 0.0017771465050808104 1.4160528066900193
Ni 7.1523042483047705 6.599253777482793 0.7318373872923102 0.11318844580023733 -0.004971742182978534 -1.8395039842721093
Ni 3.848557802983694 4.54720885166872 12.003877526333094 0.1461129644424 0.22551737181365678 0.38623651620500576
Ni 0.3062320199786509 5.752979154400055 0.30885088094716145 0.043922412414563065 -0.19785513001169797 0.1501933051593607
Ni 3.0447201299349316 8.181650862335811 1.105709215951333 -0.0659451965425574 -1.6404193527286843 -0.39604938853036953
P 3.1140537384411453 6.107527687977518 10.700157409568844 -0.8916907151234642 -1.3417309560479926 0.8168613287173997
Ni 5.499322975269564 8.719317364055549 0.6185624549654345 1.2038822884969138 0.4618554883919014 0.11781463171833904
P 2.4043313814482303 2.761978777899248 8.27781032443555 -1.2930779709269795 1.0732761614408612 -0.6630522811823226
Ni 5.235183995913996 -0.14440333173207912 9.78155054538919 0.2909861429404279 0.43283364723825457 -0.4268753727722906
P 6.89808714740785 0.28845723678998897 8.207436711801742 0.6544424280261244 -0.46861363305134135 1.2631184484504119
P 1.429219465423774 7.678163806613104 7.585037000227603 -0.7267595895332967 -0.4548343198790618 0.49627896017709366
P 5.372094884116782 1.484263362044224 3.9640938937099968 0.5294731875408752 -0.446312912671612 0.807806417603983
Ni 8.063838900508012 4.1400807990675785 1.7351719440630895 0.25439625963153606 0.17867367198724068 -0.2854413018627987
