# total energy = -340857.0565099723 ev
CRYSTAL
PRIMVEC
9.48446569798658 0.00000000000000 0.00000000000000
0.00000000000000 9.48446569798658 0.00000000000000
0.00000000000000 0.00000000000000 13.88147425348484
PRIMCOORD
 96 1
Ni 0.16468352295907654 0.3536406393934987 13.866468343637733 -0.5626324479016633 -0.712633948765192 0.2523455477500944
Ni 3.210558084850872 7.153127244771951 7.482545506805748 1.1381129554105882 -0.5404723668648562 1.4834036253308516
Ni 3.5124296642410577 4.094681023382804 3.548687828777024 -1.0275647754466755 3.0223783030587885 -1.6830983796544499
Ni 1.1080132396216866 5.157614596772192 11.700389906952566 0.8841113601143097 0.558137131134471 -0.5672064404255908
Ni 7.366319068371693 4.577592087107533 6.009651587299946 -0.847157922818412 0.2288924589334768 1.1169278366925408
Ni 1.9171045687356292 5.111273496580524 4.828004748528026 -1.3467605480520999 -1.1028723870407393 0.627484668490358
Ni 5.294285749813936 5.178935676025339 9.963400087130136 -0.7481272565757954 0.22861915066743208 1.1087188185191874
Ni 3.4881778850371896 9.450122609061635 2.9218974179569974 -0.17473371350288616 0.18651476529821429 1.3309999427837336
Ni 4.701326428716317 2.433533734809388 3.74438934888445 0.46601964707192 -1.3625674331773694 -1.351971659939394
Ni 1.351100099611961 8.71800720486697 9.314663570756794 -0.530316509377777 -0.4435034682472749 -0.7919895051763843
Ni 3.453806180760765 6.559399681939676 0.4892343571135518 -0.7786493364240527 0.6060452676696595 -0.2509694933381742
Ni 1.891335274994171 8.699683216825564 1.2377920313230102 0.39886037561660337 -0.31859130625220616 -0.7455196437496193
Ni 6.420499679420848 0.02564694413186505 11.60774469598608 -0.42134621542394535 -0.847799927277785 0.4994972100040752
Ni 2.246215534075564 8.456169555871593 12.525531797641285 1.5523526416967393 1.7526297508863689 1.1392115877914057
Ni -0.025310245593837166 8.975880347132891 11.38280920675856 0.34734112469138884 -1.2900283854673784 0.18594603727893783
Ni 1.7704557576092295 4.296538910279917 1.4710472940028705 0.12763521735318664 0.7484257616528207 -0.06089246460999835
Ni 2.0429634306970392 1.967476566917773 7.827985877016742 -1.6974124822842764 0.4418019121751359 -2.9821251119656966
Ni 6.139588769581131 6.422045647356018 7.882345144646404 -0.4821106390965116 -1.3537272091779202 -0.450173938288915
Ni 4.492962198239284 4.172444158968456 0.17952671202988338 0.6305162562278303 -0.47962592500144496 1.8832860144540662
Ni 0.6518644932139512 0.4156870666026433 2.94091566889935 0.034181016757083064 -2.0352204706742496 1.1057625641043407
Ni 1.3248945204409457 3.4541191681341434 9.992315378197336 0.2978131931645904 -1.719285113987652 0.3488447058201089
Ni 4.388196788350382 9.095469977160882 0.8757197017800243 -2.2983854776373516 -1.0751332692542581 -0.7297955481461431
Ni 3.5061130099783373 6.355056864987259 11.578579963466764 -0.591290220847672 -0.5438559386251085 -0.0512359153568408
Ni 4.4641673598885045 1.8225728975096025 7.751179724036358 -0.49528420036399223 -0.9197051980585192 -0.8978539065113827
P 7.763054275293002 7.942054599467659 10.545297675695307 -0.7607454595604382 0.4749658005216143 0.5535651954930725
P 0.314237425978376 5.03538828523514 3.097942382569697 0.3424832823784553 1.1580860560984054 -1.9650782053312095
P 2.617304745311595 4.868812611337005 13.322481113561333 -1.5429969115134523 -0.4297354679289051 0.1500601220156061
P 1.2521296983634822 8.372658833974818 4.40810373374381 -0.25898079367842497 -1.60568786278477 0.4213469867548937
P 8.281645899582827 7.800840387279006 0.12011791477638818 -0.425414471956048 -0.19890902519750905 -1.636007339703918
P 3.025260075345215 4.455849483329337 10.289406786794114 2.9853983834003293 1.1682025757071173 -1.218198962229902
P 6.9071665916261145 4.157297466990131 8.890848316912182 0.14616695760878698 -0.29468236084509253 -0.3718177696765145
P 6.544224536563771 4.716501574092221 0.5708870721483653 1.565292489686859 0.025282428715872583 -0.17886007696643388
Ni 6.165452907981189 0.8267997753210374 3.01047568996274 0.6599242770763022 -2.3676070309383355 0.6186637277646184
Ni 3.5287903678494548 8.49976964542974 10.258936991772467 0.08996032851023217 0.3663690878571174 0.29825208047422186
Ni 5.426707862150424 1.2458509819642016 5.491705855135182 -0.05833318852325438 -0.8522193965017194 1.1380088257325562
Ni 8.67501412112386 7.2631091108838195 8.714414489199225 1.6242789955233963 0.838396374575698 -0.4443467900841767
Ni 3.0170370434446467 6.989785773732055 5.147472857428159 -0.9131378292536466 1.0538558479327205 -1.3922737019925506
Ni 6.917087342915612 8.640822621698774 7.468704825776336 -0.4167244003812178 0.06453391801732757 -0.8655199702653674
Ni 5.768328837959621 7.934732591823785 9.714547620343604 -0.5501749388646009 -3.4063293656637272 0.42881629854874537
Ni 9.021965366746342 2.8322322261637063 6.057306286013217 -0.7405126774533312 -0.28966742412900437 0.1355246474035924
Ni 5.715471909722172 6.0457968866921785 12.541481823877948 -0.823914121799123 1.7084533134794706 0.5714906696232415
Ni 2.0388376880479653 6.736237547898266 2.603734371559192 0.7820107966971177 -0.5948324296729756 1.3484325364378842
Ni 1.6042215244820526 5.723429376578663 9.244714686593147 1.4318386087693662 2.365075265655417 0.07744085588698277
Ni 0.9075950946421123 2.0608321643771674 1.6102650261280067 0.01724490312337675 1.4895670738290863 -0.9892206284508381
Ni 7.354748020022566 1.6662783846036433 7.370618376746004 -0.6777258240340973 0.18119875240193956 -0.14853571495127968
Ni 7.128306397616487 3.4754687007848695 3.858966438705461 0.3261498353257545 -0.6598959949415281 0.1912556224173093
Ni 0.7285710593028059 3.295472507694919 13.227268457686561 -1.713084898714211 1.7857285903228666 -0.3213884093813691
Ni 8.457734492738483 0.5922612644103272 9.420468478103945 0.5288306688608699 -1.5920314483436 -0.36000175087819286
Ni 6.652167242515754 4.220909779512751 12.098468114239644 0.46733425211828544 -3.2174247599770975 -0.32770149608359045
Ni 9.42259868913609 7.281802993093763 1.7104058104636022 0.4137851152472357 -0.17405828470241638 1.1839662662992771
Ni 8.294715493537826 8.561352282258333 3.466662374233915 -0.6246438566074533 -0.11916034711295606 -0.9809324203001171
Ni 5.14363449409464 2.6481482282881212 9.710397218083294 0.16454880255008436 1.3570884123406692 0.5197279352286533
Ni 7.6417858948078035 5.771676854408179 10.16159981554507 -0.02300648819750231 -0.47261015580524407 1.550172603326285
Ni 4.835607496361354 5.474092253586687 5.748707374988577 -0.0706693414911041 -0.30607517606306645 -0.5926166529685795
Ni 9.189223922186393 6.230307685531462 4.651932278964333 0.028839035718879365 1.2898368382818624 0.7690868895465981
Ni 8.152970151261016 2.3589194418892365 13.47074987145661 -1.233441233100953 -0.5482067593946365 -0.22686771519396412
P 6.455573234170908 8.087935168859403 2.554066120743856 -0.3677963072219472 -0.6005868156582495 0.6638500944932697
P 4.232091964761621 6.267344524714529 3.255177754488962 -0.5049775163923562 -0.4742230088183188 0.5160371166406273
P 8.327645559003539 0.9826570543508534 1.8250673120307666 -0.15075663386199845 0.8294149970126942 -0.773441824081184
P 6.493330892759331 2.1101324179171375 11.24346722813066 0.2116025615047775 0.3512664278877241 0.9237971087397058
P 7.517046199817867 1.4073904044907077 5.0399607462262175 0.3673461070584061 0.053536024244927156 0.2411666483151395
P 1.487344451690006 7.276586536870795 11.005468784074242 -0.34517702716053456 -0.5998882469293281 -0.8887789407933081
P 4.518551287129403 9.01449160764871 7.7760688593460126 0.89452149970404 -0.4974611534106529 0.3742837147185038
P 3.1279578716766503 1.1013456601221485 11.702749642058519 0.2336268882946686 0.021564099324020924 1.6238797032024486
Ni 9.240240864047012 2.5587950754216218 8.784030468611187 -0.9806426569738403 -1.3178369230392144 -1.3594823664941424
Ni 4.942753507181101 8.029321169844971 5.667861787998443 1.4472271754102948 0.47516428968566554 0.7896863109645045
Ni 6.684623084688471 2.451117934513718 1.5544755010466647 -1.4474680877765074 0.9451740317535853 -1.0386315747837984
Ni 6.3438841642042485 9.364999527968669 0.16356245909443157 3.550898639768091 -0.07817233473636859 -0.31029512768168493
Ni 6.1764833417763 0.43151189788995403 9.215646695625601 -1.061842722792939 3.643759686864886 -0.05833678806768018
Ni 6.863319905955609 6.568865178867897 4.642922984843975 -0.8194308892167887 0.8313487237002972 -0.2087859179915888
Ni 8.852601259885384 3.679991722588626 11.280766787018047 -1.1621653683741016 -1.2091265676149887 -0.7511138500079451
Ni 8.56517452199989 8.52671501293783 5.692043382154948 0.21835530684757878 0.8349048164826718 1.1029981139853262
Ni 7.530068371443565 5.844422707553924 2.2781023082966834 0.16466038842728414 0.23855852126833113 0.5068683056571657
Ni 8.483959040841219 5.477421301103527 12.90406631457737 -1.0550287851948992 0.3816010743155235 0.8375476534221575
Ni 3.955923287851874 3.5120597700725202 11.973063558192925 -0.052793746762263914 0.11458635458902847 -1.6937764281935863
Ni 3.207485117912251 2.9649862948052927 5.59916200798855 -0.010113177174601938 -1.0256575311216336 0.30909750782915796
Ni 9.268637354831675 4.701155708330838 8.635748432463705 -1.87821451346843 1.1326686444665652 -1.4516474159651773
Ni 0.9442857508212922 7.454448725142259 6.731556963996386 0.05725281097488204 -0.2719532946786929 0.12191631259153843
Ni 2.4784521651220666 2.315205538740771 13.731762371922173 3.110980317768913 -1.5669230833117467 0.6951481332756028
Ni 1.0997712387893983 0.9042679440184452 5.371159242501925 -0.8981225867917372 0.47703785255929454 0.7836439614251665
Ni 2.6493906933157736 1.2909591015940787 9.699777461659918 1.2375809663009396 -0.3543229553258607 1.69858310555361
Ni 0.41914036062224763 3.1344642152565694 3.888131171224778 0.7191954040327937 -1.3767951467409774 0.3855117222238393
Ni 5.676898587069795 6.885058301706592 0.9844268556803182 0.47555046938049067 -0.21330437468723265 0.1884178958581981
Ni 4.102183235878017 4.684700160063841 8.012900714101656 -0.6939535987468695 -0.6173506653801497 -0.36476549081542337
Ni 2.8776059108376617 9.182717578606473 6.321886842535289 0.08350583113414005 0.7816125328174345 0.19857272490401287
Ni 4.7525804822234345 1.6724907097419042 13.182070235631015 1.3108021276796198 -0.6775293917525751 -0.38834482079726024
Ni 8.58249315666014 3.7459087603152126 1.7517305766619489 0.822174770510513 0.23195978500489084 -0.5417574042248671
Ni 0.9620947323665023 6.692760756396299 13.452800519816673 0.24534829049665488 0.5508534529888641 0.7090362041116047
P 4.687611891082843 7.965092367041454 12.713196181378997 0.053225949203676085 0.7703559860670087 0.41781943321760945
P 5.206137124111648 3.3637891152840704 6.3582702020206066 0.8852400744021142 0.4145369058115957 0.06466273028570799
P 8.044211781245078 6.575153379733037 6.838972333646556 0.2626713551561347 -0.116924772914218 -2.0643605825733156
P 1.4123602646013165 3.6431066348593175 6.500403458951088 -0.47774464881833206 1.010508848405653 0.22728012014103438
P 2.2721176103390612 1.6125868233705203 3.6824500961395223 0.8379441175296279 1.9697581273053817 -0.16378518491118244
P 9.455414941011481 1.4443134300834561 11.967732339933052 0.005537127768145302 2.6633972801356256 -0.002572645823182666
P 0.39675038206668617 0.02721852012485719 7.49058264317546 -0.23221946642418073 0.6129846751019701 0.1859673774351765
P 4.384943616560422 1.7048042849267213 1.5368457759062073 0.32744695687062314 0.4355729005462885 0.03806466808220541
