# total energy = -381173.6455755811 ev
CRYSTAL
PRIMVEC
9.19809220739440 0.00000000000000 0.00000000000000

0.00000000000000 9.19809220739440 0.00000000000000

0.00000000000000 0.00000000000000 13.46233770293062

PRIMCOORD
 96 1
Ni 0.6704342153797944 6.7140093485829055 12.535239921541118 0.37937038521279176 1.8376201369858352 1.395803826632996
Ni 2.9388456108123733 8.856189807430429 6.918739562478422 0.00260838415712454 -1.4080379068053428 -1.9294226609111285
Ni 5.334028790644808 7.7909311683907445 6.609725059720892 -2.085790213202001 0.9044431296931262 -0.49586398412686217
Ni 9.213176959475271 4.5951552512716916 9.953540589766716 -0.9630100314937416 -0.10145007431738658 0.9474720837591425
Ni 4.835363426161569 3.5810839947042323 4.625174144611557 -0.5577303826143557 -0.9423319343190997 0.45005463910223137
Ni 4.180505259924356 5.236942928651217 9.480918703222715 -0.04108031498007764 0.11842629716040896 0.3211269281898663
Ni 2.2256807388264743 3.7656069200906317 10.182750605946433 0.5939865367329125 -1.6841869847329383 -1.278810662374688
Ni 3.642186920447807 6.352699093256493 7.501443295327786 -1.9332926853894965 1.4152498511727498 -0.3456161715804822
Ni 1.3384419740666558 5.119860414457333 8.153209063004862 0.620858421423092 1.0315502424569847 0.9218492409847155
Ni 7.143514258653088 6.2474913159488 0.8116157308454166 1.2022360111427426 0.12066572801388896 0.8418239122000082
Ni 2.6789351226690354 5.782490968509287 0.2711220425899496 -0.9918146144302596 0.7343625986915353 0.7553795672628346
Ni 6.578457065475415 7.519385093755518 12.415923190778951 -0.20267903376290253 0.8662537631075984 0.4510288300900426
Ni 1.6569167145371557 6.336574837825439 10.565485057365265 0.850705273850038 -0.25296441228101596 -1.1215905322755328
Ni 6.386253733195159 4.44185984852558 10.590147901682025 0.6172007700658466 -0.1550236366684685 -2.5554649405280054
Ni 4.875779842798218 5.980259146503055 0.8903385217936266 -0.482619203301814 0.0783253153744651 2.3082230325530633
Ni 9.151411771101326 8.051733871466661 5.582817865644001 -0.0013156334876299922 0.6839926308794156 1.4721699613985613
Ni 1.268840011233353 5.055013865233759 3.0829291243319012 0.3571755942833075 -0.6253730214639939 -0.5400797594121278
Ni 4.795958799654648 2.841686164082074 9.301573383872903 -1.0535414020160951 -0.379332847106637 -0.559966471033726
Ni 0.8659378231013859 1.2801904568705005 6.656264646260824 -1.723326888157193 0.23879094899411138 1.922554987257018
Ni 0.3589785389819906 6.558855931234927 1.5813534682213284 -0.09719258459261326 0.1012839810531675 -0.25675396123043526
Ni 8.797156452406755 3.2344263000747207 5.560120653606542 0.6433645729454082 0.5035212435618038 0.1463775309576963
Ni 0.7258536400219158 0.5803913324983287 9.844980107892782 -0.4717313527447166 -1.1036228920535187 -2.206883772781928
Ni 5.0485200122193135 8.662652751797348 8.98767193478878 0.11276318533736063 -0.34128540541561225 -0.7534985481900378
Ni 7.554696569283077 -0.08169929354803247 9.856531071937459 -0.22690191086600925 0.531992097307987 -0.48131693955062266
P 3.2895136735924493 1.626047917488317 10.782228899337506 0.32994915446718664 -0.20064554827264153 -0.03276433891521453
Ni 8.041965497668727 5.631412305956492 11.865825774573933 -0.3927228952602978 -0.9369166768407994 0.19403627048624
P 1.6624723621585797 6.363322889618653 6.006801161033486 -0.042983445540061456 1.5188321413417907 -0.010245074766775905
Ni 1.3149408487806653 0.42990778650365674 11.988615704908698 -0.010275670894395206 -0.48517179452033865 1.4425688507026768
P 8.50507103813802 7.881173649870529 11.302413200261674 0.38859653179675013 -0.13237993112702362 1.0986781464537336
P 7.865463308583456 4.621774529775666 8.374771785422242 -1.3554333932357496 0.22197387743677252 -0.2908473033697185
P 1.5011194307429863 4.224508932475501 1.0381389843260977 -0.7930122900139439 -1.810518138562721 0.6052934771052996
Ni 7.2409404500539525 8.012467216341069 7.545640127812789 1.6432313682561828 1.865180048881975 1.2573339805581507
Ni 8.16569823244256 3.985597688570096 0.8356264304331071 -0.31455081763424536 1.5992796452655813 0.10940609593966963
Ni 6.561422198927605 0.18802187961684613 4.981186298895023 -0.4935394497587436 0.11853325505191843 -0.3905536555231209
Ni 5.201015180953729 2.6679801949916913 11.826986830730451 -2.5061244424216644 0.8076236121692155 1.4910143477985742
Ni 3.2213006226645025 5.450430646024146 4.420520274880375 -0.3754422538029792 0.9065758597654129 1.0333186472113174
Ni 2.935635476673504 2.2473974342473055 6.225671601896577 1.2705008569574119 -0.39142165995037104 -0.18612447183833106
Ni 6.893151390097562 4.623264620693996 5.497964546318839 -0.20877254825515015 1.1829643073973242 -0.7563786979513102
Ni 5.729905476039617 5.206653611403949 12.560616537803943 -0.13950008711157266 -0.31961820485482373 -1.0643024971873412
Ni 2.920716171306038 8.591293953375152 10.194677771957526 0.6657095162995115 0.8816742114277267 0.3538167051134036
Ni 7.640928682612298 1.538077364754379 6.850081323893393 1.572500577399524 -1.0291709435915308 -4.58131553995158
Ni 2.42548169517179 1.9035451577047713 1.4465278343888253 -0.5269187965501376 1.3679178988560055 1.159532815847261
Ni 1.0488400446618007 0.3142896085702553 2.471187014759299 -0.3882800289975958 -0.6527532132491597 -0.10178688883151502
Ni 6.662187297756576 2.0604554106416435 10.448362071566192 2.2571742935063646 -1.2316846554211627 -1.77677395223274
Ni 6.395277061533928 3.4281473175495707 7.251434553317665 -0.4193906343594712 -0.7367210716213829 1.8639263789805318
Ni 5.8999414063867075 5.924307152329012 7.991432099543991 1.6145810515093422 -0.9918549807498918 0.15179767353200307
Ni 8.627212502980548 1.2541598562601863 4.4928936228599285 0.8743339690125715 -0.8262828791416156 0.09015110436479958
Ni 2.918205092165891 7.854122061038398 12.298451597289727 -0.06533944463775843 -0.8234873186743494 1.0245437292321646
Ni 6.329354335536006 2.229176013820086 0.5557064127605549 0.6452715601601339 0.7839841183734045 -0.07736809366751836
Ni 4.7129368204642965 8.287536160246171 0.254038426154071 0.9511726725391813 -0.5667752664254432 0.9547627038832847
Ni 1.7154257783117874 4.284186153945367 6.09352537228944 -0.027565054102462204 -1.2422966266090538 -1.106174711941095
Ni 7.652159553052297 5.662428272478746 3.1389997738938855 -0.1234818573064454 -1.338046822328186 -1.5606573049076928
Ni 4.197668899761404 4.261209319908418 6.8487623174879095 -0.3605074868700178 -1.3631839837154458 0.7914796554195014
Ni 4.08284911622128 3.7550107180047374 0.25726971590474357 0.6312004267790483 -0.27767451343318633 0.026086412674406687
Ni 3.2807662880163333 5.158244052742437 11.666784580635124 1.8197442851466792 -0.09349533824668414 0.45788493377992756
Ni 3.2430633085457754 7.088178536648972 2.204821305588287 -0.7186652425609366 -1.298485772206112 0.5401268105999795
P 6.045436827041812 4.097529271194446 1.851609970345755 -0.06039727014113469 0.5027023472049342 0.6280629095913312
Ni 8.389699369072588 2.377145721246984 8.813631155146378 1.279412300514429 1.0180519508602337 0.5523020125099327
P 1.348523082995597 2.908032002316065 7.954208340671241 0.6201076592999966 0.642110645933649 0.5080936934238346
Ni 1.5410667446831252 7.488718654732624 3.9025968649915472 0.6207293520443954 -0.8575626630915038 0.001306377516249363
P 6.62335295295914 9.278851336986804 0.8544576843657912 -0.7237696536670374 -1.331062934811185 -0.9625361771811165
P 5.015048155109444 5.896979620734227 5.794728110223761 0.19001455092135663 -0.6176908223283879 -1.67304150963908
P 4.237542628964835 1.0828177968365358 4.552181765034452 -0.2143541561079857 0.4482602662059699 0.5369008474635141
Ni 8.925902147368793 8.713196267823381 0.4257989987677461 -0.7886051620851838 -0.02986284899770341 -0.07704130645571894
Ni 9.097363781989593 7.11098060693624 9.291422369444089 -2.0463692882022175 -0.22751589030092428 0.4169604276514239
Ni 8.369932669174508 7.813852813875163 3.42281242413827 0.39742724271450264 1.0884148168545125 -0.8089027359919553
Ni 6.0650011689139465 7.944355344426094 3.0421788169524406 -0.4432386446216624 0.7947842943127021 -1.4134444225328948
Ni 4.210031135528281 1.2897932650108423 13.591171695203114 0.23117842675417608 -0.26119142817649854 -0.0968845664338912
Ni 2.011972267243422 2.997805381099339 4.12430859650076 0.49835461175919976 -0.5657859059289805 -0.21098035453974634
Ni 4.891251033690993 0.8390674366833963 6.841384527823763 0.45826262883432045 1.7801942907681985 -0.2530600573186158
Ni 0.20203517291360004 2.679854931877881 2.626367106574334 -0.0727547632652231 0.266121004267632 -0.3997620614952664
Ni 6.949416119402612 6.933586202918389 5.183875456156112 0.14208301734740045 0.3400939562106723 -0.49587761097361693
Ni 7.566525315708825 0.8912454536735478 2.516891414537599 0.1697210907796432 0.08507009029746639 -0.20591913796675507
Ni 2.3748645944090487 2.4757676646193474 12.685911108614395 -0.3480540915980135 0.18122754875734595 -1.672914240032596
Ni 3.8250449911661972 -0.017105691856890856 2.317339726487881 -0.32988461977783834 1.9974093133637472 0.2721605255934926
Ni 3.717905614519929 4.10635024150727 2.5251982115026785 -0.589474507795172 -0.06450692143413407 -0.22040833272186558
Ni 1.9310382549571488 7.577609016675407 8.505545659689782 0.4426164376566313 -0.41178428276712303 -0.8436650791738051
Ni 5.387129376271431 5.7606271036150405 3.431200164313727 -0.5990873482945875 -0.36187788485498323 0.26499768929646617
Ni 7.448670161779512 0.6726656725204524 12.250242557035742 -0.07449925676015556 -0.42705226466978713 -0.12290284487452384
Ni 7.0421604819304555 3.0355175586619847 3.8425278047987144 0.5742777454500755 -0.11542324866802703 -0.999513525736414
Ni 8.483014013309916 6.196653460975934 7.02867331950116 0.6823800349766571 -1.265488234234169 0.2574977813749952
Ni 1.6598785001896368 0.4661087175361702 4.86671604285426 2.2188509724461336 -0.27756832687262517 -2.4927655046162553
Ni 5.116705468870995 0.10222759547103566 11.316817412472188 -0.5597826371576939 0.1729743076096182 0.6478349500119358
Ni 4.015592666870532 8.134608681183598 4.520356366408414 -0.19293301011973224 -0.6265865821561208 0.05500103882622786
Ni 6.629092562422333 6.930642813450085 10.154277911886634 -0.7277165541299273 -0.5376819486039127 -0.7390510053061401
Ni 0.23879166870825597 2.4135609678251586 11.112257363280307 -0.9883387400665172 0.605296562429093 0.6320900284728534
Ni -0.2903543333376901 1.9815817709831827 0.08926196486315624 1.300507173511515 -0.42230806511658237 0.16209905545801115
Ni 1.0603376597723635 4.421348103168336 12.1654435064539 -0.6068124848529872 -0.10263895241916517 1.6122076661811588
P 4.573125820719853 6.915962658476918 11.10004689603289 0.5648194282506531 0.16433128722263957 -0.2702869627198635
Ni 2.7577995642354076 1.1146156011863082 8.538137259386788 0.19402290074980133 2.236758963074806 1.1855253832562809
P 1.8038654337422364 8.102866065386356 0.748845191006206 0.3442632570970136 -0.14227996384955496 0.4790006327126202
Ni 5.1536542047903 1.9604905458243664 2.781830499625693 -0.08166903503571742 0.09876378573447507 -0.5475012486871796
P 7.453287604007914 3.28197123807992 12.209760833945262 0.5904116748974606 -0.1832378943191554 0.025958371736974645
P 0.23332708219850767 8.732898581076842 7.78360028899625 -0.686352903581476 -0.2103092966146507 0.03993643118362154
P 6.4997305952903695 1.0288893829219523 8.2979695561021 -2.4660383730340563 -0.19347114201138937 3.083567987194231
Ni -0.166668508833509 5.58074001664122 4.82196732484395 1.1309889427712974 0.13149984251491545 1.0258920157299427
