# total energy = -381164.6129447376 ev
CRYSTAL
PRIMVEC
9.25499811367576 0.00000000000000 0.00000000000000

0.00000000000000 9.25499811367576 0.00000000000000

0.00000000000000 0.00000000000000 13.54562524890643

PRIMCOORD
 96 1
Ni 2.106363554409418 0.449388469968057 3.028558416336297 -1.5946274912055505 -0.08392672072164256 -2.7764204040025926
Ni 2.806902134517296 5.051220692362805 11.193671385103947 2.1137424754405534 -5.110895685383965 -3.557218411338532
Ni 5.038180399873776 3.780398377065843 4.360878343791593 1.302618306317247 1.531489167984169 0.8186647004747256
Ni 7.388477942312515 3.8785291231702894 4.690389598342592 0.9296700225807151 -0.8620196704215928 -0.5031553755819529
Ni 6.250289006476349 5.334025672907325 1.6149638710308252 1.9148082534320636 -1.0956825541605193 -0.4322893446990103
Ni 4.07784476479109 0.6333241555503432 4.033778941776179 1.3762529010842621 0.10315163038952559 -0.1447317678241572
Ni 8.904872380323365 5.065538174605903 3.601605693993247 1.164153088228092 0.7838146826750758 -1.2667408756943475
Ni 4.025868694799335 0.4052328734704326 1.1014262319150039 -0.23483067879478267 0.1967611256165708 0.26792026225989984
Ni 1.176319528493934 3.953115153808385 5.9732822823153455 1.5430627317543812 0.582544613444558 -3.0400885758543574
Ni 4.35504121641556 6.865635327988412 10.169473485818251 -0.9357393687032465 0.12464682414882405 0.47155523217816847
Ni 1.0355417506013822 7.411041627967767 2.971395845343229 0.3681565187748434 -0.5783740270066362 0.7050705345956373
Ni 5.7096490305792145 1.6327390206081334 5.450746008432255 0.8757305922497821 -0.32234845930179323 0.003420852756090883
Ni 2.795064991796595 5.517431972591548 8.895100953204901 0.441998087346342 -0.2705826395834114 -0.7731466614382684
Ni 4.940197733740817 3.5769087312487677 10.719981140815316 0.18409792832660551 -0.7748299626779624 -0.41139681752071733
Ni 6.638600966704987 9.06079133530041 11.175737049557291 -0.13824975964423933 0.44187827393902607 0.09973154896438308
Ni 2.825763820885386 3.1694851997001567 8.066866535185481 -0.22312161788797058 -1.305349589205481 0.962571401294426
Ni 6.903775175644398 7.367432076364999 6.029902510412844 0.12407501080575405 -1.5177959867677924 -1.5743844246857983
Ni 4.657207653231938 5.951371074034455 2.9823000842435645 -0.4865897579137878 -0.24377837490637372 0.07923214345945065
Ni 7.284248152382469 1.5481483368964826 1.1583037489629604 -0.9634121520281665 -0.7091089663310691 -0.9254176750622642
Ni 7.937345611625366 6.947292177264987 1.6637552961357982 0.4798467827629994 0.634718467234636 1.2462124167236925
Ni 4.772312066068022 8.32951690611087 6.0588225288441535 -0.4918810882197142 0.05284311194296061 -1.060307259985019
Ni 1.0704238388846659 6.263023884024187 5.198120651576501 -0.43501317138807666 0.10768731347635002 -0.43412125570142657
Ni 7.975540989270661 3.2485599044739364 13.095301421935803 -1.5284753208585093 0.6672071838909607 -1.0568964345312573
Ni 6.0465032007163 8.438022505217587 1.5740558534078637 -0.4706980263841958 0.14914223818702702 -0.09667013643023996
P 5.327251014211819 8.30531508577105 8.844426135962584 0.06490595664476564 -0.21470228347602377 -0.3351301844474938
Ni 5.586279904334543 3.3840438233858467 0.25463924446797076 2.7170538891188176 -0.6629306680027938 -0.9808162064372271
P 8.471858778702249 5.297662784909177 6.34829295910521 -0.023015229948250688 0.14672437277415376 -0.5762502957954141
Ni 2.7011267598848603 2.2219584821510505 10.556701685755572 -0.36154338433369987 1.1846784618749533 -1.0755215058316123
P 7.176001693225853 8.698384115083687 13.402813545722841 0.9667556145791026 1.2344416493410095 -0.9073394774043148
P 3.9922082662808154 6.222561031815506 5.0369133906177455 1.4167729726854956 2.4842579813658765 1.9995181321766338
P 7.712356604948098 0.25573225975750535 5.272878825181449 -0.33761541276319273 0.08691331415379225 0.8263836663855382
Ni 3.2192770901124854 9.058172170804742 9.314229280999696 0.8647064732251365 -0.31715894468105377 -0.07347827169480893
Ni 8.638263646660178 1.907584702685256 9.921411768583745 0.33683431162279404 1.26550211819124 0.10491772115101285
Ni 2.0066872236025817 9.397432640478483 5.160056694905901 0.28855053691574173 -1.2600341530981332 2.035422559382727
Ni 2.6287896938137156 7.42123138100568 6.567433732408584 0.45965668096836965 -0.1292313581957129 0.4499132284283607
Ni 7.576900451030841 3.775354403037085 10.627085021702918 0.641194818987599 -2.3854070352342336 1.0246848827957191
Ni 6.424171912994347 4.781206119355428 9.230585383605737 -1.8900631852768996 1.8532254476232601 -2.5238501418362023
Ni 4.022675720414158 7.25544659792835 1.0737112142516658 -0.4501536265739408 0.03040715153694763 0.8998675945073019
Ni 1.8238824988025237 7.03235486588575 10.663061976275378 0.19868945298753524 2.281203823651742 -1.7856856529000733
Ni 8.967658288233633 5.215996680634383 0.5291748841047935 0.6309389455875456 0.5353846679293037 -0.8699852051255726
Ni 2.803866495101823 6.368604903694045 12.726737776904532 -0.388230406706583 3.8596544479871144 3.501632703653428
Ni 6.638480651728153 0.05833517926727654 7.300604510732973 -0.6701500685693684 0.8546496032097668 0.236055038120187
Ni 1.0976520436417423 0.31875879762143794 10.8064293026693 1.1217815652404166 -0.6739504161520651 -0.4921651951190363
Ni 8.587666571402892 1.2598273774140902 7.435139792327548 0.7796831770052056 0.15367175062626437 -1.4954659558120245
Ni 8.875987530885284 0.6978722151212992 12.321642802907547 -2.160661765699911 0.46680563330832514 1.7045817463392063
Ni 0.7526645810707617 5.36863936624229 11.795977414126982 -2.426191416240447 -0.30917155560020304 0.9157233305926357
Ni 8.280178510611218 9.136719340680102 9.304368080398518 0.13881591656035447 -1.6889018737101043 -0.30626543769700154
Ni 0.17851503312605918 2.2594319699353473 0.8983160410248624 1.7816865590430089 0.19952711839748216 1.2488616814210816
Ni 6.259025724794052 4.598447669546459 6.398966850847704 -0.35978115022695456 0.988802052856181 1.172285230416923
Ni 1.3256859447327018 1.1557641774519674 8.694923671250015 0.08753320712597827 2.736709715676532 -0.8667952374333653
Ni 3.790532600114449 2.6788222141797093 12.662640435746788 -1.1018254338334637 0.683323629836849 -0.031265385772184864
Ni 2.86682824797823 4.901733961147204 4.0685370130833425 -2.164206545628376 -1.404451217895349 -1.3409966489851293
Ni 4.6637046619809075 3.253409523540119 2.2577577407577287 -0.5895781232525718 -0.07792962259794321 0.4362928094314486
Ni 1.4005588803155524 3.2359453419029323 3.344847980433198 -0.9507024177709821 -0.2599084476990169 0.08654564640172836
Ni 9.277210213627898 3.566978118160956 7.683620760981325 -1.8762720450300783 -0.5296811897866233 2.645510372552876
Ni 5.1891942057953315 6.347188837817813 7.517795255911834 -1.5959186992131482 0.4413028610515303 0.4236023584479736
P 0.8785705023269621 1.8548404678414159 5.966076340702885 1.1737900970972235 0.5958063635504707 1.6922299096420728
Ni 9.097330068264698 -0.13516277047374892 1.6078384479028602 -1.4672599256914536 1.3047770045314626 0.9077122873627013
P 1.562974844041566 8.530979707318224 8.105255342293528 -0.8295867467038681 -2.4826847233414857 -1.061320788851198
Ni 9.084012125829133 7.747451558190393 6.801285325379319 -0.7372995698326721 3.295351040140931 -1.2193999245165386
P 4.896551162145177 2.9313078205623735 6.958590679089405 -1.2254798121620314 0.30853057958209446 -0.08711334597974028
P 2.3272896168690265 8.53555167643787 12.236142352871076 -0.03974128445367994 -1.2177068530848318 1.0499948223154176
P 5.598737131935842 1.3718498758436115 2.6934525153625732 -0.5821149821063072 -0.9777763911696387 -0.6422849667279841
Ni 3.387940177635585 7.7961143388201375 3.446251293907495 -0.44145866990310423 -0.5406448878869786 0.5112859751088873
Ni 0.723454881195232 2.8732882367343278 11.883644459246263 0.6081821115070041 0.2855199776195341 -0.22948278421930798
Ni 8.765806777101126 7.503415765180676 10.913222727105705 0.21102869127917848 -0.3120856439232044 -0.15612484015244726
Ni 4.785639263501804 8.021593860402955 12.572683704068396 0.5644378765415182 -0.8663650918744822 0.2299558672009846
Ni 1.9374598369326532 5.524280671272797 1.545460685414003 0.08374931460351383 0.16905620350213466 0.6916956559506282
Ni 3.311392087375293 2.593000615705077 4.994637484258177 -1.9518282822998385 -0.6644154800784364 0.9137191556784133
Ni 6.788633742815443 6.181200444779689 3.824173593136712 -0.785676418474163 -0.9580817409541886 0.12411460579443785
Ni 2.6366656972971523 2.1917964429588985 1.7147679208130684 -0.15232269279753766 1.1238621019185289 -1.0620175578079065
Ni 4.89654190714696 5.422198040929306 12.272120232943358 0.9841180171169502 -0.253164444106964 -2.1915980502674515
Ni 3.8822126124610157 0.4733792763485101 11.467902535299402 0.3855443752339876 0.948332889097541 -0.37388699350071736
Ni 9.140273259995778 7.657307875548 13.182345605675021 -0.8615535294184518 -0.8924666740575404 -0.35074372261503467
Ni 0.1717487039289489 1.1428534549379898 4.214057977562571 -0.05031700308699721 -1.0616334349956105 -1.2005383117253452
Ni 4.994580103269226 1.5435671127786197 8.705516016710407 -1.2607216660834608 -0.791074963781915 0.7960909289392677
Ni 4.196919571862654 4.985612009996077 0.7004127121321141 -2.1039956804664346 0.3442570864494265 1.6710087954797674
Ni 6.29127939358345 8.65185923904228 3.830878839345584 -1.204802229208022 0.6838231951810868 0.8580185196819997
Ni 7.563712078570327 1.8877882614971573 3.3655865804398792 -0.7656986898006555 0.9924561046690005 0.5357001422871935
Ni 8.877644175566289 5.509916914038609 9.400460875895384 -1.0442206388358017 -0.321618266003988 1.5151387516506034
Ni 0.8153884804929687 6.149835255819209 7.681304234927383 2.13062408168724 -2.3250172212922666 0.39021118458203763
Ni 5.6009768415045755 1.2058429728090507 13.01320125824459 0.6052273997540544 -0.8748749291177061 -0.5798624386267046
Ni 6.825153965783295 2.7918164874221105 7.975515075275649 0.7492271745081935 -0.1629943135787709 0.37898986194492146
Ni 8.350572027056604 7.725202542474549 4.0330070749248055 1.5158586605357636 0.8411399987591061 0.7540225390143078
Ni 3.4094673034904317 4.659484382793543 6.504351664555345 1.1951616207944644 1.463296055947699 -0.45862464015942955
Ni 6.6243852894422846 6.8051539146344036 10.419389904695624 -0.19505468444842536 -0.6277219813121447 1.143955016013662
Ni 7.234983796868562 7.221249379513191 8.294595946835072 0.9537072660355768 -0.7839303823173338 0.42861832360532637
Ni 1.6099717249920873 8.104685234403306 0.9454970964399197 3.7336346547501633 -0.10611328412101079 -1.244382048383173
P 6.374805752500041 1.8335447169420167 10.334309631578247 0.5201022878489365 0.5875027287807818 0.3237725933428295
Ni 1.9729897750911902 1.2122937065669304 13.14490543588431 -0.1742320912761193 -0.5506035417615873 0.05290584686009598
P 2.3429490738537218 4.257613850175675 13.375113336056655 -1.3630304888567168 -0.926136812616476 -0.5191808044759316
Ni 3.370281641035822 0.9394378491066575 6.95582806212136 -0.09580290333393823 0.07640238732013939 0.13913859000709586
P 8.098752780545627 3.9098943121307688 1.9022121762197624 -0.5224612749994163 -1.415360665719001 0.5011365453797111
P 1.234061462375443 3.9932170610865674 9.462499905449464 0.8842471143612255 -0.30397792721440553 1.2048968458043572
P 7.837650770822095 5.35710763846278 11.807287947449083 0.4437513225920229 1.5800169403812272 0.9399382372759425
Ni 6.668892575872189 6.5796003530658425 13.041484532798508 0.6470417646866793 0.7414012507058716 0.97012890192671
