# total energy = -381176.0610732551 ev
CRYSTAL
PRIMVEC
9.15516115992972 0.00000000000000 0.00000000000000
0.00000000000000 9.15516115992972 0.00000000000000
0.00000000000000 0.00000000000000 13.39950377543286
PRIMCOORD
 96 1
Ni 5.183798640714229 1.0816822721371104 0.8026164855706358 -0.2571679088394023 3.8760125776301635 0.19132272820981888
Ni 3.1527078625664315 5.238482417366576 5.446536197637398 -1.4701508740860034 -1.0558415109041817 -1.3549693091151374
Ni 4.8494246955152125 8.411468961547767 2.0290061479881216 -1.0471552959840933 -1.0809992411167317 1.2156653971747708
Ni 6.88724451699793 1.3654098666847294 6.026774738036783 0.03998785324684726 0.9698370817179041 -0.4171303775703848
Ni 5.457803454279964 2.3395739280391212 7.782592712820361 -0.058168637920932076 -2.0774122735509515 1.5844202116552455
Ni 2.800719387603626 0.6038423764893045 13.315474895912129 1.1196017839802783 0.5905988512076022 -0.18843563647001094
Ni 4.79760648425583 5.905683085555626 1.675339532014036 0.44693563385727547 -0.2750699859308037 -2.0305570037603093
Ni 8.223559282025006 2.396811994610439 7.72394292042286 -0.3853186323764267 0.01495970663362585 1.6412387633061862
Ni 5.836076396473456 7.052989551739954 5.475331925530354 1.1751432686910084 -0.6006096984763849 0.6916162088629444
Ni 2.883042595314645 1.0727926108062165 8.198673723395103 0.7413094623230136 0.0966624231207561 0.20640867600866386
Ni 3.5599568893245785 8.499514144883717 11.529763489431707 0.10359437435389901 0.6394007032016537 -2.7815057889453
Ni 7.121882138264134 4.485122529007554 1.1757405652177897 -0.0762082690314623 -0.31917700355234707 -0.18062951016203088
Ni 5.504989154073401 9.343940419708655 4.440421539909487 -0.4164166393328119 -0.6212949947398784 -1.2823541567515722
Ni 1.7213075953944883 3.2483152088882923 3.9914707547968367 0.42289170553419425 1.41126772659655 0.0050571028079332255
Ni 6.185071133789298 2.4670595449626016 3.724472385944318 0.4239797963920504 0.23422698377251275 0.5127399339465943
Ni 4.95119346519 3.500191998317291 1.7281611489190067 -0.2437493214406512 -0.11204250512125219 -0.02360632656503031
Ni 0.2146738771898419 5.217535408998827 2.2852581888589683 0.661005683065939 0.3464060144716292 4.1943992240707315
Ni 7.285265141468186 5.356373425562172 10.343170396364647 -0.8422743694738655 -0.7762016462145084 -2.4903345265772594
Ni 8.186013966764452 2.465924304998615 13.39096835351723 0.6420036880421395 -0.5362110204853411 -0.6626478466550523
Ni 3.311073837542544 6.965255643878 13.081855328549114 -0.4621028285160171 -1.0069383574455755 1.6839280746445968
Ni 5.2927450566129295 8.43302021054151 13.051652452410472 0.8697787455417213 -0.6886581546758849 -1.437276749065802
Ni 0.474475373980346 8.841477718551642 5.775775928547674 0.5456158587390086 1.4127713077252702 -0.8952825462397808
Ni 4.796095882690849 3.4127052798023336 9.900825975429518 -0.664180995470127 0.5227317550519837 0.6650202035419709
Ni 5.220877042763787 4.569533113426548 5.99937334116411 2.5829135236572616 -1.3859786130124583 -1.4561057088468472
P 8.797816755743163 4.0461234039017855 11.248079326819264 0.2172150225955485 -1.5905216965672928 -0.6170436756626921
Ni 6.454498366855086 5.372330871184982 3.5172892614845868 0.6499733365111774 -0.2892323934741148 -0.1769392057946372
P 6.98032503888382 2.3455522481720497 1.6939382415853146 -1.002732032673712 -0.31108471346251587 0.27914338466922894
Ni 5.413703043743489 6.430191414400376 11.457687653427868 -0.24582214480927989 0.711054262982898 -0.3813087398860852
P 4.589894191490306 4.035338624243914 3.9237362961391438 -0.8283914408441863 0.36662079885660726 -0.08072775416837064
P 6.655325978548694 7.7225430963059765 3.200230472284665 -0.27254259152325966 0.1719173271000136 1.137772284241718
P 1.4181344388831012 5.6780949382593375 4.168746714818225 -0.438535068498406 0.17797047527262896 -0.25441065780923927
Ni 1.2411377112722102 7.50150088912461 11.86035635313777 0.49286556362017053 1.1397764591559405 1.0862622892878842
Ni 4.602903675271151 2.139432953420506 5.815934126757596 -0.4552649796585772 -0.05283205619936708 -2.6749453899845417
Ni 0.550343277670342 0.48332566811894057 7.826890874834432 -0.3765136324902871 0.6504711020832024 1.3579181073308162
Ni 5.031264503295047 1.8031181140895134 11.834535137053676 0.1902104689822466 -0.2704455997849149 -0.2744477789657725
Ni 0.8564643960236942 4.330803135193393 6.0026426491571705 2.1811583429913664 -0.7206321364793202 3.0976987701686585
Ni 1.0847492510720738 0.999551322807089 3.7573549777076263 0.21412918458137317 1.8970540147724362 -0.6044149311550882
Ni 1.5132931823159672 2.3082358119364947 1.577094583808107 -0.5725800460326784 -0.09441270785463095 -0.5533885607058922
Ni 8.128254056016141 7.925513015673558 13.068280971334575 -0.730686949612161 0.7206215949563589 0.3968955385807488
Ni 1.4346320390049045 5.071757780397563 11.933999552704792 1.2044101359759256 -0.6478981991497035 0.48523684343031914
Ni 1.5238216174658419 8.22658964031597 9.785965325524888 1.0635375939968588 1.182858635057395 -1.7870784194825415
Ni 2.9933348198803307 1.664792786542162 10.53527954823806 0.9649882382660349 -0.16986995765268165 0.053531910479869105
Ni 4.105027709775084 4.82199583315954 12.630037147011297 -0.05154521906714348 -1.0062109923612477 -0.19170839368401177
Ni 0.9075282220166856 6.498855121899558 0.4202905536024917 0.3356346348877381 1.5693563753435875 1.0846388947518482
Ni 7.954498255399212 0.42681635236321397 4.106545635468866 -0.11789870679171309 -0.4053547250916954 -0.45563907516854435
Ni 1.6650765965331586 2.573433360620334 12.346905553444772 -0.6708452948641801 1.48631128589595 0.7657861073081391
Ni 0.810576898060041 2.221005437929534 9.783527306150615 -1.3451705778571608 0.5838376212243687 0.8298482278953708
Ni 8.72506069127703 2.7777490886549 2.996290105851095 -0.7181047420717762 -0.12386520878779311 -0.5657789639504449
Ni 2.4655123227536206 3.9180884773183107 9.569563869454367 -0.4239635984421343 0.6201629380179642 0.08039068254392606
Ni 0.7972771956754994 6.69499529116122 6.286297002416791 0.3662577590902337 -0.49968130099042324 -0.9074202100435792
Ni 8.387720473914051 4.532820917816986 4.682831892864598 -1.7203482651448436 0.21829385748202404 -1.879916069540569
Ni 8.828477389931797 4.391684955842667 8.675240136147822 0.8608007104128272 0.7217392535005699 0.31279732527824844
Ni 6.615519338521168 6.813975763515803 8.48266315554732 -2.2730968782738916 0.6983632977787909 0.23163531178593655
Ni 0.5304930575903786 0.2816402178396439 0.3616609025591903 0.012100639918275934 1.1042247873035758 -1.0100149394883702
Ni 6.182608395480326 8.453784115689263 10.278785811116816 -0.8635520479057192 0.8720863106289755 0.08138312836418242
Ni 2.011800853921027 5.980801181559731 8.167305395261176 0.6563946666564889 0.009248515181461492 -0.5231791270020474
P 3.4053811510024206 0.4098921217388156 5.087603533056175 0.21626731397029852 -1.029946902525607 -0.9867197164058555
Ni 4.366810383405964 6.014602035971328 7.42261452885295 0.09306210736400747 0.316293768467281 1.1980577113953366
P 6.164215677031546 6.566237106858755 13.448411495694945 0.13066629087002657 -1.0181835913420916 0.7838126257925468
Ni 2.252810467243155 1.829091305846204 6.064428084197135 -1.33136478232232 0.8040238106330992 -0.8021124525429992
P 1.230993792884331 0.7262587807671458 11.425422119515952 -0.4255527973061251 -2.07103542349033 0.14849097775627332
P 4.942761561909101 5.621223078128016 9.475123806159992 -0.05518898646731785 -0.03882854283142345 -0.013058375845854928
P 7.239544267434733 3.5833208601963 6.25282481828509 -0.1434701275029142 0.3140731066668785 -0.5374736892478486
Ni 7.194949478204263 0.13999156684933184 1.6488893563692515 0.579291396614583 -0.12376544998513524 -0.2550650035637866
Ni 2.6255628473537134 4.480792137854605 1.1440078616760678 -0.08631990354416746 0.08434298232345473 -0.2698208217167224
Ni 7.732622928566856 5.762157626560336 6.823215151996893 0.22404078726813031 -0.6639598805982565 -1.2640900683350615
Ni 8.212866053977132 7.464697141905049 10.901166473114799 -0.5491346705255445 -0.8171395220794507 -1.0640489864156384
Ni 6.432251325625352 4.0467001790447785 12.223818075865637 -0.9826445178952173 -1.9374696995853213 -0.36809506940928866
Ni 0.306807755428344 4.40154506423955 0.40640858297835714 -0.06581998381860277 -3.1816062076165914 -1.8518447652256493
Ni 3.0766101643353383 6.124537209258018 10.549080953445396 0.8144756020940426 0.6591879131309099 0.006410531512034122
Ni 9.089719909063684 2.105366599339912 5.622512124796801 0.33690938783510366 0.09558358823428055 -1.440129645133565
Ni 5.20718092190795 9.129196963295215 6.810096721800149 -0.8097581420137151 -0.8113170018604027 0.26293874988490845
Ni 3.54474101174276 7.408420367238719 5.76857997200176 -1.2126759755291436 2.497223797497925 0.708474932291496
Ni 7.097794909673421 0.4598692301211201 8.307826130416302 -0.48285651612360064 -1.001884854182068 0.25275846691779696
Ni 0.17238344198304584 8.207116612869202 2.2887957430693264 0.7160972247234442 0.21572249721042205 -0.516416354356917
Ni 8.606840097285438 0.3225528013159564 10.11385192363938 -0.17200294483528442 0.86594883027267 0.003265301014833086
Ni 8.715218893202147 7.350944266481404 8.334156373451988 1.708587782174806 0.7696466187048101 0.42689594159758093
Ni 7.738363214513788 6.70014964680416 1.5762770279308167 -0.8365161268338497 -0.01163681290797996 0.7002687423316197
Ni 3.401563448865466 1.9480443127177867 2.86498770230676 0.885869737566313 -1.032656073926654 0.7655135703730429
Ni 4.158860056454442 8.107581702478388 8.673351426433547 -0.5052893912058202 -0.4961943708830873 0.7770753070687134
Ni 6.2407619781516335 4.311256866458626 8.193193444020567 1.2610335408969249 1.6098471363687823 0.6186701555225216
Ni 8.659335790458814 7.068754738981767 4.207926226317257 -1.0470779057789386 -0.8384326271302721 0.4352476559963859
Ni 7.9303560958425 5.673489892276393 12.397006256500575 1.5032219456083595 1.4659406926593979 2.529103934035973
Ni 6.913986742278611 2.3899456238605206 10.008906313097631 0.7804611928218108 -0.12700683974056837 0.3042782320636437
Ni 7.173224281151522 0.7210000562888084 11.964055030751332 0.15909832095847437 -0.01695539690741596 0.6550101276041365
Ni 3.362562463005931 3.5848223066002824 7.241949328229403 -0.6439384431710071 0.7305673933151612 1.2273317777691057
Ni 4.485827476404546 6.53311373436115 3.795141073702476 -1.4236766417838642 0.10570525004931473 -0.14565247986621369
Ni 7.557237509291946 8.218707046695064 6.331198489540756 -0.021760017384910908 0.03974411266715736 0.4663004115371325
P 2.3655654301178113 8.936306876188514 1.8154720883427662 -0.49301520182415737 -0.03239898515599581 1.2550896646086642
Ni 1.7387573322602805 8.150116580483882 3.980175117155171 2.2772466387762074 -2.4026717358519525 0.9258372790981861
P 3.705350001163846 2.7634121065290707 13.287094812328569 0.07600438055077233 -0.029098717138169243 0.8596491133068872
Ni 2.6067306811769373 6.72279951511789 2.334447953395282 -0.5646255670722922 -0.29167417014638797 -0.7974965510375427
P 1.2624783915629558 2.9241492682041548 7.859613251280243 0.7277029272831725 0.3833003163948173 -1.0681378117730316
P 4.849928229370207 0.9580509779945836 9.47515035612689 0.35757308683204225 0.18520427401690684 0.24660864526631726
P 2.1193190647037454 8.147452428632914 7.5253757179801255 0.30223754748453113 -0.5184536965019201 0.16492984003858693
Ni 0.7549336605349041 6.061815201247766 10.029849659400982 -1.4511074843013074 -0.9484077081995343 -0.07541662636810238
