# total energy = -340889.3883902824 ev
CRYSTAL
PRIMVEC
9.06691598424942 0.00000000000000 0.00000000000000
0.00000000000000 9.06691598424942 0.00000000000000
0.00000000000000 0.00000000000000 13.27034804086720
PRIMCOORD
 96 1
Ni 6.701566108696823 2.291327527390029 11.324503657605351 0.013001040245358255 0.7707300815769759 -0.2953346497171107
Ni 4.898083993340289 0.5402313322473393 5.875844794315879 0.1863656413148597 1.2642476769588484 -0.35235837540032217
Ni 2.9256308325668563 1.637140475561599 4.675502087366348 0.13801707480814296 -0.12474426895863677 -0.7672428943593238
Ni 3.6680661772179235 4.46337070870232 4.677412486554443 0.7619176254916685 -0.09594431400780896 -0.08565218805318152
Ni 3.642814816331142 2.952169695516806 2.496617011287391 0.11500055930831161 -1.6226743700404378 0.3428900308985708
Ni 5.266907999858242 4.394026935610002 2.7722820833107926 1.0907177539560764 1.4411966529454985 -0.5334640538678233
Ni 5.626157343145876 2.986886916642654 0.5108690316743578 -0.27023296955347653 2.280215491596544 1.729744875868395
Ni 5.49436065307397 8.224871454659304 12.584974524288016 1.7767999203746692 -0.48482418137293276 -0.7015429810583531
Ni 2.2845908088482414 6.5520979994621396 0.3038096857859366 -0.5719606672811246 1.1782532750749 -0.08495464776552467
Ni 0.9031554965645644 0.2770813242928869 13.0994258944494 0.17140799156376285 0.26905771829845276 0.805161009561336
Ni 7.984181104174384 8.99851512396829 6.763405195467421 1.64497354775827 -0.08486645892709255 1.289163723474238
Ni 8.889875337201532 2.815757945232559 1.6090693038181607 -0.21553326401775139 0.6219807079529933 -1.5482635592290301
Ni 7.1405499107414965 0.809864185097321 4.790980142133397 -0.2541172949385365 0.5735159275833865 -2.018050643763183
Ni 1.2253120867506455 7.560991869693363 2.56124326801727 -0.8501393740442392 0.49947124186214625 -1.6390468978611903
Ni 7.972466648782742 4.141549594405938 3.8610074282995916 -0.6174907905024398 0.1404249129186872 -1.179866899418923
Ni 7.7722872787079265 4.109833522455503 12.639289884213426 0.4359341405404492 -0.18931906751622882 0.1650969617440705
Ni 8.1252623161666 7.727088702757977 9.149161932274888 0.8165767075974453 -1.4982599736173938 0.08610624487146461
Ni 7.076256409826535 1.0902150392773797 0.39628316143559017 0.5550944876534053 -0.9303562500144622 -0.06389397044048352
Ni 2.129564680143684 6.577675769322681 8.987396364953762 -1.4589015264244294 0.1724490312337675 -1.2391984472997046
Ni 0.39572101264744636 5.276763737482635 1.1971620328385482 -0.09275871719097574 -0.8276566195606907 0.012055388502637304
Ni 6.703705900858144 2.162976265374488 6.883011417060951 -0.6151608568176825 0.21385921874943814 0.5374528633122422
Ni 3.591876882592564 4.340096919611949 0.15687033940630615 0.2438043430483027 0.10565485642735352 0.3798378117675136
Ni 6.054034173166741 5.865351652501059 4.627476447026993 1.1838402822443739 -1.2259207563541918 1.2349566413042152
Ni 5.795581734359664 3.351404138090151 9.06805383575327 -1.316046921018327 -1.0873470377116305 -0.7651603007986822
P 0.4582691322443809 5.907621614603096 12.340136059761551 1.1125693026135293 -0.4884574072501458 0.16896775755338642
P 4.331093472085711 6.26447729208315 12.468791970152601 -1.2924274818271742 0.9386359735247511 0.06783161493199286
P 2.531346926095552 8.736417784954217 1.2064791956562348 0.7483586558603113 -0.2362761529920576 -1.1316170632735993
P 6.44045706351997 8.00734707439547 5.619262860266771 2.027350323897554 -0.7206635039378879 0.725872301832337
P 5.053191724288285 1.598279673852175 12.518449655360762 -1.5002253248738808 -2.678911573721141 -0.09298008917316244
P 4.335327721828666 6.5506291590802155 7.679735827581208 -0.5116017065770931 -1.7419241915434065 3.5209478590422716
P 5.04838625884125 1.1718626172972963 3.6293341257148164 -0.6585963022934981 -0.42508408519982277 -0.7871535172403218
P 0.5383046126105562 5.747146269419919 3.3082311111607074 -0.3605339692325791 -0.9573561756420739 1.4203720028906635
Ni 0.5197781832748432 8.857442978892012 4.445539711819037 0.9866855207338104 1.6642467941655854 0.695846187783892
Ni 2.250653342493044 6.58135693719343 4.51970799088186 -0.8251263969396693 1.132109686639302 1.99633922022802
Ni 6.1003751805248525 6.006333128417958 9.070574438383979 0.35462557416794405 -0.17516874415777572 -0.18128951234353294
Ni 8.85504931308443 2.6872616125620135 10.086539596355095 0.2390408602213883 0.27644501190145937 -0.050521405788319436
Ni 2.6337668085289754 5.522114482759585 6.687312916842596 -0.40803715701986504 -0.20555532686943306 0.4597736661622082
Ni 1.0136993356782595 0.03359201685796662 8.717676469710776 -0.4797051149788126 0.24590724832391841 0.2882407189848068
Ni 1.6177372754547004 1.5185180143473211 11.20139488638505 0.40321582437182174 0.1612145959705288 -0.2739181317145476
Ni 4.197347395087178 7.0693020853022395 1.5658745162904668 1.2882414687702846 0.5940479860984673 0.08286536933666373
Ni 5.8736206798363355 8.266552067225385 7.939516569573172 -0.6216672904776326 -0.07947794092166957 -0.03467543989499835
Ni 5.553340941249379 2.938650923853541 4.7156712450455975 -0.1431932196924437 0.18308928455643306 0.6451021244618051
Ni 0.8405402817896901 7.261647640006795 6.5608330662766186 0.3862928233642379 1.4246469761169336 -0.28826257336167777
Ni 5.0902935443057755 4.534781738628457 6.8245814906829665 1.7572423099577157 1.9449927474352438 -0.32832704548273134
Ni 1.0591608521904041 7.69269789060589 11.086977660782724 -1.053616992449037 0.22084799136244546 0.15916182720655814
Ni 4.893650271446703 0.9203191684348255 10.501011897853514 -0.1859432090654604 -2.456426560975905 -1.2381872324263707
Ni 8.28885668043238 6.9581870304844635 4.620363451473787 -0.5618955697356388 0.15360027395838063 -0.12412977530308944
Ni 7.604621869186071 6.475183351561755 7.005722150671583 -1.153503836044362 -0.903546843131102 -0.49998289139124213
Ni 2.666797583290392 5.44111972268719 2.5364144254131897 0.18639675166311123 -1.2398216827060005 -1.413714645475146
Ni 2.5312653238521112 5.5772957331570545 11.45100980222755 0.3091504725542805 -0.9582347215922853 -1.8543114815985873
Ni 1.475894442523709 3.6821017630896424 3.792134228144446 -0.6980498803034301 -0.933562929877218 -0.9332104316338058
Ni 1.5671620183536348 1.286160159609242 2.2831237818495045 -0.08110184967833775 -0.08428616094359033 0.8501856539011422
Ni 1.4631463587151579 3.3914345719555516 7.962607284391975 -1.8813821125631338 1.9397289279331429 -0.01921873902029593
Ni 3.9809201116518187 2.6371759689215892 6.755443536582436 0.07254830368137183 -0.9696763877703234 0.6290131893197425
Ni 4.475638245966167 7.335289131253631 5.842549265609078 -1.7934660681764403 -0.332943204098504 -1.7626166868957514
Ni 8.556303499849758 7.57325940695721 0.01705758895378893 -0.35069898542002825 0.5938626095605385 2.129603867952842
P 0.31445605848010494 5.7720258867532515 7.961359676758934 1.0720294335179537 0.429703329139389 0.46852904375733506
P 8.583232240185033 1.8006623044998775 7.943032719573853 1.599641142370058 -0.3546050053426538 -0.18023921670214765
P 1.9894989627365023 3.62338441547643 10.122661282759708 0.298352353497512 0.15818223690210823 1.033202176238111
P 4.2251918939321715 6.419013807327066 3.775228056686818 -0.29660091802404404 -0.28941082803350804 -1.783909791946573
P 7.2048343447405205 4.224076663271822 10.291260584623158 1.5455860123968672 1.3974063952334257 0.424374717837624
P 6.370369803320751 7.978187872739496 10.449324130166879 -0.6048833861510744 -0.7663067556982995 -0.782701137895923
P 2.422716206244733 8.714702521283177 5.733546802204809 -0.2748918084817266 -0.2438665637448058 -1.5321455706212452
P 7.129152797407678 4.2495909647208 1.6052611991242836 1.1418449116491947 -0.47873040977036907 0.5076717753950676
Ni 2.917887686355973 1.8398132475193112 0.2067465372885671 0.3173690038093308 -0.36185268804400267 -0.6366197980224068
Ni 1.7597614467044478 1.414883165178232 6.881392065874459 -1.2508807687336392 -0.6842278868186732 -1.1139314730683783
Ni 7.203673779500482 0.7745666813514536 9.321026230567538 -1.048162397092369 1.688701070553208 -1.1429461151331735
Ni 2.947618103716029 1.981347805308417 8.959170148947788 0.9359214028070655 -1.787807327228766 1.0729072081372169
Ni 6.837850922157941 2.237025767838526 2.6560469410629386 -1.0487825471748713 -0.6052441119246027 0.027067545640753383
Ni 4.0412423033860225 7.1584117351389684 9.86881302386585 2.3893091985021173 0.7453201261443035 1.4267341976632653
Ni 7.589271580503371 6.373325617916476 11.672704057131178 -2.1468503137381156 -0.4134524144981654 -2.2993632681695884
Ni 8.107201019618495 4.0419132551654195 8.108261848783219 -0.9972036466563149 0.0437869152779633 -0.6599026798097474
Ni 3.2893501654118267 8.586568865250145 12.186001208893678 -1.1046798725631233 0.1075289335216148 0.5436895882505733
Ni 0.3965968767270381 5.307264842697403 10.16450237973789 -0.8410775209522869 -0.8679499198630987 -0.16779096363646587
Ni 8.848212858467328 2.4047637126878834 5.531505994287961 0.5197266496770727 0.6657280282422728 1.2908141145934673
Ni 3.903787857768928 2.86276083745413 11.153501623018387 -1.0223819456941554 1.7676365087078458 0.26802979125457066
Ni 1.2258017002112869 3.744853888295178 12.670966061733735 -0.3562659379848445 -0.5006524066544411 -1.1956539870498506
Ni 3.3278482904837388 8.85686269627199 7.638014413893407 0.4825119882999883 -1.102061975324302 1.682236802985103
Ni 5.794357700708061 7.990809019724917 3.5584036423333827 -0.27299227746616855 1.177032258183605 -1.37986787212903
Ni 3.1818981446329224 8.604757098621377 3.3086690432005037 1.3624075105607374 0.6429400838134798 0.9152918994821722
Ni 3.577279147932701 4.435217934715442 8.67275624808012 0.17224154320865176 0.5886175591115154 1.3596764847828195
Ni 5.39308320204871 4.931821987544853 11.157005079336752 -0.7408937149418338 -0.5167508548782004 0.40321505304087335
Ni 8.189655553156877 8.752058214946926 2.3572122720520747 -0.16711296373283477 1.3335173098889486 0.14777158309174548
Ni 4.788301775165369 0.5298896079286811 1.257786152873481 -0.10792822584256251 -0.010997379551768157 1.0571188349547085
Ni 5.881100885485023 5.550049650763957 0.5067444916142512 0.17508775440819524 1.0954267293959716 -0.6543490969813699
Ni 7.865313836229785 9.228851056452239 11.43992912425996 1.18591130584079 -1.7840067225357532 0.500412522729493
Ni 0.40079757888102224 5.001691641761564 5.500134465143163 0.15455055368679188 -0.06901740770997791 1.698188955438985
Ni 7.594022644454779 6.39893965544077 2.2823938951165115 -0.41676965179685643 -1.0825344468143356 0.6087852923086419
P 8.841258533943034 1.8257867285635296 3.50515001826429 -0.21146012238964224 -1.3891822075514204 0.15354396679914847
P 1.916066010556235 3.4026594138865516 1.405634910921673 0.19870307983429006 0.4935114247342855 0.1830923698802266
P 4.9854437284010205 1.2955172168570548 8.267559401586075 0.7926626199840091 0.37488406730666407 -0.6673156844443668
P 8.63743426366122 1.9185775462710066 12.326773239052416 1.385148660911995 1.4213281961563458 0.6109367914340059
P 6.498974938982552 7.872648971223469 1.2019693116687715 0.05950201202037494 0.8761108584073363 0.331983411288396
P 2.2087641908603937 3.4227426326887858 5.863118471105578 -1.5174352609942643 -0.047294671320905646 -0.11860910259517637
P 7.074615298041793 4.154225142886987 5.866130500580116 0.47834294452396325 0.4840803612283727 0.4847660744414877
P 2.645444996256866 8.828211241908534 10.135931620926279 -0.02165048839024013 0.6193633249348043 -1.0191346424014511
