# total energy = -381176.5052324288 ev
CRYSTAL
PRIMVEC
9.17833250069048 0.00000000000000 0.00000000000000
0.00000000000000 9.17833250069048 0.00000000000000
0.00000000000000 0.00000000000000 13.43341737483108
PRIMCOORD
 96 1
Ni 4.297524787015042 8.92902156276438 0.9433627933078893 -0.5958863248587867 -0.24985466300744066 1.1138222011840238
Ni 5.994029430257683 4.272706575633571 9.835988595934666 -0.6108982248865865 0.6436463658518852 -0.2509766924270258
Ni 1.4029540313293483 4.8856356274288935 11.988975775943256 0.0008209532393985862 -0.24723625154798712 -0.14753349893901044
Ni 1.7963190103925992 2.4654928844311335 11.884356551671182 0.6666286856796713 -1.149577247296446 -0.7418913029684125
Ni 5.978876003116113 2.361557445938617 6.283440614163195 -0.8331132717998878 1.407828104787382 -0.1304433762259431
Ni 4.339249487066876 2.364604652365632 3.9335194583094255 -1.7303020339234458 -0.8683047320993562 -1.7165191212067408
Ni 3.8456020458904825 2.2745835661121356 1.2707998092228054 0.08810142092462248 -0.8826072647649573 -0.43419041837646516
Ni 6.506345599965848 1.776227640306047 9.28779799538123 -0.13262290037576516 0.435857778776559 -0.8424438051721943
Ni 1.8305082993704007 7.691516155089755 1.7817685997036035 0.18061588331527606 -1.0151543175974644 -0.2816237278889214
Ni 8.428233378816246 7.6237341687538995 6.572098256961304 -1.10722500758248 -0.652543925451831 -0.1262419365500858
Ni 9.140774874444073 0.39376331869858955 12.401341739178813 -0.8608791290592464 -0.2846401461177421 -0.2843426694819812
Ni 5.887514880301339 3.8610950713386782 4.202644691477022 1.4587390327046361 0.8547897283320569 1.1322472406584307
Ni 7.540954786930869 6.210188341590892 8.989253452694024 -1.0044988947661475 -1.56908126730533 0.35744813121840374
Ni 0.7906335029861686 1.940593220712615 6.224320220312803 -0.31894123339245717 1.0379535748801672 -0.7930292592948084
Ni 0.23141788929981044 7.328953660270666 8.79599998822605 1.8512426128652764 0.5426302937481234 0.3773515550105501
Ni 8.570570960955239 6.792902322429187 2.3331963981691124 -1.1719669278455558 0.6950928545576351 0.050883674223744624
Ni 1.9366373593570627 3.212141064043257 2.3362592077615667 0.03886633804789435 0.8174102592423342 -0.14845626786359595
Ni 4.691523071028485 4.267851237682093 2.086142301432367 -0.1672425473321636 0.6147384245682832 -0.5649649526895819
Ni 1.6259508004581165 6.905529641904784 10.685262465975645 2.2379483553972164 0.1465467095457089 0.4545921219612687
Ni 2.7021194774879644 5.882567759023746 6.3082652503774925 -0.792602456170035 0.2202530380909239 0.5221879667333716
Ni 0.23713415485024658 1.5523864645770218 1.1792955044192917 2.1080863055960406 0.9910635951968481 0.5550438369211279
Ni 2.7847703626544345 5.344341156353343 0.565755175672045 -0.4671830712524019 0.3390251486265258 0.6125483588955
Ni 3.527370897584891 7.6262673885546715 12.498814713679579 -1.058415442278945 0.4993059199288755 -0.8974227325112352
Ni 3.9044351579301355 3.8931366304853903 12.433125387179143 0.0701180969733244 -1.149029345212776 2.1147128097736227
P 2.474579433716509 3.6922688212829256 10.02792496967289 -0.39736219380452215 -0.783362939849638 1.248572689425753
Ni 7.371623728581484 2.836591228578909 2.251521169759244 0.629894049262799 -0.02007465926268801 0.09178838285790643
P 6.382759351352132 7.366511397316884 7.458878465385878 -0.2805703469237426 -0.3871150621552172 -3.0903505573337036
Ni 6.288442805436458 6.642983437553104 10.997159646946049 -0.9601527645506044 0.40957879047537205 -0.5338396920396871
P 8.915813942136445 8.52223786142313 0.9521271831186015 0.1374761147030084 -0.5042527224111897 -0.3608533002452108
P 3.927775657761155 6.762760678133053 1.836737633713819 0.23721409142529468 0.2799517395031372 1.3806322610988804
P 5.6387545315321175 1.1827015836514159 1.9894081827068264 -0.03612579918827972 0.2020002625283231 -0.2747234012246624
Ni 3.830696433729422 4.601795691418556 8.583160879798418 0.13434965325888476 0.18254343935529208 -0.04459115634681353
Ni -0.01897895617403962 5.394344712420742 7.517985091737353 -0.20597801622914846 -0.5352900513329684 -2.475188929185073
Ni 0.2801511641337793 5.263103734409043 0.9562418296283325 -0.1271654768056197 -0.8001149624969962 -0.8164710352575164
Ni 7.115832777031862 8.583778581583173 8.937346310443003 1.6734662558813245 0.7043146302662193 1.0716494244707155
Ni 5.731584187564731 5.956407444883185 3.4000380535991637 -0.33745728991877366 2.0271595480429863 -0.6174663650224076
Ni 5.142693188878902 6.280173127753505 13.534840117366553 -0.0023355901117121064 -1.42775929649367 0.010194166924182443
Ni 5.052323325986168 8.916713418732371 10.346526004782724 0.28890843447579273 -0.3137640600668919 2.2409010102676374
Ni 6.119533950387202 3.0879031538141244 0.38756886201909474 -2.5845042651831487 0.03656957159391766 -0.44195514992354856
Ni 1.1393247837295128 4.105881202087124 5.101998297746076 0.6273383727204809 1.0810357507816222 0.06357541075880019
Ni 2.2780713325045014 0.5914444108183452 2.628382588953774 0.22293341313656445 1.1014181710927158 0.7108470320680983
Ni 5.134285836206777 6.667820005599797 8.901573759089718 -1.7962623999746548 -0.0656456630242676 0.9131907939787693
Ni 6.8833915036458695 4.607394474311565 7.1540339151941446 -1.9252405045089813 0.20311252175589534 0.9375882489865272
Ni 9.220094024872571 2.3226780289963442 3.749844501754804 0.2096698632584389 -0.8453108423073442 -0.12462316999974021
Ni 4.307639309552903 2.674033779696804 10.5659340458604 -0.36524423022405483 -1.0155260991145865 -1.8775876785177084
Ni 0.801783341442607 2.218990405484339 8.94508456266775 1.0764458174180946 -0.2799769363141178 -0.35185855294576823
Ni 4.000743402022502 5.665344161107605 11.142039627218422 -0.3923261740425114 0.9146025867246314 -1.4387829012976834
Ni 4.974619562097292 0.21785414936655007 8.241965543298878 -1.2222294235455338 1.2110001304886175 -1.7382125470197742
Ni 2.637623334227022 8.698737197542089 9.43058164448514 0.6076671195437987 -0.4316766508156759 -2.6369131178021683
Ni 8.02947154017744 3.5868373145747365 9.067906256174929 0.5738254884040053 0.5636524045257454 -1.7739817341995834
Ni 4.420606227335126 1.2815981175402238 12.52041500164746 0.279909316300976 0.01575777705488899 0.47764026202998383
Ni 8.183851094702707 4.66495179811822 11.076188762064023 -0.3340994291901343 1.811483330689467 0.052309608036993784
Ni 0.9406781310190283 4.92558890928671 9.449442200168491 -0.3119429476977531 0.3878462838942869 0.9178928274401289
Ni 1.8345651223846793 3.752377721555576 7.461363040023809 -0.3614729361070807 0.09950400633460928 0.5781853080345978
Ni 7.458918850049368 6.2979974496850195 12.831453090685427 1.1136414526317853 -0.4090751113660761 2.1721417413150528
Ni 8.132489145408806 3.4732646268401557 5.580403281954568 -0.8832898926542788 -0.9834806406432675 0.1576890993157736
P 2.447283072529937 6.625957630558791 8.62330048180825 0.5251460209204312 -0.561500134069433 -0.5953422794298585
Ni 8.430858381943132 0.39638373265917004 5.259358056870294 1.3665716692407561 1.0050647945719466 -1.0085347553984179
P 8.128037654092234 2.2404034554669456 7.3622921178153815 -0.6795793323030683 -0.798822726048134 0.4229634393123941
Ni 3.364244392080874 8.178096280155302 7.217721447352015 -0.8269184558430855 -1.3677268658911217 -0.9918359545864983
P 3.1011750227703394 0.5030607391027382 11.081602142638282 -0.6733878587803759 0.8021021681303541 2.6489579647818444
P 7.263420365424626 0.2897204937145191 10.873935024637223 0.6842284010393055 0.2408321477938562 1.8947554485462463
P 2.1846542631847536 2.3429346090699035 4.329322202514288 0.4187635422984336 -1.485425540856887 0.6935522495433927
Ni 4.979392295055266 7.538935553756341 5.388277834564547 0.7221650281840789 -1.7930305233009183 1.3421207352872435
Ni 3.5784850318982806 3.4383686062512697 5.971436046701239 0.6170074231081181 -0.7111398807181688 0.4065258625816612
Ni 0.6455681203950422 9.285260186414153 10.20615992848868 -1.2661878314043546 0.6602312667937597 0.08448413588700933
Ni 3.3597011174381866 4.8859752257355185 3.9837873503560357 0.9127737610460086 -0.18415809214057963 0.36675783865510386
Ni 8.445029727495273 4.543907947637886 3.568291575699959 -0.023112417647747293 0.19131552912096728 -2.3817537547523626
Ni 6.542434803794229 1.5128920993497792 3.930094104578817 -0.20352415537201723 -1.008068871505593 1.8101227028965148
Ni 0.9700029037127399 7.1265806045199165 13.043001725547882 -0.10824138620760712 0.6924662155680654 -0.07993662572564297
Ni 6.50130669536214 7.788824837436775 1.607496844909454 0.6212690265979495 -0.13287281160304212 -0.2779344519627923
Ni 8.198242720237523 3.3525879096642814 12.964793153365374 1.067883015449748 0.14828374684147366 1.2219193485042827
Ni 2.1627639399063487 0.3388098878538137 -0.12640950372501117 0.20658402524426356 0.06753233852401917 -0.08392826338353933
Ni 2.615659584287726 1.2441596988179549 7.269936981578783 2.1381689839140336 0.39564623955467987 1.2603889653343905
Ni 8.697305377654695 7.235389737629134 11.160335715446166 -1.6605217799055145 0.6244422821196084 -0.7672742618178915
Ni 7.093887383757788 7.938762078978081 4.298949264236345 0.1814286090245585 -0.19085812986857453 -0.2513446172894058
Ni 4.973481448853467 8.508516254168953 3.2610294526983603 -0.4147284529971116 0.6742957153066258 -0.05693733661699226
Ni 7.366281939001597 0.9808241578616869 0.5025531773093228 -2.1096333383681865 -0.49863640466567677 -0.18473119103523025
Ni 0.5819879747287268 7.902571913490974 3.948833506271697 -0.5699683194414442 -0.4340430941653234 0.7582800287390812
Ni 1.902347108720535 0.0659867044770483 5.238025776214668 0.3277482901611259 0.9282392036714594 0.5662453620639022
Ni 6.459508568649414 2.303789020481897 11.648197135744278 -0.10015629520662751 -0.5343001766158733 -0.19245992713805563
Ni 0.44333365746672637 0.09465430855577707 7.630409570062237 0.11452619077505438 1.0168509885735972 0.1846028929874821
Ni 8.206429792926972 0.35376506301097604 2.813575641722336 0.2903055719336355 -1.0467565178837779 -0.30793922585499867
Ni 7.008528890470928 5.021300561759331 1.3164831241299761 0.07062331874451709 0.5372718576496875 1.273068617684588
Ni 2.904180469929923 7.44260895299875 4.079164911521598 0.5680186519142411 -0.5519418009570365 -0.48113387700553917
Ni 1.3421475777782252 5.533313846491318 3.0864080034317127 0.149634090221781 1.0017917802476295 0.14040742941719042
Ni 7.447767175926408 5.673026425503422 5.143991005110166 -0.21216614731773137 1.4812539259777007 0.7288092729734739
Ni 8.694579412869084 2.409064495535691 10.87187999596551 0.2662711566922511 -1.7951838221984955 0.6279142998286089
P 4.593975752033566 2.5092459959901077 8.025660696477148 -0.21901273792591958 -0.744507400435021 -0.290000639098707
Ni 4.381341320423171 0.5194128564833693 5.413909246215395 -0.15687945893028468 0.7142475731092149 0.5707213955573849
P 0.6253739529832413 6.319263646345843 5.600015543078801 0.3028584688979816 -0.34425322979468453 -1.5412074237131972
Ni 5.88783612194274 8.375145902991386 12.782125059898233 1.181858475927655 0.78952124614155 -1.7589693199511516
P 1.0623644647821666 3.389750978408206 0.287921540522667 0.9757398203555842 -0.048874871323831955 -0.13364105722763434
P 5.990046033904297 4.581328009694932 12.012645777915028 0.40857477469088993 0.37621718429579076 0.5595337543716815
P 4.7195812338218115 5.346507242849655 5.911375791591429 1.7450768782397752 -0.5055997233573873 -1.001571179596391
Ni 6.769598535928613 0.371797733092771 6.71802548498465 0.22242407760031369 -1.2171229555569039 0.4661877972186681
