# total energy = -381161.30879347195 ev
CRYSTAL
PRIMVEC
9.31480011435228 0.00000000000000 0.00000000000000
0.00000000000000 9.31480011435228 0.00000000000000
0.00000000000000 0.00000000000000 13.63315152178400
PRIMCOORD
 96 1
Ni 3.241494512955195 4.416547218791458 9.315028217643874 0.10387539592942757 0.2918490051613554 -0.3830694313309338
Ni 8.905777822022273 1.5863756444589858 8.983932719984594 0.46402524234971054 0.3863722704519217 0.980872256486143
Ni 4.049581357792755 1.0036231265434388 7.9538807113868435 0.610977157753638 -0.19364083482003425 1.6330014629980587
Ni 4.884187438244675 6.684263224419375 0.9162894246561497 -0.6214829423809685 -0.6644463333163718 0.5911356975476787
Ni 7.886654868270442 6.232532683374774 4.616362719619654 -0.7262574530858975 0.4337890691729885 0.26090372173275067
Ni 1.9762186542700768 2.5009120237541866 8.099755136865832 -0.3016860458564352 0.33360963403790933 0.019803150768856217
Ni 0.0815007741241308 5.338721734090795 0.5678982063475039 3.0215581211503384 -0.5174941608021282 -3.3851661013225507
Ni 8.850969538792597 7.087426398237679 10.464016250106024 1.7825231960116912 0.635830469351892 -1.3567407991932636
Ni 2.8411723531384294 1.3992226827576468 3.373182498026501 0.6694579275983502 2.2783427000538636 -1.468761964158277
Ni 5.688213030280036 4.109550040225227 1.2942197367407902 -0.23680477180201798 0.7062414149752869 -0.0197211325780112
Ni 2.6347656998266653 4.613396887298048 6.959042372728161 0.8279864920962837 -0.006250608895402138 -0.08253755368359977
Ni 1.9632617674630612 6.566244708355471 10.3413449914396 0.6765618856329831 -0.024586945310744752 -1.406359233551339
Ni 3.2435903429563298 8.988055450466826 4.514482094564489 0.4926827581854031 -2.0396499672005133 2.2413409260185335
Ni 1.0648586217765965 9.267192062217973 13.154273008002736 0.8002311763598863 -0.15779065789064436 -0.8259080123007002
Ni 4.609857263296131 6.590342095968518 3.4788393430037114 -0.08685289322950204 -0.5689504196998911 -1.1207392400188312
Ni 2.849564987942974 5.483324689369094 4.81447920092693 -0.33604446873164706 1.0529315363462384 -1.1444424971730418
Ni 5.039306802728669 5.622245616644316 7.906314685161087 -1.1790490315033177 -0.30499634117659086 -0.7075987003341297
Ni 5.266988459251953 4.9327454906709685 10.251966690951203 1.7305974536766777 0.6423212192825583 0.9420812517608743
Ni 7.138406298665283 5.985112965640802 8.798863479044384 1.3260099457683099 -0.5557629744753397 0.4611826306945928
Ni 4.545929790861517 8.255297393270054 12.781529176560904 0.7526179453572973 0.4545633256058623 0.3563440995209476
Ni 7.403254007208693 5.863135659574753 0.8933712907237401 -1.6832256492609332 -0.05463337107416397 -1.02863306881019
Ni 5.291411864865179 1.551454459240077 1.334505315282604 0.4925063805085389 -0.5505539194705744 0.12162037861767441
Ni 8.484842009794347 2.6312726498247736 6.818224952171913 -1.3332943952448648 0.8193689256306018 -0.4187604569746401
Ni 5.33420405608835 8.350606426921662 8.516861634811685 0.04773124463769199 -0.5870031634365439 0.23746888774857816
P 4.422844023594869 7.543655987684717 10.545501189070148 -1.8285261451043668 0.4418790452699745 -0.5624115901401089
Ni 1.5356286140315076 3.2956507601845195 3.988583389959726 0.46056376616367134 -0.4910359666105994 0.9209169589784332
P 1.5192252512226254 8.309146252099211 5.967380380871199 0.18462166204055946 0.1908732993772261 0.8680849027790664
Ni 6.518841691129803 3.4679000418777886 8.286910893007171 1.1553609438577586 0.9760933470402611 0.716268974414618
P 3.055422068054441 3.491047319890322 11.40957091341802 -0.1824562789581245 0.047992982939510896 0.07623655116623644
P 1.0863478653882324 2.921419355181882 6.08934278325724 0.8642269624855567 0.7490184009314971 -0.24553058171079006
P 6.368882725848604 1.3309824579206964 13.006408009762671 -0.3552737492749043 -0.28222382336676555 0.5150300155323517
Ni 0.5275613964056624 6.112343818909694 5.686946217479351 1.1105088205400746 -0.4744343534981765 0.4560453094680275
Ni 7.121052826255886 3.842727594080749 12.592041925978302 0.7423283905058312 -2.535978549668619 1.3270486714454692
Ni 4.81170897940543 3.091200214873814 12.996701056677416 -0.7986193517880763 -0.5604428964495122 -0.9434470217601493
Ni 4.682885295335675 2.6156051562162905 10.212266081849707 -0.4711667384904982 0.505179090880201 0.14216554975887774
Ni 7.091506280639888 7.870568208661732 13.11316959002048 -1.6167032400586674 -1.1933384515427963 1.070162555512544
Ni 6.014473215256699 4.843295466222533 4.54519764758112 0.2647884014991375 -1.4656241898602436 -1.1449968270146151
Ni 1.077498805383441 6.912354732142882 12.565730410404056 0.4872127362097674 0.864143401632815 0.711856190058903
Ni 2.518749865763845 8.96964940565686 11.117971099260126 -0.838288131132608 -1.5773386222181158 0.8906162511123629
Ni 9.162270154961158 7.702547846170752 0.9147040456952912 -0.26360672248621053 0.18785096761113454 0.5997648339775864
Ni 1.0622877369752044 4.19103591066935 9.762986264686432 -1.19937977264087 -0.6335367882217089 0.4955163709794563
Ni 6.452511000293886 7.326649091967212 10.461439776424628 0.48760945742755385 0.09849973343981101 2.1304222500890795
Ni 6.29771765381007 1.35941122753609 9.262322284775335 -0.6587639382196138 -2.0251507451430735 -3.795626780182243
Ni 2.835276084735237 4.795184524196483 13.501100271390536 2.188681390841289 2.275408042905571 2.4173745892797656
Ni 0.14299242635742712 6.777588205669908 7.929885786573852 -0.14059974793365462 1.2770646262178584 0.632393418645885
Ni 4.174986510260659 8.614904562264773 2.3754127918062315 -0.46007268545986574 0.7569350846754125 -0.8022525776652893
Ni 8.730072749527134 3.9648911961468976 4.728604196720431 -0.6479735324723292 0.6479197964162583 1.380735619445964
Ni 2.7805330051055948 1.5157135716207242 6.139376300004332 0.13431108671146547 -0.1539484013264187 -2.0542065248584493
Ni 0.6850783904109542 0.6285468691803437 4.004888015888555 -0.1863270747674404 0.6578059451817188 0.46524677346163745
Ni 8.379975991337565 0.7012637868997182 0.13812544335479177 -1.321483518652866 0.7294317370488212 0.9670188955428184
Ni 5.444556491748102 6.623847431586661 5.5369956355181555 0.3770900738190473 -0.20623306966274801 1.9053481364604283
Ni 6.427873354280545 8.438892101369467 1.7963582494926866 0.9941337494817395 -0.41549644151138765 -0.2942766407662416
Ni 0.4005755223769024 4.507468981640691 7.6649803262704115 -1.1365093583688943 -0.35863803776144687 -0.9426849467831443
Ni 7.713716291376801 0.9979317837403571 2.610694393653631 -0.1366119669305002 -0.4369726091072926 -0.8502543023555486
Ni 7.789222060217685 8.78343723875603 9.042242436536167 0.5671514188179394 -1.0593240701361435 0.29497392394358235
Ni 3.2657595669683337 0.7057721501021594 13.716450064187141 0.23358857885756545 0.0965552081189305 -0.5452039680125708
P 5.106187066764883 0.8922609665631388 3.7126203305702985 -0.4644864982568452 0.16782207398471743 -0.2851980755037411
Ni 7.137111541464582 5.176299566402847 6.5463529529447 0.9921264892437238 -0.6047854271206294 0.494702102608277
P 7.405517503609918 3.806427818461093 10.558984362077448 0.26293386478890196 2.9084362669219783 -2.3695944936820093
Ni 8.602888470258266 8.677993702698934 5.574268807738338 -0.703314471136479 -1.2907806902523706 1.1038100683636602
P 6.982914342181088 6.495796875917325 2.724653519875337 -1.1310506492471681 1.1793485650216076 1.9353207715631189
P 7.777159394211154 1.2813532034938233 4.652313190239121 0.3936886016076769 0.2531094224993125 1.8496539282219178
P 7.116693499853526 7.3810847831966875 7.159667329676795 0.0315273811843199 0.6503191498863703 -0.41051287225386723
Ni 1.8953755050263021 2.914274903578013 13.29851175460084 -2.0844308709606296 -2.575223096991539 -2.32348818624225
Ni 2.5911817506030657 8.633282662674723 8.612770541583616 -0.8353341907106064 -0.7104716510065505 -0.11357539682601085
Ni 7.118938366654741 1.8986729442280876 11.036772124656158 1.2129559686634077 -1.5530123867679253 3.233302864659935
Ni 1.4987326912115295 7.493942900057798 4.069768392363686 0.8214425203301788 -0.6582558882349437 -1.1015402984928773
Ni 4.721970196156839 0.29587810180021124 10.774511136074151 1.0933233098997235 0.9980582813471263 -0.11274467339459937
Ni 0.4931329641070202 1.813973467782225 11.719247959945704 -0.8181808188597715 -0.249709395678828 -0.4127232496416247
Ni 8.781276205154859 7.985736395924093 3.4058206257641737 -1.218394880290792 0.4690877444742825 -2.7579660539521473
Ni 1.281260055493773 4.741754831367551 11.936451397943314 -1.4581672193615662 -0.21915234882757742 -0.5935214241710358
Ni 9.258389576213206 5.537108344598217 2.676228669089116 -0.9799785410272799 1.1049215562602843 2.985341819130781
Ni 2.2982406052444446 6.576612080761084 2.0486673057493063 -0.13334126659902842 -1.7849122650691585 0.8627964006866173
Ni 4.9058443482564025 8.550716275430016 6.211359211483308 -0.7849092012908353 2.125546667164333 0.9447757678739019
Ni 3.046517119249619 2.6340205158262613 1.3638329630984842 3.1368469011230298 -0.3340585486498699 2.3113741765875355
Ni 1.5754680136530799 4.186890824667105 1.9271687804035176 0.34422803298370397 0.5279624073233036 -0.45337599016598046
Ni 8.113600655593329 5.853336489969448 12.088556493145676 0.2376313814683714 -0.5180880856323852 0.485412706886551
Ni 6.481498657909583 8.5534548266315 4.384885282094315 -0.36425049885221783 0.5377667950082351 -0.8317379887189159
Ni 8.893612693215687 3.115949638487215 0.24166503429085606 -0.3903736783018309 -0.04157499522830905 -0.5671717305329136
Ni 0.7391256544802196 1.8448892889989652 1.710606200646254 0.7220840384344984 -0.44315508376892065 0.2590556127804184
Ni 8.526311499416803 3.1353523668977212 2.698859907181371 -0.7427107135459144 1.0352192066681398 -0.4306746919137228
Ni 7.3631258487869635 0.7126036244258585 7.175849931725558 -0.8223912573966934 -0.684985333809988 -0.9263715543351013
Ni 0.6099396246902683 0.7043618893813959 6.919451678266724 0.6339016277602953 0.20964132401334862 0.8195458175280983
Ni 5.830803988757246 2.9934320740208746 3.317164222276168 0.12606633020417 -1.7641665478813744 0.1486814965005246
Ni 3.874034636897701 6.187421106950346 12.00702963758153 -1.5590529365350505 -0.9100638183140133 -0.9068064877189802
Ni 3.980288560555235 3.5435269031187384 4.860750469951984 0.18548992357812571 -0.9537499463480542 -0.1362954641313459
Ni 2.3635839272798265 1.69262956811652 10.200364561883262 0.08088716256437037 0.7664756771759961 0.07897683291553495
Ni 8.093704242782556 9.022939376485715 11.668777579078375 1.5817182393430502 1.2709112050219533 -2.1020976921127734
P 2.9859336600168147 6.572206180358699 7.96550930771314 -0.032049315126060934 -0.901645255233015 0.5069253841473463
Ni 5.384299050515475 1.6766081121078447 6.016446089897767 0.5221211180511782 -0.27590945111296356 -1.6429104945816544
P 0.6634717803192548 9.04016244169504 9.834519271325167 -0.34947514031525617 0.194268183991388 0.3498479502736426
Ni 5.852591305969043 5.481312692568005 12.777575975438763 -1.1424786885784517 1.807699695277319 -0.3144914251512197
P 2.8023762111174224 7.794810940220711 0.5517435486987564 0.8615291039384194 1.2017583001753753 -2.795285873448528
P 3.8862277101043032 4.638425754911601 2.5008784904741685 -0.4947969763149285 -0.11457761283828011 0.496939476579228
P 4.6618617917242915 2.9438400787940218 7.543917733564858 -1.7565583965168134 2.0259737552650012 -0.05963442383318117
Ni 1.7800769105638707 9.192971735777784 1.8136046017020253 -0.27923491594177074 -1.288442014816865 1.4816033388973193
