# total energy = -340892.0139975276 ev
CRYSTAL
PRIMVEC
9.05183680109481 0.00000000000000 0.00000000000000
0.00000000000000 9.05183680109481 0.00000000000000
0.00000000000000 0.00000000000000 13.24827813208867
PRIMCOORD
 96 1
Ni 6.37415843678473 1.901836108688433 11.018155180466339 0.7208324254155843 -0.5925354061086828 1.988131230495931
Ni 4.712431343203359 0.7701356808685044 5.819398532959557 -0.3280820193514608 -1.3088352337612363 -0.10029822010113049
Ni 2.442864376536926 1.4501766226446609 4.7940743825518535 1.1779807381398035 1.4963175051790423 -0.2208099390356584
Ni 3.4049569230454217 4.658518604985095 5.138688660465749 -0.01275935654819738 -1.0790773415036705 0.8863222517226994
Ni 5.182094932053734 4.3272666481185125 2.6438794149665443 -0.4633606121825182 1.071492072957245 0.24053312849619865
Ni 7.200364813694069 5.976927643639953 2.6392693146350195 -0.904204788430075 1.5566494692998802 -0.7426114689638887
Ni 4.817405491141103 4.552919880328569 11.499306455024035 1.3716529404184055 -0.21592869968395714 -1.2082791320130288
Ni 5.715085169086609 7.701619311943661 12.283868952912732 -0.5572824964436597 0.2344002761255834 1.0707361686278272
Ni 2.058622968775496 6.500015171537371 0.4389154054296866 -1.4555968875312286 0.21083174477702402 -1.0299867546246069
Ni 2.6958541549892856 1.8088194367725705 0.34755159885946774 -0.3642610403751791 -0.5029028932515145 1.1894925954341449
Ni 0.5292554492912946 9.179829472241439 4.484846449083332 -2.057656945300895 -0.09832592686610808 0.6134765271367241
Ni 8.523933399156249 2.365027634438395 1.293767224139818 1.0000426587670068 0.98061411772875 0.3509195860712666
Ni 7.00527963335827 0.5969441774851084 4.924887902974126 -0.5220439849563396 0.12349239882940667 -0.931449483078641
Ni 0.8067521698947838 7.725878233774579 2.4392997633216216 0.6470299376121373 -1.5453592410980417 0.42966116304754387
Ni 7.53030425426756 4.0166438266447155 3.719904712000866 0.8192511691058147 -1.4129723679924826 1.2101426675843288
Ni 7.540949213996351 3.8727829890854695 12.562335125205806 0.9398950427428329 -1.6087477326570163 0.4100518734570487
Ni 7.902959311303776 8.76101910087095 6.940958188343971 0.7537014082294633 -0.14388690332535864 -0.39013328015625065
Ni 6.792787771425136 0.935163332908876 0.4779396829660497 -0.04675396832608722 -1.8458152712021176 -0.8423167926760267
Ni 1.7437005249622632 6.518191259237552 9.333344998615928 0.35808293658892526 0.2891290351270311 0.7196777429858509
Ni -0.14047454552307145 4.798116027550921 1.4485798786853423 1.3110258136546518 0.08376988342880412 -0.6256594423561612
Ni 6.438073454339995 2.1304130840893056 6.925258683111306 -0.03846010374841118 -0.3025108557505758 0.9976024247566302
Ni 3.483083323912083 4.351941954428618 0.3838268336495437 -0.6693185738070085 -0.3252810595675559 0.5326125045008053
Ni 6.000878803029733 5.74004108232834 4.972939577056002 -0.8828823728032149 -1.1896535464920415 -1.0997281849848028
Ni 5.471554559781008 3.012116270605121 9.274841168922798 -1.3944802227255662 -0.7102862744686219 -1.8325776894659214
P 0.33396660263415373 5.549852945541245 12.609724204855585 -0.41422683077034467 0.16877672458850287 -0.2742660019722696
P 4.005202305303566 6.263825601636573 12.586923533885473 0.06464550389452738 -0.2818317301346695 -0.2907015218204736
P 2.2286164583220027 8.66880804240395 1.0628802200631058 0.5796624068007566 0.5415725419075705 1.640861839582742
P 6.228414817232636 7.712526774931071 5.712591388129737 0.387930358967661 0.9140837381066838 0.6161327338126485
P 4.88438908127125 0.9360594647227793 12.585837313504983 -0.06515586787204262 -0.5328616443971339 -1.4921872850607527
P 4.265750367236827 6.195656220924393 8.086774955192002 -0.005986299490421948 0.6007163992575782 0.16417007905442693
P 4.55369833826792 1.267528665665459 3.6863468385293134 -0.363205088306839 -0.6202421279953317 -0.432772454983016
P 9.208523793959353 5.657352555863626 3.4646230085456753 0.32316272767297244 0.09660405907899491 0.319218912533876
Ni 1.4365445568695259 1.203758477494259 2.630909038439857 0.16260196323635867 1.1058584662522568 -1.3627152716091433
Ni 1.7223019834666327 6.588514977037701 4.662016234610269 0.713483698359997 -0.7278070569612046 -0.11094284429917023
Ni 6.189691060668209 5.607594610600732 9.09488975403816 -0.49716110567173094 0.2753481792928548 0.1868803761677491
Ni 8.868998458528047 2.2828279071449007 10.288520131668012 -0.2194379983887963 -0.037430119822000056 0.0794458021321535
Ni 2.4588589716396245 5.47684988413589 7.313446691588513 -0.18155073642471958 -1.3704211248938334 -1.4796940376897483
Ni 0.9254145049939886 -0.054987191211297325 8.933207660769696 -1.1845069692940955 -0.3731686272774541 0.6432889825124664
Ni 1.4092713734827513 0.792334404711095 11.601741562822385 -0.41639632761783774 0.9983259331862161 -0.2775541858052381
Ni 4.120079162376767 6.958110513335541 1.4389613972161135 1.2913884990396984 0.3023748443933438 0.9925538065891293
Ni 5.556714237611334 8.097628107160388 7.842291187502521 0.4554542128512479 -1.4898031010992923 -0.5653804429604457
Ni 5.4455395816682985 2.99722599955592 4.7358746945652594 -0.31294876325444815 0.21106057295837843 0.9150036788177919
Ni 0.7258912092202419 7.152770257355649 6.954074299438375 0.3885188844812793 1.7359018966087265 -0.4818645845239765
Ni 5.090951990294214 4.459179061492381 7.123691232586311 0.7613077598218114 0.22014222354467244 -0.5031769728485076
Ni 8.409961725733456 6.921839804463716 9.150015438347971 -0.40643253153690645 0.6264312875251791 0.24837987823412705
Ni 4.876251480254087 0.05285367334728712 10.323839492523257 -0.38197337005327764 0.19805027674163958 -0.08488239976669253
Ni 8.284964915448699 7.237042855208576 4.707868312421655 -0.7246278879022746 -0.5738581414141536 0.7503386624048174
Ni 7.38081317440278 6.1902251190219495 6.927166810246365 -0.30236995929733734 -0.11908527090064651 0.7637657344440008
Ni 2.3706669285804334 5.349952188185279 2.4940280720089025 -1.5543285344761877 -0.0690667728906746 -0.020330741137552084
Ni 2.4521696644631144 5.1524682711759 11.41571002935796 -1.042906033789436 0.4541702039325017 0.46645390639586115
Ni 0.9691529789816732 3.486903198916802 3.8630522648435903 -0.24988808734853737 -0.06313498078727191 -0.0015668302664876242
Ni 3.345269113137559 3.0382579744288867 3.1143259876745217 -0.006899041112678441 -0.49156689941340503 0.06638176985934374
Ni 1.21958108770338 3.163825050413399 8.404574977829881 -0.28975201342301066 0.5492850800604798 -0.9886089630087684
Ni 3.6629614189210384 2.613944086463922 7.12793111280482 -0.17660573371461843 0.7642007650988903 -0.23112469069810518
Ni 3.907261434329487 7.229095342757999 5.975768103383782 0.5792929392764798 -0.576412275294575 -0.5292117063493724
Ni 0.5284489306587817 7.501881487644768 11.540217135287845 1.6891659260047682 -1.35878585464775 -0.31379157087071763
P 0.36209065865231116 5.329884266655747 8.00097893325544 -0.40879640378339277 -0.3709867891347869 1.3336792893881098
P 8.518285053177706 1.5275969802640044 8.136972819708996 1.1536604162268842 0.8710028477568097 -0.8919812497806897
P 1.976504708010538 3.245318734459576 10.4731341475359 -1.4066793358949194 -0.4148981458057564 -0.024370458424564482
P 3.938988121276266 5.968916768333847 3.6508672601679453 1.9445626018763609 2.1960144341675925 0.18934195033436424
P 6.9112401039174465 3.978707579856142 10.440159212335208 0.6226021435870762 0.3979134383223018 0.7693365436635589
P 6.504260482857783 7.465538364080912 10.152618573946798 -0.9695221215806463 0.42190877279563466 -0.17987026339850312
P 2.190028479305136 8.488757962501419 5.47856068123516 0.8430919802791544 0.14723396542072062 2.6672801601298
P 6.899708064211256 3.8337424182433995 1.5356078555701098 0.13686264948872556 0.2612153394358985 -0.6921134602143371
Ni 5.239021931827854 2.7841005090675015 0.29046619194652606 0.13576324577695972 0.6125709846033192 0.506460785806102
Ni 1.818586368360466 1.0910359575090274 7.070698160956862 -1.0195815001308828 -0.36489198909095866 -0.32621231313257365
Ni 7.130267391806521 0.2548517412212476 9.061132740163517 -0.43246700792745524 0.9335922404532567 1.2537130959761118
Ni 2.9287398045660975 1.5322767797366108 9.38715997699995 0.1697375458398754 -0.4051608639133345 0.02213565555677478
Ni 6.3574306429252 1.9811754556466403 2.578049028807017 -0.15247824453879547 -0.5403332701838307 0.5545686970569224
Ni 4.027270682700498 6.70078490519773 10.228849520249508 0.7574289935926956 0.36562218238876387 0.37133568783377335
Ni 8.12663019131944 7.25253959930355 13.585976539207403 -0.22263465094922302 -0.8655312831192772 -0.04381905406747937
Ni 7.724221747694333 3.7522487341972224 8.39381687014479 0.7911353847062053 0.04466880366228436 -0.7108899694908918
Ni 3.171663940825927 8.421357987892083 12.428884804809897 1.7680013482464325 -0.18804868544423745 0.2082099908834608
Ni 0.1408004116372181 4.854934405286993 10.518125395695748 0.06476480308121103 -0.744119678078299 -0.7580830822369267
Ni 8.617284989022762 2.214839563162802 5.85964661879127 1.0977384082482837 0.8506924183342317 -0.009596128328867344
Ni 3.625314830900595 2.533925851767909 11.57908753160364 0.7956235023845459 -0.44621032565547664 -0.24193489393973172
Ni 0.9969692725586922 3.314157951073057 12.52212596227106 -0.06659440009078209 0.0013837677214040686 0.18497338895302337
Ni 3.2114648659343397 8.402186198176455 8.178969720353296 -0.4002310307118849 -0.6695759412334533 0.02688448309566983
Ni 5.421081519434291 7.807453384349293 3.630557654603755 -0.06150284450048763 0.2652221466024465 -0.22254697633142317
Ni 3.0807201394694967 8.467042606728144 3.4425120875171737 0.1712529540431373 -0.17887756046793066 -0.6067116976090647
Ni 3.460643821218484 4.238160369572411 9.255445798845521 0.2278318788794463 0.648061207090129 -0.3648120277826427
Ni 7.276861883989997 5.933189169652269 11.520662452888095 -0.22760227936714353 0.7743972460159179 -0.2679014932068225
Ni 0.20753688663080325 0.20847103615802368 0.7177364097137217 0.06220244167067352 0.018500372797032653 -1.162201878038992
Ni 4.513128007056661 0.4549724582042632 1.454343182987486 -0.1421182414607101 -0.6689861301682544 0.7213037086250481
Ni 5.819887332130777 5.224231230980198 0.2973057596090043 0.25729620688715044 1.9664105509893877 0.7823111015463559
Ni 7.737183977568167 8.738434768793287 11.385437067353736 -0.0774331425774989 0.9154788186819975 0.7288403833217254
Ni 0.11556660701481146 5.020048954957804 5.847882852070575 0.4644170784714905 -1.5739553075681796 -0.8457831539580724
Ni 7.751494931081108 8.590428190115176 2.8088464197023386 0.17754830013354583 1.625042613162298 0.021309560111053623
P 8.356193816899257 1.7134583392021525 3.486323881380542 0.6910873329426679 0.2029474569329408 0.47308478144881755
P 1.8151919296714383 3.429731799557072 1.6625127929899242 -0.7974168468395427 -1.3089123668560747 -1.4528967149912462
P 4.781370130018385 1.0180509997766802 8.116093853628698 0.1203937052994249 0.90545434456646 1.0369068787832079
P 8.44616907174975 1.53663071309507 12.352760670177936 -0.013810166410214927 0.5542046288492841 0.12091229680705629
P 6.419001234825911 7.720637220438721 1.542178583688417 -2.337657792874413 -0.08652636312801873 -1.4401407008771585
P 1.8339473349078794 3.2546602297317797 5.990050091019909 -0.2560708191204816 -0.22100534287591614 0.1609618565297744
P 7.121423747542041 4.1021565260987005 6.088047083380313 -0.8431572862994511 -0.3581346157624671 -0.5980455372936345
P 2.5037289251903183 8.37971048813684 10.397076091310419 -0.6198554340798744 0.18461189184854657 -1.3212526335889825
