# total energy = -340856.22938608157 ev
CRYSTAL
PRIMVEC
9.40467221738834 0.00000000000000 0.00000000000000

0.00000000000000 9.40467221738834 0.00000000000000

0.00000000000000 0.00000000000000 13.76468842897949

PRIMCOORD
 96 1
Ni 1.698803573898496 9.119428576581123 12.293628674666538 -0.8051178150282262 1.1485462349287703 0.9460428075117836
Ni 4.658200016480521 4.595179307485017 7.728679745781005 1.2350641134163567 -1.1444162719207966 -0.8557641764301843
Ni 0.4000625330170176 7.84480393684532 11.112825045666316 -0.502710060514418 -0.8525065887248351 -1.3134609054587056
Ni 7.041061833849687 1.8737586924544365 3.425893580634744 2.152521910201596 -1.8075189467250805 2.1575864692086975
Ni 2.5804916008091774 6.288490552767878 11.457396250320842 -0.08288979481669595 0.02175616073016898 -0.7843895813419395
Ni 3.5772646024964563 1.5063839789055091 12.68124224297719 0.8090022376842971 -0.3716976991588824 0.23803735865753844
Ni 7.639057921221588 1.0317395732505203 8.471601833096305 0.5821028979214491 -0.26829101533575733 -1.7034980263567245
Ni 8.488036497917918 3.742448266546154 8.46347995810921 -0.9272871241708351 0.9577948058413891 -0.10751350690264708
Ni 4.85666681575408 6.847758199661717 7.698673198381951 0.582542556562029 0.8458168354094853 0.6595087868054383
Ni 5.842361113487216 4.661914862033904 1.5447146017458275 -0.9287421114498069 -2.2196320735865323 -1.1578155760458382
Ni 4.61953740870847 7.785629738815219 10.239028479271697 0.49508493986899255 -0.9881937298482208 0.7220524138656145
Ni 2.200194867537847 3.0584276417646326 4.4613141426184155 0.03668527123617553 -0.9625770577213809 -0.4769149538281851
Ni 0.4730465518334192 0.7160378911155456 9.679246396803755 0.8752058300945637 0.05199104835531046 1.5610051751654148
Ni 9.298164373396457 2.9174045808203584 3.750106491189497 -0.3823382095918641 -0.8766860141845161 -0.1404969038072032
Ni 7.742311818261079 8.781800841476127 2.7432065383835256 -0.919714711140216 0.013961861496730793 0.015913328796146785
Ni 2.868688378373454 9.279063483981464 1.3635495780787499 0.16942284281293402 0.9534748383097966 0.5579766942972068
Ni 3.7768975811336087 2.341810422836205 10.343020643085723 0.5018903928266001 1.5608766200073505 -0.9263468717447529
Ni 2.1730059599559937 6.800424484041009 7.481782646098067 -0.9578295157340665 1.10176655557107 2.1657612917100058
Ni 8.873929011200042 7.991789560019582 13.916100166414441 -1.3933641068432518 -0.8013107825773103 -2.0325174699207897
Ni 2.2030444832408227 7.626747205197843 3.258872243620157 0.018400099773742504 -0.41258903805660563 -1.2604061917255713
Ni 7.400104007752291 0.3046530731321518 0.11002338015170858 0.8686813987124847 -0.18389969627287037 1.0121638675105729
Ni 5.18160764794385 2.8111129746321506 2.9276669592199847 -4.198057903869241 -0.2943031231288028 0.44232590299940594
Ni 2.7076803888192047 7.237243297757494 13.805982739539862 2.1487547298496796 0.8958582162375927 -0.4927969151657642
Ni 1.6845649000559066 1.1740510742981198 5.871465752813942 0.5669279899532236 0.3876051144177583 -0.2961478896470255
P 6.852150181619768 4.538995795242196 9.785344266742852 2.3989372085101848 1.7496979219515545 -0.5917417065627938
P 1.681875163781811 2.6349822720403293 10.20220824680068 -1.1509435315163532 -0.7923090932993323 -1.747299854033023
P 0.5435204636164079 5.325649608692266 11.885450849933026 0.0016663319588293883 0.01595986576336606 -0.2875634904121241
P 0.9990771463976053 7.203753259743317 1.1879963223653536 1.915171036088121 -0.30876429285945534 0.503260019480617
P 5.519837282075217 1.1838225288043618 10.395904996290247 0.9613604117054604 -1.088035836248539 0.8740681169456946
P 5.165102448080082 3.0950682449949682 13.691115953160326 -1.1559155308096478 0.3114570092002701 -1.372901725223842
P 6.7526205348059465 8.185996042747108 7.884799186680446 0.47320382352518503 -2.0701265385228154 1.8884963550104121
P 5.514749354367925 1.5343064509257525 5.210347385985838 -0.20617830516541266 0.4543057010691015 -1.2866281015365777
Ni 0.4677319715240088 5.864443284017203 9.701366186022891 0.17162524978089153 -0.6264274308704373 -0.4231233619290261
Ni 8.927291121756747 5.849536878442234 7.0372520011062045 1.1732504225436697 1.2813719953439608 2.2919106685462847
Ni 4.469025033426565 7.227208512427214 2.127180753770127 -1.25174208829267 1.913415743959911 3.7737047832981716
Ni 8.977107670861237 8.149120322709596 8.650831375206707 -0.43479617028126405 -0.5039920125506352 -0.5973950481938292
Ni 0.7601175901249362 2.202941031845665 8.019197596465725 -0.25363084222042126 1.8986108177365943 -0.6081085779565915
Ni 8.267224197290336 2.901078069730045 10.619883850076878 0.591218229959156 -1.0867466851234704 -0.27239346753990507
Ni 5.486826882347682 8.160330692075757 4.18712186255678 0.5991567680799423 -0.08268513500505759 0.28505100840291553
Ni 5.9652425615897755 6.465825053412441 11.778457655192204 0.1437514061887589 -0.04733709452306686 2.6560979182607354
Ni 1.1129018950877383 4.139616981900447 2.0835336696859406 -0.03540691874438418 0.3298110862274255 -0.25659686682728067
Ni 8.819729884809789 5.0009721073265325 4.719952975651731 0.6843371587030279 2.164508136029195 -1.3589460343746982
Ni 2.5039093543757516 3.598133570301414 11.859421538444165 -0.19312584285682868 1.4054259231037924 -0.06040601189188306
Ni 9.139479337897109 6.647730224788509 2.6890149357311017 1.2730747883321751 -0.38638281197488294 1.5418383724289768
Ni 3.3090057301807203 0.07132597509219518 10.277913977776953 -2.659314111205188 0.5362074209409152 0.1773858064137526
Ni 7.837562339184294 4.745456565959745 11.986070498264917 -0.2793567862316157 0.6903103455673273 -0.21202936462955094
Ni 6.630340985729759 1.812985700135537 12.209746521603906 -0.40880643108572173 1.2386469456716087 0.5238347583081752
Ni 3.346135376369982 0.0443703033830603 4.3173493001827525 0.24427331226492127 0.8508464274135928 -0.311918779328037
Ni 4.728753867977949 1.9937058828034373 7.136688541664384 -1.4195268812815487 0.1620571464764822 0.0851600789081114
Ni 2.7971470362858852 1.1442382631481798 8.233651398160035 -0.09244709948782788 -0.4145091378974538 -0.14777698240838422
Ni 7.145340840168467 6.306867282416769 1.4985207324063088 -1.1012451358499613 3.822334628490733 0.9895548718618054
Ni 1.4187230285179413 4.823054517000172 6.570394664104891 0.9467961407380404 -1.771851061009826 -1.255304865943264
Ni 0.4198349160333058 0.0006808982735822222 1.7380530332212594 0.9382233114673648 0.010278499107872619 0.7676339591501554
Ni 3.6901394792855977 5.182896088047174 1.5572265777565153 -1.7747839183859047 -0.5905487146959572 -1.879052435988693
Ni 7.178134932433402 6.889054115674142 9.86707933312235 0.6319581308806793 0.008176108052889144 -1.5349557863765306
Ni 6.80975391894976 5.658960599217507 6.544530874848282 -2.5033990730707014 -0.229716754606985 -0.669307518063415
P 8.952561476192043 1.516305908168344 12.156450243753207 -1.9378317109104306 -0.4967929236990347 -0.931289560462009
P 2.7283048351446992 3.2817415852205696 7.349338527214038 0.9998529113537038 -0.8611077001302848 -0.775924995514354
P 2.931793729419541 1.7866149990426565 2.678388596513967 0.08358604955277217 0.25555428449537926 0.6535931926519518
P 8.598080568348658 3.8183251625580517 6.332513823743546 -0.1157783180146006 -1.9754613483377461 0.7625580872891449
P 1.3465139546979925 6.265477319681473 4.731927944874829 -0.09036090638276051 -1.1867392010587239 -0.22468099195529048
P 0.9323867342756957 9.331400485258882 7.42727410598957 0.04985497584891414 0.1802944954201153 0.31824009356037447
P 3.6835844227015255 8.735313546361251 12.321488135382456 2.4259031955760673 -1.1615948405826124 0.23002374432444256
P 7.827866122056348 7.649280799997608 11.829909676807413 -0.5788450531057838 0.32728189204766855 1.073614004396254
Ni 8.722137600487098 5.363409367924761 0.4688445442555665 2.292839865228774 0.2347885127029376 -0.6090220909097963
Ni 2.929423752003205 4.646143226608526 9.06788815104642 -2.304754871498805 0.05198462059740725 1.5232642089712152
Ni 6.429165640837531 3.376662942613738 6.511537403530863 1.9272847886325195 -1.0599568186241357 -0.13109797909080648
Ni 2.4978339360783193 2.9784126899464343 0.36184852811305845 0.7404062337824538 -0.558451062830464 1.9550866413361359
Ni 4.499025938022245 4.125810922983062 5.408531104623555 -0.509450207451729 -1.0406465483312979 -0.15344472221712283
Ni 6.732099539875611 0.0762267498209755 6.352692488602635 -1.5919440308361164 2.0654417314526365 -1.7473517903168811
Ni 8.840241475067838 2.036412499658919 1.1217921318006843 1.861451177967162 -0.4128276364299729 0.8578280009377484
Ni 2.991212448929106 4.925255090743516 3.537043640526441 -0.13376061352463414 1.5385473603825308 2.2192587494075133
Ni 1.1323789713942132 8.310288191692726 5.308695805960405 -0.6886820659352849 0.676245382833829 0.7631489267956083
Ni 5.032985611791641 0.044555575427115135 8.587031959345836 2.0771392223952225 0.5599762412257389 1.5331719550032306
Ni 7.634741176641834 0.25532086465044534 10.532808810772794 0.31273099081668726 -0.8578411135638709 1.626744169234437
Ni 3.381590990892151 6.960999858670054 5.685008720050942 -0.14825572181701563 0.28764962236802716 -1.7105209946417768
Ni 0.23175087496464747 3.5032310222528205 13.261313965437207 0.0934734838698132 -1.059510989335969 -1.558456697711948
Ni 1.8928313678525683 5.169635500122438 13.568197826835846 -0.9087237593463511 0.3602681171657021 0.9069833796164768
Ni 7.884971292183299 7.583109525785943 5.968754266221759 0.7341134587952066 0.5478563180337532 -1.0183340008770267
Ni 5.55177554916203 3.816030422520012 11.159184437238087 -1.1929011068950617 -1.1801769744601738 2.976909629203028
Ni 6.076217694576934 8.91925953162361 12.262038380454344 -2.1832183108441887 -0.94441992719638 -0.5495907842263568
Ni 4.2368706980208035 5.299758545886024 13.025441963076375 0.6684004328681133 -0.9626243660195487 -0.20297779595024398
Ni 5.039559477720288 5.628009822720836 9.913094513688414 -1.3560234614112645 -0.6153084381391403 -1.7645619835475805
Ni 6.677505417249301 2.1595290645686545 1.181003008052705 -2.820640550163233 0.5017091300537295 -1.545949566383873
Ni 6.186346407058258 2.693676831783791 9.03251247623869 -0.7685554425231602 0.1866096390048657 -1.0248928850414671
Ni 6.514334353069031 4.4790880327737055 3.8246836614913247 0.6278847321422542 0.6436913601572075 0.7236421269502376
Ni 3.980884923039664 8.891007896073319 6.858187040760825 -1.477651553338423 0.4425051088897476 -2.681061015963976
Ni 8.613278518764526 1.50163461940055 6.198955251193501 0.3488562757843347 0.5464974900130136 -0.9947628984253062
P 2.1344279942345254 7.408323691331169 9.588606046235652 0.3932324879068647 0.23014355773175846 0.16190930804470824
P 7.867535029763114 3.8419496993431146 1.7772827427322195 1.1796820371016263 0.9067077573575869 1.1766663902037542
P 1.1350028749622996 1.34957987786357 -0.22209603839476474 1.4644828771669487 -0.014078589580253173 2.2177148019591613
P 5.253365297494019 6.908493573291469 0.42270240061362646 1.7551193500774416 -1.4643856894674523 -4.08863201043523
P 9.181687507121376 0.7012659723542805 3.9426332994465563 0.04877485541085794 0.12747143808181272 0.224766095469929
P 4.809643454318843 6.023720813870637 4.55977353772597 1.1493468764531949 -0.34180785357798554 -1.6942094019659466
P 5.694228120293935 0.4178157328932767 2.1223223000666382 0.4575555754649668 -0.6097502273250724 0.3997170671899438
P 7.373883781416003 6.622544512403797 3.9045876381765354 -1.056216377745097 0.5324425545818443 0.6870694700325264
