# total energy = -340896.1924263387 ev
CRYSTAL
PRIMVEC
9.01087597979005 0.00000000000000 0.00000000000000

0.00000000000000 9.01087597979005 0.00000000000000

0.00000000000000 0.00000000000000 13.18832782973168

PRIMCOORD
 96 1
Ni 6.483406431284598 2.0451084331736675 11.288588556257396 -0.1749370877629439 -0.5123375563018532 0.24567816303224788
Ni 4.574875846725723 0.3930499087981089 5.979456066324867 -0.4855001243940347 -0.8506566800002898 -0.03397070051848988
Ni 2.7486686259555095 1.597051631397463 4.721685545119634 -0.07155148698574129 0.012123265626095251 0.464917929367309
Ni 3.4681600476316543 4.2656225799539556 4.966104657469795 -0.26015398805091966 0.37435467716575527 0.018963428476380245
Ni 4.964884584849722 4.432125548001996 2.657632646093374 0.9760483527349384 0.6454651642281788 0.19749054758342763
Ni 7.161123431493555 6.052353152655198 2.6254007423858385 0.29555242215487165 -0.5397216047417608 -0.32283748312306987
Ni 5.365318906588374 4.705209158223009 11.581686223320679 -1.6114795297658826 -0.4640805210676782 -0.8910178574261558
Ni 5.654658137242262 7.683366775965912 12.240839016647259 -0.8236331002235943 0.4161939817990445 0.7004960278510773
Ni 1.7093451689997288 6.475828284508519 0.5178262130221384 1.063092793149956 0.09615848690114408 -0.6047545738826939
Ni 2.7056867470947483 1.555844895122775 0.3170990365671686 0.11591870024720682 0.2687910949006274 1.3310860747396365
Ni 0.6888940908879686 0.12659650119046004 4.445139055224367 -0.8004090966986473 -0.4732809566200236 0.8850310437151016
Ni 8.529497049950054 2.2739846853882035 1.367708615802426 -0.08764170767938455 0.3265573551768182 -0.14255224367433514
Ni 6.695134986335188 0.7275183100805822 4.690165500621743 0.6613486682276546 -0.15128473845132653 -0.010337377370266066
Ni 0.6661362222819436 7.485136513270338 2.484680594041006 1.02439460524881 -0.6955800786066988 0.08378788115093311
Ni 7.47487312542497 4.027239853484052 3.952950586800685 0.6797359124855906 -1.3754771992605022 -0.8556783015845972
Ni 7.656487332644811 3.830613526729194 12.661072035290076 0.18762702452578653 -0.4007192832022131 -0.5632993920617009
Ni 8.066193845860974 8.963749189584814 6.786726937250931 -0.20859359947512465 -0.8497102569266206 -0.675463767472798
Ni 6.69602706306626 0.675691355268097 0.438160156586944 0.30230439616672455 -0.13752470855275672 -0.827667161083652
Ni 1.8345693137645085 6.528253561492147 9.245202101500979 0.28319929990615744 -0.6942945270260559 0.4677877947159363
Ni 0.0401281344089368 4.940573241208981 1.4606729231438491 -0.4058247227495785 -0.7596234301408531 0.456698112560678
Ni 6.364489899769826 1.892229909745643 6.964175416462947 0.36713141994443865 0.1247769219687851 -0.2159716371067506
Ni 3.485776310351316 4.404164799552322 0.7002081468832666 -0.9345751731918164 0.5449340021806357 -0.5973580243083066
Ni 5.883462302448227 5.525153826343549 4.767000339795291 -0.2824881327717458 0.39759667841283136 0.7109740445642658
Ni 5.4974363715478045 2.9679302734018207 8.978508103502223 0.4134393018720428 -1.0004874596139093 0.6863721868551858
P 0.2544500195928857 5.336862559954772 12.453026225289884 0.06931205613226127 0.6556696155650064 -0.5705342192472432
P 3.8716040019781675 6.2113050065553725 12.65344883413364 0.4038776263255367 0.01838287338256189 -0.02706420320664371
P 2.3734467354647415 8.495183633870015 1.3850905957442308 -0.14881879340933724 0.41352054873193944 0.2446882883151528
P 6.365760433295899 7.689755487100562 5.927612891935454 -1.1916204404104251 1.2493152240187324 -1.0861707580153424
P 4.809546092254195 1.0873424155404763 12.425396175992033 -0.432312741737778 -0.1544703352681598 1.0850387012934282
P 3.928255379839301 6.241716713296477 8.3510474624065 -0.01288714037531329 -0.8691516534806838 -0.7996822458349517
P 4.652738826859022 0.868596190205451 3.631775029898798 0.153788992930419 0.6291396875952778 0.32247932845270266
P 0.21066617276176636 5.724492426795911 3.6556853895543595 0.1973401380484924 -1.0756590598507412 -0.04701339263506097
Ni 1.3704100764486433 1.2683979484438888 2.512350291193572 0.35356602255517816 -0.00448966034023743 -0.3889968525589623
Ni 1.9179289283013856 6.304603617399046 4.989961852956535 0.19719847026430554 0.7765477167000174 -0.4991642521446886
Ni 5.955918756938663 5.495300793918873 9.174407252558115 -0.42440274286208196 1.1557352964780419 0.029260953747646378
Ni 8.63102259064695 2.2201897552417167 10.110224578256497 0.27442335348574026 0.467929205389807 0.231622199159814
Ni 2.323598569037544 5.10463426184166 7.143457608955499 -0.10110194694934846 0.87044363281923 -0.5312230803524464
Ni 0.6810627384942814 0.05719383260063405 9.015646429230657 0.3024707465412597 -0.06764238173932222 0.827389224831917
Ni 1.5706767971363624 1.1418942592769645 11.342225796072631 -0.4363334328613969 0.3586827749564533 -0.4802458179736309
Ni 3.960505305298979 6.765536961081336 1.7015318383581843 0.5356726314833679 0.3003912383044117 -0.3464648927340227
Ni 5.631491174862594 7.959342877405857 7.982051186193489 -0.522026501454843 -0.8029868847281526 -0.02620776874361938
Ni 5.138614275507055 2.7157609065426165 4.806525646595048 0.6124470574309452 -0.044900717167432345 0.048233123974775
Ni 0.9427899416024608 7.4179333995295496 7.184103868738544 -0.5854743854968433 0.24556169205904158 -1.41182359910002
Ni 4.975003798677947 4.5928975988686 7.10006843849631 0.11531269123209173 0.3160610836311847 -0.47222680432389635
Ni 8.224298677410433 7.347666587924473 8.987476628456125 -1.1720525455808266 -1.0267163114034512 0.40597564650514595
Ni 4.588049747542166 0.41952476378360215 10.375943599464325 0.3909609182638686 -0.4444480915487313 -0.020473180252687323
Ni 7.955504244199425 7.239247727032926 4.601381338689859 0.7830320388727805 0.4754795069332392 0.4086413662627672
Ni 7.099822441579559 6.013912755334442 6.9240571940176885 0.2838734431550466 -0.09503697170219116 0.8014349668600005
Ni 2.393432858591192 5.121682839368822 2.837073430004785 -1.062606854652473 0.2531099367199447 -0.8593495797885975
Ni 2.362020944606157 5.224523967972149 11.469717077256988 -0.01927196085573455 -0.4966296586482931 -0.41020536831577736
Ni 1.0697621963250998 3.4363066007191194 3.9679329704446658 -0.4235298533388255 -0.17646843680580576 -0.007898943132102524
Ni 3.5298755378449362 2.66448001082006 2.680448184306256 -0.5530651159282023 -0.47628246245050876 -0.42921096288400273
Ni 1.2370941649717115 3.3003234699250417 8.25390210856793 -0.9230625445665265 -0.7761844198233278 -0.24725193527727096
Ni 3.6342755480086217 2.653991351072906 7.084809420956935 0.9217818780818898 -0.6210255431285756 -0.18173405608011928
Ni 4.180352659689934 6.807518632698168 6.090646672695989 0.010045814271776247 0.5448697246016034 0.04771530379809202
Ni 0.6704181905910911 7.13259499785138 11.349453419769533 0.22311673279196415 0.5564139777957773 -0.4861801811801949
P 0.14817845046916225 5.632941925910096 7.952930737993422 0.4001505551829367 -0.9310501907576934 0.43605729638187485
P 8.653720987470903 1.5809942502381595 7.974810046182482 -0.8101047267198563 1.4433466094089658 0.06263952920809211
P 1.974129762358947 3.142921486709155 10.32477263642984 -0.2540926123481882 0.157295977642413 -0.1267553858513946
P 4.0021806071293815 6.181019452079267 3.8531019701406826 -0.22360164284818265 -0.2662012226862641 0.34451059722112926
P 6.998305911758734 3.957612814080047 10.355686248968125 0.706625537787583 -0.22788124406014304 -0.3594178533502648
P 6.258684192938995 7.571010162231146 10.08194935023193 0.6794476918212106 0.7574747592289665 0.26791126339883536
P 2.331978683783982 8.350577094675572 5.777344819305325 0.8730008520234448 -0.4199997286983799 -0.5977642586077898
P 6.871522885433595 3.8338394203627693 1.5547320519279524 -0.0660459837864798 1.2992200792689754 0.4410398371981308
Ni 5.230777515965727 3.0498751803954818 0.18593582338370357 1.1212190078687272 -0.9370130932093476 0.8862865133887574
Ni 1.6099732276839056 0.9558376901539036 6.86596227380991 -0.7596365427669757 1.519570819280028 0.3033037839655164
Ni 6.902520299119343 0.6481730408335311 9.103415065429289 0.11284751752105081 0.05369466130997849 0.5530782285543249
Ni 2.8167367837991555 1.4327923714912116 9.045385924616832 -0.5935687324692035 0.7596157168313692 0.8859962358418483
Ni 6.091036843629883 2.026068452034718 2.4005397365487355 0.7844276336687265 -0.28185769827659846 0.8186464456422804
Ni 4.059543844200159 7.009010832531602 10.455442954692197 0.11577934645586513 -0.9298376585068308 -0.16003625939171146
Ni 7.988186691710531 7.140722808067818 0.08790470042731052 1.0583861317029062 -0.4451374043062721 0.8012231079595105
Ni 7.703343888216292 3.9813564725282875 8.150202243474995 0.2591785115115278 -1.1134254799662373 -0.0997606024301056
Ni 3.0385394982976126 8.464150176679981 12.364426786317464 1.2021879315136264 -1.071844314090341 0.20241163903412884
Ni 0.3176964576507049 4.679203769880837 10.038559278685133 -0.7255146613826021 0.49372456918635615 0.9731836295926336
Ni 8.558674266669371 2.412689100755856 5.828185984275596 0.47712527006677824 0.05950843977827816 0.1875537480856899
Ni 3.56867637020855 2.867765374991711 11.723078583020442 0.48585159419618257 0.19261984975468763 -1.1791745013375885
Ni 1.1496075691941159 3.2694972628846513 12.493382334863428 -0.8264458870820411 0.08414603582130024 0.2734854150525032
Ni 3.0399181623365426 8.250069782974748 8.041319322465768 1.2949247943277313 0.3134074480584216 -0.3848609760137178
Ni 5.651747624271188 7.754886099344919 3.6330680906150494 -1.0207966034849065 0.39389557541216036 -0.35341407035834616
Ni 2.985501481741126 8.408273734160991 3.5926849484132903 0.3894131141607745 -0.7179070242386733 -0.16445958527038773
Ni 3.5842291423078527 4.199086271042455 9.097941859303496 -1.0718913652781927 0.45834336147358484 1.294868744278815
Ni 7.3374032000791045 6.059669984025206 11.270679440065411 0.7317300461646945 -0.827591313540394 -0.4689111096871021
Ni 0.6637474390354052 -0.1875010125573124 0.035433467975717364 -0.11182961777949774 0.20497297200340184 0.9768837041520401
Ni 4.528902357009245 0.18482388127648808 1.4622029699007795 -0.06597964932491862 -0.16535870004588943 -0.05799508845754528
Ni 6.022698359504094 5.557439795307513 0.420432159003996 -0.41635981795294746 0.39842380229981705 0.755858306671466
Ni 7.769889208003864 8.677464645919144 11.435797436461272 0.1841022992019797 0.25954077994695307 -1.1845193105892697
Ni -0.04797210202912395 4.986681894066531 5.768825035979781 0.3308603534275463 -0.6088850511112998 0.4431203738762433
Ni 7.867927539661115 8.739225190512782 2.4972102172183415 -0.9054659145306858 1.6163859659285646 0.2615842927395431
P 8.36804918337809 1.800418093453757 3.6458076672048487 0.012894853684797147 -0.557745037902375 -0.4303869854699749
P 1.6651107783650374 3.4006685858565806 1.5234363782442395 0.7403607252564992 -1.3473495877863506 0.40326673221441517
P 4.735314495177684 0.9446281603210341 8.1693251246738 0.4525938605843173 0.8956350444831931 -0.040016649602253665
P 8.505438010839312 1.423123701466558 12.388073127304134 -0.08164898043105939 1.6526719448437925 -0.1484472690025314
P 6.379240703898771 7.589275208027952 1.3282626047120971 -1.6294065465579488 1.0539478934258946 0.67903862930825
P 1.851041195223098 3.182641428432056 6.132994185881322 -1.0703312198799244 -0.06773057057775433 -1.7310689939964574
P 6.750479787165963 3.858889655841368 6.068516862152144 0.24523027686155185 0.2652679122387174 -0.5691067427720973
P 2.3642015766154456 8.448885752614965 10.24808287236104 -0.06827590155826306 0.1267715838013107 0.17241534978235468
