# total energy = -340887.4280367457 ev
CRYSTAL
PRIMVEC
9.09427707557315 0.00000000000000 0.00000000000000
0.00000000000000 9.09427707557315 0.00000000000000
0.00000000000000 0.00000000000000 13.31039376371394
PRIMCOORD
 96 1
Ni 6.610957378246542 2.161054865735043 11.469286601148317 -1.0946597693229598 -1.8246977724972124 -1.1399284113527721
Ni 4.742328990905081 0.39643044953974027 5.884231880696335 -0.3162857980474811 -0.5543923193800582 -0.15035168511409588
Ni 2.776091728035762 1.6501474756037076 4.820944468823704 1.7138487734634291 -0.10860262620176779 -0.6532280960030491
Ni 3.544303498611496 4.584015816099438 4.659742951628453 -0.7157107879183029 0.2502608973069238 1.4093674242500436
Ni 3.7345557744004476 2.7880052309651844 2.6250094129088843 0.06161263060547454 -0.1325920471378297 -0.22484991343298694
Ni 5.108673753123358 4.763245828109412 2.720631188902332 0.47282432869857927 0.575190744182648 -1.3166555011366032
Ni 5.374172077185627 4.532696810732466 11.542640130368492 -0.42989616187648544 0.4456261710172325 -0.5271005735436406
Ni 5.689834433430108 7.9518539629227485 12.408348007436725 -0.26911531100926556 0.47629788906947645 0.007115785109174842
Ni 1.9121899743887394 6.37359674736262 0.43758569088081695 1.1587170048141853 -0.1989257373680574 -1.7404085262298283
Ni 2.902147502161511 1.7770581117717201 0.16593145068654314 -0.6634495166207413 -1.072941918029894 0.9232875160931389
Ni 7.736092240021559 8.976669854610387 6.633261092700289 2.3002415570094836 0.6206285648004731 1.4980776824032587
Ni 8.66257171401771 2.0283329865350446 1.1876016319441929 0.4225608045573368 2.0344478541742834 1.6784953336647994
Ni 6.936377893760694 0.7503869875668265 4.388290604384586 0.1641068299166593 0.3617300464232093 0.004204524999650823
Ni 1.1987621287342596 7.45961712356554 2.281388520743851 -1.7532020784500708 -0.15864966345683 2.1335551392911056
Ni 7.682254119913022 4.212923841263482 3.9060147266751617 0.5735850902584251 -0.4242492480033532 -1.0411108895622263
Ni 7.390818917717383 3.9565379828006644 12.566010032005922 2.3691394084224613 0.7569800789807349 1.8752734285622348
Ni 8.234922430236654 7.3793146572550015 9.070700132120898 -0.6064175634074137 -0.8674326139070481 0.07432442174518812
Ni 7.305305430659853 0.5794409525174714 13.219470214823291 -2.3482445672513235 -1.2400664517269548 0.6426909439171512
Ni 1.6288850558716534 6.565767915608143 9.16465856484275 1.0696277660549964 0.15839281025101754 -0.4291667399096286
Ni 0.2719761776016796 4.843893876947673 1.3407956382010033 -1.0460394372120954 -0.7745265725049306 0.8505821180086126
Ni 6.559720221372977 2.0446844966626037 6.570981664638248 -0.11501007239000839 0.06679263214451722 0.6541750332973508
Ni 3.493248227278839 4.468045595216994 0.3545367529025803 0.1837091775286191 -0.9073032248497406 0.4721036484824708
Ni 6.04701216438666 5.78285069905006 4.989507803287175 0.22092538156760017 0.910972703281528 -1.0508949655321838
Ni 5.4839127182919984 3.0844059084275903 8.914729643082138 1.0437550120532928 -0.31424974145405876 -0.10995014136859774
P 0.3176039843936648 5.485695196592889 12.492177234385453 -0.18544004417679677 1.1135020988404436 -0.9454288280768686
P 4.092270067702677 6.083516592446739 12.510225736609677 0.8017393854742967 1.7673721993028657 -0.25960222931250776
P 2.53924037666638 8.511561243679491 1.2024771409072896 0.4355165933870564 1.77346725645701 -1.1671605075958482
P 6.341257498189316 7.938294395848115 5.648291775886899 -1.7722968902979928 -1.1546423205241791 -1.1477126832838815
P 4.708452808911112 1.0308272088146238 12.484430729198216 1.1866368711529047 0.14913092533311734 -0.7936314116551816
P 3.906746815977313 6.246795242519151 8.125356399249554 -0.26993986379308993 0.5673231685091132 2.883782215818724
P 4.854861575064379 1.1167499383391943 3.615914564349782 -0.4014235083580893 0.35122143358240154 1.428687207624578
P 0.26869314358830426 5.833296653820677 3.499927973768657 0.07079609687695548 -0.9427155429107635 0.5438338271379215
Ni 0.9948047774379487 0.22254332529391535 4.564919653159588 -3.1982960095674464 -1.245591238199926 -1.204085148536339
Ni 1.9377539871632492 6.836459071863312 4.581943230360799 0.4765634840260373 -1.2056062131665561 -0.04286543190495844
Ni 6.217629896034678 5.505784454586092 9.032778815697153 -0.4934767148416082 0.6241476336973251 1.225514779165025
Ni 9.00244303575694 2.432782769573384 10.013169164018203 -0.2611888570733373 -0.4561011024066274 0.6375474520429988
Ni 2.2267337345566403 5.381502064484188 6.982126654437383 0.17656305340214107 0.5352268021952009 -0.6600147799075794
Ni 0.5382493340682133 9.027979765700314 8.560180158191695 0.7852920385515508 0.6253144003119165 0.5318727981213034
Ni 1.878122812576817 1.1733163415613397 11.16389350254346 -0.29315178313317897 -0.34539788492208906 -0.1175300105983847
Ni 4.15217407060047 7.178958639668654 1.274470166281481 1.2149984530147333 -1.0851315181175505 0.09574762461597058
Ni 5.5087310003487895 7.874207025509456 8.2194739818197 -0.08095298280529928 0.5365324083805018 -0.1502033324616897
Ni 5.53495889534761 3.4700305379820326 4.6042915067720696 0.4436348516188166 -2.4977588440657885 0.8099615162737729
Ni 0.6394950109865127 7.396812046290275 6.442404047487821 -0.5082381894214989 0.13525622423355416 1.0605944522081345
Ni 4.955326053584481 4.9247238113268414 6.92900516336002 0.6885229146496014 -1.8154083767754863 -0.09704988836716189
Ni 1.1437963182720978 7.547022220248503 11.7094064356878 -1.364462079096921 -0.8038338061094801 -1.2272186492300092
Ni 4.482414552948664 0.34520875293715353 10.231446363950141 0.06386851651918678 -0.18940622791339637 0.5291206892974629
Ni 8.211259121364625 7.558371878001114 4.442477035303962 0.08399125541099084 0.19088975443745834 0.35776103447313223
Ni 7.202440062999775 6.471787656621382 7.049077812617626 0.40917152773462434 -0.7842962502971847 -0.438199025315226
Ni 2.5666414334040524 5.136120281246258 2.55326648015344 -0.957530753546725 0.4635860979297629 -0.18246373515729222
Ni 2.4633213518917065 5.269778870981929 11.219370411375568 -0.46723423620531146 0.4759073384992772 1.097699070369916
Ni 1.4328124427736704 3.2443833359325356 3.848713505867751 -0.12854050277627538 1.4079708010128333 -2.287527966097557
Ni 1.7329781509328555 1.1450877056125393 2.2585737079201533 -0.48877776670404205 0.2561492377669008 0.6444572917889547
Ni 1.1949152495440722 3.5122734548577346 8.099853318131249 -0.7825322164182265 1.0169098668359906 0.5917455632175357
Ni 4.017378696234129 2.7346945789252786 6.516103159235722 0.7852678701818346 -0.07634299483711368 1.1822636817858736
Ni 4.05442878091693 6.935104694974344 6.140776889007446 -0.05571349151222018 1.8372218731061523 -1.591382759016008
Ni 0.7293110005142025 0.271998913294293 13.259455022708627 0.944095968198058 -1.1960481371644756 0.39111081357817157
P 0.032546598689937936 5.729148993097203 7.854862588806268 1.0874401116460692 -0.09174390277321619 0.10131766250458034
P 8.496773949203734 1.7286492750592637 7.696455742947057 1.6142164690810716 0.49738453453644665 -0.04499481954313541
P 1.9958118518208334 3.17760405958845 10.28680504718066 -1.1585560537562887 1.4027769155167196 0.42731348875097375
P 4.059930818529374 6.471860410837745 3.617259607924791 -1.8555155292090173 -1.0645413526710248 0.4385445815801028
P 7.188971438695596 3.934657152229526 10.398665564266306 -0.7083504908984898 0.9427541094581828 -0.5069809199756301
P 6.568787215587203 8.20076432565428 10.180547514182665 -0.7666826509804796 -0.7902540105425164 1.2071923267067532
P 2.402517015566423 8.742019318285983 5.826585077361201 2.5061249566422967 -1.003976189493458 2.2740857245497224
P 6.942862113294036 4.183112801108789 1.600481809803582 0.3599757827362639 -0.3564137764166184 0.038514096914798186
Ni 5.264758830052889 2.807648869383164 0.36222596414443303 0.4441519004645512 0.32176559021512974 -0.6461256806303131
Ni 1.5896432504209208 1.4485182592310089 7.089688306763685 -0.2457622381056219 -0.4342654945887747 -1.5190599410818808
Ni 7.021864097987088 0.9717235022968225 9.080762949671591 -0.6542290264637377 -0.33249068994211767 0.026951331777863262
Ni 3.0549040736924393 2.1510966323703724 8.82131686698301 1.0136587068885445 -1.483515725428684 -0.07954864625860493
Ni 6.277924952845422 2.1285610138519684 2.323728746383938 1.882482030495532 0.9519692002985476 0.9374072433239726
Ni 4.54315522933463 6.8205622755880215 10.420627333903148 -0.6465108318838737 -0.0864803403814317 -0.4810300044378232
Ni 8.45069324741489 7.1055769181896355 0.23252611320660813 0.5297117859142426 0.6329678030921163 1.1055725595807218
Ni 7.884756386882075 3.9380947889526725 8.39655592559156 0.08759979869785559 -0.6311811435053388 -1.8111043500834936
Ni 3.161934620239293 8.421100469909284 12.366260602698498 0.9444672354945476 0.11840161457006061 0.20016012399579078
Ni 0.15621330623587038 5.051079696595088 10.287922733829536 -0.5270625212168536 -0.9157809233034485 -0.05105619524586691
Ni 0.045991577873799636 2.55108112537944 5.452283732155938 -2.0173885846991517 -2.0736978008138416 1.4322548703711786
Ni 3.648596667767696 2.9108871024021026 11.64698058976533 0.642322761944455 0.05015579491878459 -1.0589636014729311
Ni 1.1327558659390298 3.521967954188089 12.519596479677217 -0.06502268472828802 -0.9591202095210319 -0.09141634423046836
Ni 3.1351792571718406 8.909645032786077 7.96623110550376 0.3384705616746364 -1.0031570360262723 0.043052865325416176
Ni 5.657167790283171 7.7175762919572035 3.38376859192367 0.8632509717255327 1.8702435794478112 0.2513515592679413
Ni 3.1774039854934517 8.581759968192634 3.535240142108089 1.3642941860604891 0.3053786642166741 -0.4174332535227844
Ni 3.681172368144179 4.330776577494315 9.461267501249495 0.06180032113624839 2.017647494787493 -0.8006255835848276
Ni 7.704189516146432 6.695470494829081 11.442812251241564 -0.6827171066011016 -0.49464913788315457 -0.9810956853508587
Ni 8.389988948137105 8.805242732305334 1.9165634122198534 0.7411636807737688 1.1759768203358973 1.9640988721370753
Ni 4.7364904650419595 0.5332656702473555 1.5378558897861125 -0.41841644337166006 -1.2060759537141228 -1.0173693229709124
Ni 6.291466331365965 5.859733717191542 0.2979448857047079 -0.8376240151860477 0.20475751355848607 0.24326518271538103
Ni 8.47790332433461 0.08629104774490783 10.957475239878672 0.06299074189992378 -0.14533726261864002 0.14351923557329477
Ni 0.11309551990840482 4.8313346803480295 5.639001971885063 0.19205703527268214 1.611076123679877 0.9258923007058376
Ni 7.41315446214079 6.326733937747875 2.542218752398736 0.3380627847132565 -1.0885094334508478 -0.7269675917790448
P 8.894139290423738 1.5407160399168787 3.4468064826912945 -1.5272879854186276 0.7886977217989901 -0.7923399465372677
P 1.8423368324033216 3.212553366273772 1.4058169907922207 0.022012756825665315 0.6292175920210648 0.6374219822087281
P 4.972341445936352 1.1266263232104563 8.199947659575605 -0.17684716030146316 0.03857220384624325 -1.5507145918726841
P 8.70550579594886 1.8381534649624554 12.361881708301157 0.417322696086849 0.9361080648965749 -2.2353165742013243
P 6.5983799930928075 8.01044838992601 1.3472243826443688 -1.9940385971193013 -0.8483372878384938 -1.3742410128605558
P 2.061645323352202 3.4300611903676708 6.010641422199148 -0.5162183794134981 0.23654071950735392 -0.3830786873023145
P 6.979402918462297 4.126209909635964 6.350255375897996 -0.12620696954709235 1.140677887924287 -1.8294473713670558
P 2.2977600382809094 8.399628881805189 10.01813463928497 0.15677404370067194 1.028917432819828 0.46176241445746274
