# total energy = -381163.04889466625 ev
CRYSTAL
PRIMVEC
9.35175402690374 0.00000000000000 0.00000000000000
0.00000000000000 9.35175402690374 0.00000000000000
0.00000000000000 0.00000000000000 13.68723730816149
PRIMCOORD
 96 1
Ni 9.13652341787235 2.476166785680086 11.30119636903446 0.18253366916327918 1.2586393296331357 1.5026935839087154
Ni 1.519809659082732 1.225556718307435 6.464125971706954 0.13485358947849677 0.6354715433505767 0.25188634872548876
Ni 0.7362448918276683 5.854057750873169 6.009860778656378 1.467212617393286 1.1000151200976023 0.4993912805538303
Ni 6.060722163337599 6.800380445388784 9.06378453979689 -1.0551254586737635 -1.3317923567780419 -0.8360204181443537
Ni 6.355872872500452 2.3905888844871814 2.75500803580235 1.2759821917869574 1.5436227180229092 0.9445849920193345
Ni 8.598180344976411 0.8059528664197247 4.602361009681415 -0.8197198812121173 0.058751249897279464 0.8614437433134647
Ni 5.573925958693794 4.82048319119202 12.796704560076556 -1.2178755174522122 1.6546606931390473 0.9785299815062115
Ni 7.783867010447577 1.1020481027403177 12.766578819621653 0.24940780527800915 0.19882366457255438 0.08263422716246413
Ni 2.9304282380290467 8.15331740543467 12.027755649205973 -0.209498113567265 -0.544444721249043 0.13226525992603028
Ni 0.07387979206797786 5.024089580086339 3.374191411296032 -1.563714603676778 -0.765835729599152 3.1003207811725377
Ni 9.22731959781792 7.798203249386351 4.775422699539972 -0.9556998709855735 -0.6011231477776937 -1.1390022999940772
Ni 0.5120534219470277 5.552491738440911 1.4597985182516766 0.4084732161160191 2.0422179850380053 -2.4567597759456077
Ni 5.646261776170258 1.0788370492203976 7.100884098562436 0.9751276406928818 0.8483917952255131 -0.30982564424443415
Ni 6.28621165667858 1.9057846034532653 5.014223479577267 -0.26942744293304566 0.017179082882447832 0.3530381750761662
Ni 5.926066256958337 7.653082730239646 4.724108689963359 2.3117814393282834 1.2418322853781258 -1.3387911566933781
Ni 7.49894712020124 2.934355974724601 6.821445271357205 -0.8146290969527713 0.6125635284041515 1.20075582705279
Ni 6.64094239081138 5.4632198944033785 3.77102561245437 1.8845237435159095 -0.7923805699672161 0.20402809159162927
Ni 1.8638326348431276 1.9383661145182942 1.7010906055644386 -0.25029226476549155 0.968577755389506 0.21599657680741507
Ni 8.879583975704822 8.420272576175861 11.897685843006473 0.9400606217864197 0.27432076646960496 -4.821825528519327
Ni 0.4979275974740869 -0.010295346019371505 2.8513526114180925 -0.8342748962081568 0.8529665590803891 1.4859495316811568
Ni 2.0548141557874504 7.200934774303056 3.4530435309855014 -0.40587640192312036 -1.3476794603219435 -1.6685073692141525
Ni 6.053886031136527 1.4254411090950148 11.35582183471559 0.6538143075238223 0.6781724246532127 -0.561298045360956
Ni 1.2111550170904015 2.8918709561343525 4.310084094534143 0.4721085335784772 -2.550599127795272 -0.6575064116634289
Ni 6.464895621064202 3.0214114530553573 0.7296612569855957 0.017094493588441527 0.5534111864137115 -2.401353274150845
P 5.766899403248006 1.45573144042097 9.193744930474157 -0.8760735774114977 -0.06450589299286955 -0.2973763627374878
Ni 7.4220008879845185 5.436950817313347 1.1785164603257465 -0.4294482757057894 -0.4520798970623762 1.0301381926008064
P 2.7558029348954975 6.83634729141522 5.392018444691606 0.7401480950250607 -0.22531116934012166 1.1878383476601737
Ni 8.415465774600827 0.9407677526176172 10.047403899763008 -0.6637711616262182 -2.517278402155955 0.4199004841163543
P 0.9529250328657622 1.8473828994919834 13.218258252680988 -1.0551619683386537 1.0681175000580572 -0.20203445820036817
P 9.028875377152044 2.9398267508362665 2.436287165764555 0.5208574208474062 0.8352825115370647 1.5312323147783562
P 8.180951838614106 5.202268549753962 5.783966354365594 -1.62683030119034 -1.7544102398255592 -1.7483910302146728
Ni 1.9692175510864718 9.040948491613856 4.87231435276688 -0.4935021687629049 0.17872303716793736 -0.06178875117202262
Ni 7.315503113010767 2.8261281252539985 9.433723096344716 0.5806558810622774 1.8569851717760082 -0.18910463751257756
Ni 8.814420953574764 1.2291477918576563 1.177054781169758 0.03990480661473773 0.30222032109335045 0.11346561072102393
Ni 4.82218521042676 4.279998566621599 5.358772023914544 0.8105410429263268 -2.9956290599894024 -0.4231961241484905
Ni 1.5946049878709354 4.0533026970098405 0.3544380242314412 2.2269844001865455 -1.112559532421516 -0.8190812191868538
Ni 2.742719830997686 7.0970928974758225 0.7835750541845046 -0.4853049776640932 -0.3265558125149215 -0.6117392327306432
Ni 1.0663337540728821 9.099191215756507 -0.036887058623679685 0.46021229636152355 -0.8069623244361328 0.1375563331216405
Ni 7.662219393933829 7.9036442761539165 2.632371003711484 0.1583447306219015 -0.7646357957537799 0.49684717397573785
Ni 8.068244498959764 8.222342701982022 0.022705123626516558 -0.8971617655403645 -1.250540097564769 3.785666069425106
Ni 2.4773918654589373 8.994947213505682 1.9515128103435575 1.954066684712054 0.27246417287684044 -0.046554193610455305
Ni 5.932229062868743 8.51050765087921 12.094603857413505 0.8068900764373006 -0.783180905745819 1.851743720871411
Ni 7.404344776362597 8.935975052548141 8.548268163329949 -0.5674213846498745 -1.0395360888759386 -1.4699467284949974
Ni 0.8742281522933079 6.718674170367212 12.824380140973755 -0.25480455081354825 -0.4232094938849292 0.37897572087753445
Ni 2.885334080062465 1.1199754152293133 12.620385654286899 0.7301848131647618 0.16502497085555448 1.0191374706149288
Ni 0.057445019523293075 4.9132058324692185 11.024740751367046 -0.9339195418856884 0.5555948243285914 2.1006511894742337
Ni 2.9839857333991446 3.330103502063836 9.212372689340528 1.3670822903285875 1.3923148396431313 -0.4457277295921033
Ni 3.4597749235413593 0.8584526784082339 8.026483306131983 1.1469004717952314 0.16787966669553023 -0.595597075753142
Ni 8.031669788920922 6.913377689418275 10.108942182028311 1.1632460030327902 0.5545545559895353 0.48552095032964127
Ni 7.821676152019307 6.311564261872981 7.487754005794313 0.39087658608017845 1.0787217579364647 0.5533584787989051
Ni 8.711252403038197 3.5889974608251047 0.30256290941260605 0.8073202219961838 -0.39488673568083604 0.8677989961075313
Ni 2.604276464233424 8.00846808715504 7.29621418513398 -1.0669944421972075 -0.15098520493303674 -1.6111121191241349
Ni 0.6080463716109779 3.55974517419726 6.777481740453702 -0.21047436143760526 -0.4220427272703377 0.09631763818682766
Ni 1.1798359928203723 0.5311272594809638 10.956893775828359 1.4096682433199141 0.09321894465684591 0.5463743341715881
Ni 4.698938443972679 6.764320081821979 10.959986400888406 -0.640707080717903 -0.8244779647223929 0.3501454269094034
Ni 5.364951662982217 8.843991199839868 9.904440830272648 0.006302030958627855 0.22214665556921095 -0.07382768461442768
P 5.141800108150496 1.4989458958261077 13.33049332875646 0.28147306124367005 -0.41380954072726794 0.35356705099644264
Ni 3.8011981116794593 1.4943354810858493 10.501792535966873 -0.7924744152326029 -2.1239201873045035 -2.3925531593607117
P 5.155191819931529 4.181805149232734 2.654913406817756 -0.9045716848511904 0.9749306941907273 -0.22774214737911744
Ni 0.6974809361687555 3.566693527446777 9.339185279608929 -1.1757613618909815 -0.6531923576691073 -0.3617357028501641
P 6.160065846473019 6.9339889553158995 0.40921031245094974 -0.6384730491810617 1.259583952934592 -0.4999870051563002
P 0.37959985364348675 7.643964770053537 1.7231139863216551 0.06239630284903448 -0.549525221095744 -1.1887839994028946
P 6.375474148962076 0.4610367981487924 3.375149966084828 -0.010739497904691182 -2.969638035242279 1.5259353280454755
Ni 1.6638266712530663 6.409402312608438 10.531233728026265 1.5437497305190768 1.3121450148607596 0.33620259157606613
Ni 7.46233500314625 3.898624685237287 12.230983292061792 -0.07563542724712781 -1.2286209288941745 -1.8597694193893648
Ni 4.467931415749849 1.1674916774914865 1.948035828192588 -0.023387782796321012 0.07222125935925627 1.2608049698258867
Ni 4.276893784281303 8.982659008701019 5.309785665917749 -0.7052466551621854 1.316932408947074 -0.02341117983508871
Ni 5.1549112673104185 6.214951290916375 6.4116906868213 0.32365946480373287 0.4866357806603748 1.5675062095087262
Ni 2.821040771057852 4.527745234570722 6.637653378916555 0.0352038015946426 -0.21003161747323182 0.502185812579832
Ni 0.15887040310735667 8.518540807597024 6.900393714113256 -0.814510569097036 0.32742073161837804 -0.493810186921627
Ni 4.069284844659133 3.154468209494287 0.7008260585878029 -0.6460032961198358 1.3516222470197754 -0.06495506471514621
Ni 1.5898168898039735 1.6692880956106946 8.795747371113613 -0.9313998607876282 -2.0601550291324005 0.9443181115111929
Ni 3.1180244240119626 5.1773928840154495 1.9875918774184373 0.6534849492088617 -0.5896380299562296 0.604294860637456
Ni 3.0769795755434175 5.6402953570946295 12.585428797696464 0.0008762319573662329 -0.7201461979818371 0.334420817085295
Ni 5.020891280205673 7.781089539498577 2.244200267493055 0.22799282993734282 -0.501086408868066 0.2655363354087556
Ni 8.932374627243883 1.4167907366107575 7.8792361981172565 -0.8152199364592347 -0.02296509343660561 -1.0204309926153716
Ni 4.9645189068704285 8.307705512832076 7.487535174749847 0.44970779728577387 -0.951604103649645 0.7116409887243035
Ni 4.314562649542479 8.94086601990951 0.3572173655312479 -0.028325329307254447 -0.8857105862806294 -2.1651475693854065
Ni 7.667456376194569 6.156998471148872 12.561598658059292 0.17585291470899392 0.5355497327522583 -0.9140662546051872
Ni 8.420927198958454 3.244815505246079 4.8311292279877796 -1.0484277349386135 0.18373283167770293 -1.481984890606454
Ni 4.527249591606759 6.082811006373075 4.163685190610576 -3.4655336439380253 0.23366262662861048 -2.1687640830920714
Ni 3.5309417717631932 6.0460866682696395 8.374071170531296 0.15799428926101822 -0.32869805566890486 1.1870297357159492
Ni 2.1864213903506395 4.823363531435426 4.2582912751508335 1.8247756769229995 1.309042721786352 0.06144962266504901
Ni 5.163524232778527 4.074615344460242 8.127454194469847 -0.16590223125418527 -0.4513257925051712 -3.336248549686241
Ni 4.335220674210289 3.0281914747322074 11.895633132995343 0.031151743012456025 1.954900750577575 1.015199054792471
Ni 0.846572210079585 5.652284305770108 8.548022212198775 -0.13411208332678196 1.3101873769137564 -1.5006413293653769
Ni 3.1648767117375067 8.238306146123241 9.5004076488566 -0.5322425227558963 0.2525216683166425 1.0209899504426352
Ni 5.501431161398701 4.367643205456688 10.180717829437956 0.6675889927104116 0.8913592999259746 2.603215982660039
P 8.168794558365962 4.918648553318772 9.287885297663372 -0.9334107205700699 -0.2059708171402969 -0.5142003205422048
Ni 0.6521473732988262 8.576531034380675 9.076527239847755 0.09336241221324566 -0.6361855386984656 0.9827579035446301
P 7.152034452443401 8.289712738064821 6.284248723506207 1.106540837031262 0.24586585356302176 1.372905581878584
Ni 6.698362160598774 0.1795995011058478 1.2831869025606613 -1.6022338427978986 1.3404369198269173 -0.8595717231017325
P 4.098041488323015 2.639457762920749 6.602805002672949 -0.10735281295506673 -0.07756092640461482 0.6258095947807802
P 3.401532199398707 4.914692761361107 10.591923806200409 0.08979269258411632 0.5021966112131093 -0.2076060387508747
P 2.9777761687185533 1.1089496972196493 3.511049655751017 -0.9422211197728484 0.22313704450693828 0.932657130233497
Ni 1.883069192897308 3.292640375391475 11.82622441453247 1.0721317634237728 0.45547452456622206 -0.9068365696259673
