# total energy = -381172.62458160095 ev
CRYSTAL
PRIMVEC
9.20408299842065 0.00000000000000 0.00000000000000
0.00000000000000 9.20408299842065 0.00000000000000
0.00000000000000 0.00000000000000 13.47110583115306
PRIMCOORD
 96 1
Ni 7.6889159801139755 1.2438213554302078 5.828381492584342 0.47850929489849847 0.131734841343857 0.2474936189744318
Ni 0.0891838817029743 2.699410250307042 13.142101316806617 -0.1776424025092489 -0.06764469573216737 -0.27333577684851634
Ni 6.52231688024519 7.955006016857803 1.72718389360532 -0.681178301359072 -0.731226881276031 1.1732216261882633
Ni 0.8061893031617611 4.243744912540638 1.3129090425214052 -0.7280968202874815 0.10427340269879462 1.1262797102210862
Ni 3.6448076257529847 4.631071129291026 1.9855471027515532 0.29743704077209415 -1.7128164755441728 1.491076311384761
Ni 6.145428093507513 1.5845657086053453 7.641673263386244 -0.34553801004437906 0.7053978360280689 0.054019905859881166
Ni 5.942459657316753 -0.006835872372523016 4.511244094377011 -0.5393169131041744 -0.13127409965735456 0.49719992932946633
Ni 1.7036849495440725 7.94159566806722 1.3418761322356967 -0.5188180218198741 0.5091164782613942 -0.8635024256147065
Ni 0.5674133028427345 8.534798811205913 12.215100141860152 0.3485821961873416 -0.20029407847049377 -0.9526443719887011
Ni 8.882943247035566 7.358443383459284 2.400605221290567 0.9817772847989156 0.7359659386229132 -0.12251100875274386
Ni 7.5101542819597515 7.852472533311409 13.132550239977524 0.7764171046594242 -0.9257953701166571 -1.3222746470955937
Ni 5.592824160056713 5.527861742922921 10.688204455504057 0.03325387695712338 -0.6010583559780294 0.05576439935481364
Ni 7.928056462115985 3.754906865446159 10.975973789119085 0.13327956012315756 -0.054956558741537605 -0.002558761866111722
Ni 8.557901059294016 5.97667123346953 6.794326983112629 2.9069923353866 -1.5123699306562146 0.2923693964411997
Ni 3.6129522948235353 0.2952807856726769 3.3297343802043504 -0.6459061084203392 0.8197995854101171 -0.9322010165326848
Ni 6.703103476638211 0.3358192484134072 9.761675450010546 1.7215852228757382 -0.4604737775530263 -3.1200686532234267
Ni 7.677042713168298 5.850851420176964 9.061999475842706 0.5907001526721569 0.44744419806257785 0.6664206834339234
Ni 6.9012673815532795 7.516541915494868 10.887926611654708 0.8680041701398018 0.22727343527281504 -0.5306936902115377
Ni 7.77188158340726 4.26834742614203 4.900936680841921 0.1724965966422513 0.9143557608211479 -0.3777135663356592
Ni 2.9497705093685727 1.4662472228792331 11.585662365146462 -0.5627766867890114 -1.3164156172116555 -0.9101077841780714
Ni 8.551393772681152 3.2851396781279925 7.052851263709676 -0.2537604258197501 0.9422054360435643 -0.0797381365615917
Ni 1.6922626826606728 6.786796202480883 6.340000565273586 0.37754978706428527 -0.00419038393226375 -1.7713921190955362
Ni 5.930632410785594 4.740618124009983 3.14212203593 0.5044967201011956 -0.08337650464512737 1.524832839009916
Ni 7.4895923607530515 8.737408288163433 7.458372111543952 -1.602660645922672 -1.0684795113831664 1.4665101920096228
P 0.7855335003094437 1.8991796704170885 6.411949801739521 0.2953963561929816 -0.9707030292626249 -0.15912248932819048
Ni 1.245027090290583 1.0492010224330364 2.7446032177721364 0.731910537606617 0.11551503705088492 -1.8152160582590222
P 4.7497117579187655 1.3695583319766422 5.895454405927936 -0.24686164181738773 0.6606328731075525 -0.5878503419281875
Ni 0.8637304682503596 3.9938356535413853 5.376614730200796 1.1705587346441195 0.181249660244533 0.884490083609967
P 5.3885487440936375 5.813353986427591 1.4381885761475293 -0.3544785070671186 1.7779201500220412 -1.081973432104543
P 5.463644856504322 5.875453933778355 5.092428546060151 -0.8484650716656098 -1.158928606604359 0.03693981044914283
P 8.8373370162481 9.04164924854279 10.165781630302535 -0.018047601530330207 -0.956342903886211 0.7870591577543026
Ni 1.0310505709470859 2.6540433256750693 9.015713063328661 0.3702833353098591 -0.5160497150461177 -1.1108302084352353
Ni 3.1958784821286272 3.0976709175469384 8.913709734957518 1.576139973924324 -0.2882582024863035 -0.9175218172539553
Ni 8.498341438824651 1.2680557057154551 8.574965428997338 0.24125715114641674 0.5693178303416389 -0.26648455825463785
Ni 6.184849180583743 3.7109665736642485 6.260211290990343 -1.5037497930873713 -0.02895782068493077 1.0573818588081079
Ni 5.610219876744566 7.243079408345237 8.909075479215542 -0.11387801566809419 -0.41968656833333534 -0.012328696768681993
Ni 2.6814070641475496 1.0139309767463416 7.233391190680879 0.59227392491718 0.4825243295951625 0.5871803124443564
Ni 4.849898200324734 8.760216005598618 7.313557832363172 1.219552905154635 0.6401879749896394 0.3539789417228807
Ni 5.690341418420631 2.7441420932186644 9.748163856308024 0.3225418062595219 -0.7213880408087383 1.1496376682207363
Ni 3.2437213050616753 6.028122056900799 11.616377310204152 -0.05664217397407664 -0.8594251702215393 0.395294512642216
Ni 1.7124012160538065 1.0990043150245565 0.22619585980635065 1.165646899164799 -0.557203306466292 0.2073764392385719
Ni 4.479268189961523 1.9136024683270705 13.23196630064446 2.1707255776938164 -1.6796268761660818 0.5083749721096793
Ni 1.839831743854508 3.6493176263757614 3.3256256775961717 0.5634449165006297 -1.0650064652329014 -0.2799288566850018
Ni 7.9998483087642684 0.007828072509533896 3.311157779679962 -0.2778676032805989 1.6029840907003619 -0.03858943023742386
Ni 8.783529947593502 0.3127105574672734 0.5510594883395719 -0.24560514370246733 0.574642584988662 1.7395788312396816
Ni 0.9479653145760543 0.10446173891470308 4.807325635262303 -0.06331033002287162 -0.6141763814172262 0.42252738021624003
Ni 3.984953713539386 8.058340255616812 1.4958319065563583 1.4456600880334909 -0.09399927446629618 -0.9461842181856543
Ni 1.2464537231406447 4.954972010752528 12.780576905659963 -0.0712799784919095 1.0386904530461918 -1.828337940352961
Ni 5.296093731326715 7.080627345096238 12.484320487199502 -1.0649676415751659 0.9743251993962447 1.0659667722636417
Ni 1.8888526893992204 0.39406360543584273 9.62167030414691 -0.04315005302491278 -0.5181935008619979 -0.22399373608027873
Ni 2.976701655944582 5.53613621345328 4.7907831370596154 0.1529382148943495 -1.3994398807236865 0.6534214429607779
Ni 3.7508846812172743 8.006594901532626 10.491930148809102 0.9317299904335372 0.8527176762943766 -0.8019435310653027
Ni 7.098345204685718 6.938958101043627 3.8307374636725524 -1.7767868077485465 -0.4886870067624487 0.5588894359194633
Ni 0.70048869468823 4.764493515061989 9.424924748407292 -1.0132108207178485 2.003966140645659 2.417841501613855
Ni 7.6671483240469 5.615549040745765 1.5988854207868066 -0.62247770219407 0.2825840349196617 0.8693606841676964
Ni 6.152202298524582 3.2675598797820666 0.9772711145411993 -1.2030788187590118 -0.5358245836801998 1.8196807788985951
P 7.6114452143141555 3.571883676907556 8.88132516926111 -0.44389376170715816 0.13884856957050282 0.16427549428403965
Ni 6.505307735039289 2.5308374719271325 4.186253449499719 -0.2049554885019051 -1.5685071399694148 -0.8606814112261435
P 1.9241135310030113 7.494774259427793 4.070307776346162 0.6203627127335961 1.4883028624046821 1.1037920706415314
Ni 0.6622420485905026 8.797446520943785 7.163529440217488 -0.0008682615375662465 0.5687336757033947 0.8552648681962625
P 1.7738752857671245 3.2478263260366926 11.462092029715542 -0.21015503042497355 0.9531681057026553 -0.2703854359709408
P 0.7643760749388786 6.829273045081115 8.220728810693775 -0.2655466198214007 -0.8474435723796309 1.400098340243292
P 4.2009275188729704 1.0281144685008292 9.265857946850248 -0.41320121771930773 -0.4831694193783292 -0.20679794102728255
Ni 1.8812040965063068 4.67037256328951 7.600653427109655 1.0154353391729931 0.13331529845709944 -1.8153528409472024
Ni 6.612875851933966 6.597633890645561 6.656666117164547 -2.9470447233227954 0.8259002989912163 0.793518540226401
Ni 3.7390022101886933 3.483174725882409 6.144872166900134 0.4759459050466964 0.4318561138163337 0.663296793092961
Ni 4.345532865371839 6.990372108143282 3.626892798789367 0.6902890054110885 0.6372186079486704 -0.8547686452861343
Ni 1.6374247567208693 7.076043711810232 10.230617951500546 -1.5131451182593423 0.38628896670949603 -0.23209271103832935
Ni 2.4522346039301666 1.995684479661607 5.00112128243131 -0.016636065894784252 -0.4895102739946925 -0.9400428811746069
Ni 5.014918202703845 4.701445547172152 13.028068252080434 -1.1943679212485752 1.5112455872437844 0.09879695296525566
Ni 3.5357208351792098 8.673255830325159 5.412555753531165 -1.0882512946934548 -0.9093521369589693 0.617367377550698
Ni 3.4545408239692286 5.810307434986491 9.318677417409287 0.4245068725401141 -1.281239840641471 -0.38262720158719266
Ni 7.964928018227912 2.19833077295074 1.68372681617585 0.8615123917678712 0.06911253852694549 1.187489191850871
Ni 5.283180403012927 0.5264726216791157 11.211502588989712 -2.698216187587024 0.2903780770427838 3.092178097460746
Ni 3.2005633603265733 5.997196338344617 0.40664558676509943 -0.9217906198326383 1.876271016588814 -0.4086925312156768
Ni 2.9090700547687383 7.84884612464738 8.100135075673887 -0.8681818333682468 0.4779613928148284 1.1247655875694047
Ni 8.167344209444453 8.135903062245667 5.500292753401689 0.5189015826726161 -0.42785753417990185 -0.9324915511899102
Ni 7.653535485432437 4.402607383457222 13.255688903920264 0.8324139317400181 0.14234244165637422 -1.9157652180286942
Ni 8.863209693290193 6.248283719955533 11.572312763303042 -0.5996943857509671 0.011174271449264627 0.012347980042391637
Ni 3.874513922778778 3.683566018860154 10.991062042222998 0.1681763720003426 0.875778414768582 1.1285998737138305
Ni 0.32245860167050366 1.7521260378658563 11.041901714549466 0.34676648313484154 -0.6294978422656449 -0.10340411271996386
Ni 4.161046227651559 6.208715367552845 7.085532200875581 0.4843161313882626 -0.7064211350862608 -1.5760687543667564
Ni 4.388525136614675 3.0298000102156 3.5667045394576857 -1.6781515771721354 -1.215363549663636 0.03840919590581772
Ni 7.507475893834796 1.2285701900588994 11.965211131843287 -0.8554409887628106 0.023990963597958683 0.9144112966494317
Ni 1.7513989153164697 5.975226192453661 2.7738086932336317 0.03477622713892075 -0.8486900431922223 -1.2865365702640361
Ni 8.920633966525914 2.172135953007021 4.039701439466734 0.30201051907538956 0.8877021627893614 0.10537023530739918
Ni 9.122792443421156 6.075863634921908 4.544840837791826 1.8071391947881588 0.9023489661682589 -0.9080866399829846
Ni 5.748612467283486 4.666727746459674 8.459167021170238 -1.2363900313166318 0.5556369904204367 -1.077083193891777
P 0.06237606983787327 6.67862982019747 0.33590300556783015 0.8998303135114633 -0.19776128474631102 -0.8386784245924911
Ni 2.7757765261584266 3.300031884266059 0.07715506575622551 -0.8362037377997534 1.2313092743596148 -0.06816457279137937
P 3.241834468066432 1.95510367813952 1.7203139661260538 0.10375686807369226 -0.33000263341294134 1.4557755792009381
Ni 5.6618087614193895 0.9416052932896488 2.3121806764271415 0.18496798963638467 0.8487851740091897 -1.250326438892066
P 6.038182119514463 3.1934762164907813 12.124008253771256 1.1135000419579146 -1.425669760954493 -1.384239004613532
P 8.687917934390635 4.268918079282056 3.0030731942800513 0.4662898700141711 -0.7206295653761589 0.16378081403580827
P 5.816354517454173 9.128701464645284 13.499529911061158 -1.1488442257851634 0.8365253828052303 -0.2327336870564379
Ni 2.9516113259492975 8.218647767549266 12.708613863069674 0.22849136684031615 0.42436340498371433 -0.15564172986844163
