# total energy = -340886.36010095145 ev
CRYSTAL
PRIMVEC
9.12757714850422 0.00000000000000 0.00000000000000
0.00000000000000 9.12757714850422 0.00000000000000
0.00000000000000 0.00000000000000 13.35913178647740
PRIMCOORD
 96 1
Ni 6.52644582216843 2.2414317278590747 11.510027164644063 1.0363101257394733 -0.33551302170820924 0.6026490975039169
Ni 4.914168856836885 0.5593415762537117 5.974497583372788 0.14035523602301633 0.5787131555136098 -0.6095298837841503
Ni 3.01711148571302 2.0371017867030834 4.553620433465011 0.32014193856877765 -1.6804465438538996 1.778903596981233
Ni 3.7376059123675947 4.765334584501963 4.6489780570353165 0.2106067732504115 -0.44584188657246443 -0.10698900185774478
Ni 3.7263333546383155 2.994183012015895 2.6319359465440852 0.3681943139913143 -0.09236122464224093 -1.5857692694839722
Ni 5.172442778705461 4.833581478543924 2.336111172450202 -0.01036077440903377 0.5695371454412966 0.24141578821146809
Ni 5.341193424291629 2.6861546673276417 0.36880431686672 0.123309079174007 0.6740141795104649 -0.16547157147466987
Ni 5.803915945818609 8.004282704265515 12.241947492323341 0.4641106029746652 -0.9769747212039497 -1.051015807380764
Ni 2.3408219149960168 6.552249482654805 0.2605028761985265 1.1286847201181531 1.2170769328103168 0.6040920005980306
Ni 0.401209953875838 0.5027049602940528 13.931703895942327 2.775158249460717 0.12298974816137528 -0.6064705281325362
Ni 8.137992581331275 8.995400664616774 6.712990679328064 0.8449478025409707 -1.692100068932428 -1.0879576747124362
Ni 8.66678050597123 2.596832197741627 0.9009730960677478 0.15381830350645767 2.353562379919811 2.680530854492119
Ni 7.089982432861313 0.8273171998311541 4.295187691754744 -0.21511828796751986 0.20933819095063302 3.0498456552411213
Ni 1.0049644948252 7.699029143018315 2.2967284154991723 0.17009930005466833 0.3567655033290823 0.07038163504735621
Ni 7.488282515154888 4.11193697717365 3.5834931621906945 0.8703173916540108 -1.5414668480221712 0.9560729380542762
Ni 8.174119531527621 4.128430509009122 12.345440525370657 -1.038372664695457 0.7671860729794594 0.07460415776913604
Ni 8.626774335503674 7.477986608176242 8.671091460639682 -0.7416485908299872 -1.3961905205484535 0.3038573424761412
Ni 7.109579340913753 0.6717385607705917 0.2568664494784092 -0.09943690054209972 0.33455065779494 -0.8410579805682611
Ni 2.079170789597212 6.583830899451004 8.881899243269737 0.8869004928236726 1.083727181570856 0.6214682870929491
Ni 0.5150819548534884 5.3513250348823185 1.1801226995416951 -2.4131410108143925 -0.5345781128676084 0.6530604600769334
Ni 6.805512364690688 2.0860712378914106 6.957249206546186 0.8001527577134672 -0.10199386263599854 0.2264825639404035
Ni 3.6993522367049145 4.446161468163953 0.3539245406640712 -0.24042154261899887 -0.32838206709038287 -0.21407082053961196
Ni 6.0741469936996175 5.9197722820596965 4.653226031421719 -0.031072295924772293 0.07847341091655517 1.5017049947432006
Ni 5.731598152386155 2.9643997279101146 9.377322222546448 -0.13736838548055053 0.41326035309201736 -0.19178578388916648
P 0.7205035542316832 5.90567930300382 12.523718535942917 -1.5428567863911622 -0.841735209140944 -3.289025869253852
P 4.246313167368347 6.2174408267295425 12.54057808362045 0.8290743258438238 0.5583487329246448 -0.536498726929089
P 2.518389800069216 8.917998810734758 1.2330882039882234 0.4842863065915918 -0.17200320194560054 -0.6633407589570189
P 6.476791802696948 8.096160895441974 5.747592405753779 -1.4136238855335523 -0.9848824060868006 -1.1142742011197777
P 5.118635711649508 0.7588384653306312 12.736168369694832 -1.1115868840956016 2.3333211131722718 -0.7779381692896409
P 4.138151378629917 6.521662971763456 7.901271607289541 0.5303910713694543 -0.6773188184036658 0.9761445119931706
P 5.099513437606722 1.6210942048185755 3.7924708656104493 -0.6660345037390981 -0.36958733768409896 -0.19899104338835405
P 0.3082820913318755 5.967810720382934 3.3420669221494097 0.859530585451152 -0.5774795402168248 1.4328426245538486
Ni 0.6673856192474391 0.3453446181818666 4.767593659836373 0.49937379705233353 0.07185230605561174 -0.04968631148153378
Ni 1.8151373665730297 7.21567829722561 4.800870980459375 0.5009334282299696 -0.8771974066032958 -1.9192758022851142
Ni 6.041780605272067 5.945475539197876 9.537511200804628 0.19830327329271008 1.5396819882076065 -1.467268410331886
Ni 8.889110029185634 2.5660174974225605 10.382129723045377 0.7608742718288186 0.6565615312516563 -0.14996010610263205
Ni 2.5374846913806763 5.480032999692495 6.69794843225288 0.0512845092065891 0.256029681469901 0.424780695026791
Ni 0.748238610034265 0.1467495337232896 9.216171197661007 1.501513447557685 1.1029202095595394 -1.5349732698780274
Ni 1.6553773844389585 1.2125712361632242 11.361647445649153 -0.14089208236309284 0.3932682262408066 0.8042878629277632
Ni 4.569721479484808 7.291245508108772 1.21517077012379 -0.2671085649918819 -0.9064779007349678 0.388886295123027
Ni 6.244996982020793 8.602677531936632 7.940774848258405 -2.3148220259268197 -0.935836299292427 -0.03834646098868234
Ni 5.327009169464666 3.0552373752961786 5.550118187764154 -1.1635967015039896 0.21960537720459597 -1.415976444926129
Ni 1.2531798267199563 7.861472632822353 6.905575254260543 -0.7082378765800255 0.3410645476540578 0.6993017504326601
Ni 5.435243978819965 4.636124602950805 7.5615760465802655 0.3717306092793469 -0.07141701829040603 -1.252520104109275
Ni 0.8923831332507236 7.471889386667612 10.901585612849367 0.74905208238291 -0.05527537553353706 0.8399886587634825
Ni 5.026237248577851 0.6913336433076094 10.237156415827446 0.29336698446777865 -1.7116088283893167 -0.028581925402750775
Ni 8.299276868842503 7.503698992891531 4.823180604428528 0.4095921602118107 -0.07244083156923009 -0.9653510209220924
Ni 7.1114231114897155 6.3245529441004695 7.03439731378458 0.6743191123453935 -0.3866730895217921 -0.4904566970683618
Ni 2.449741292634471 5.125189312013574 2.5673848084734483 1.2389585633747566 2.6378891085621925 0.1253713610196744
Ni 2.5609973300127598 5.351215503957013 11.124068479359197 0.5060080145393996 0.709442695521404 2.1843313414027095
Ni 1.2654746730854132 3.5848285267217013 3.746394856365589 -0.7869416583398318 0.1887264282375524 -0.7899562767964395
Ni 1.7086915623310406 1.4010922137668977 2.5496435368472126 -0.8432174501134253 0.47427160266806706 -0.31481924080428364
Ni 1.4376299049331371 3.6294167408978386 8.453832306509177 0.34190221306400476 -0.6541724621941895 -0.932153194013885
Ni 3.6034761667548327 2.912929320593996 7.362671537257702 1.2405382491570507 1.7496837808841674 -0.6304126407704304
Ni 4.156050557340134 7.325382646495415 5.814214591070387 0.7134824128084164 -0.5307440838334988 -0.39140597622108725
Ni 8.86989647937176 7.580525809415697 0.09910540673114979 -1.1909087590553813 -0.8748700440216997 -0.2437737469206834
P 0.5797773086424435 5.547668346068171 7.827649483088249 -1.663219895562968 0.6389049945121578 -0.2877959181379044
P 8.92028070501194 1.4737659827065923 7.523315068855899 0.7499475976139859 3.1908033007348275 1.5861906732921067
P 2.2874894819497174 3.366259565276094 10.367581277891775 -0.5199392799085111 -0.6486296779990893 0.2702522528271862
P 4.296487458735027 6.54632568511124 3.545366359849825 -0.9007227434187456 0.5788908187420546 -0.8806313719855092
P 7.3018973905946565 4.408683636555515 10.171108355110977 0.9742233837110579 -0.5796431235270469 1.730492038447065
P 6.869286745949372 8.184798796744834 9.961463425804574 -0.4596150290971568 -1.21431993889047 1.3478242134299239
P 2.791486907162366 9.032778092877017 5.702465664528226 -1.4290571893694872 0.583518290211737 -0.3023455338173051
P 6.935552955758739 4.0464283562643075 1.413543141700914 0.4205828548953595 0.7356041844081203 -1.2051387866118342
Ni 2.8839401356966747 1.9157141387341063 0.3418158968716323 -0.02231306167490351 -0.4914673977210633 -0.2233296201337186
Ni 1.8517206956248125 1.5269067366336082 7.023523631174951 -0.872832958987013 -0.9836292504059898 -1.4748716766004406
Ni 7.466777943486725 1.0316717854453388 9.132769787345422 -0.22758196765216934 1.2513787914159804 -0.35469370840171816
Ni 2.8592226568862387 1.5553847772128404 9.165273089429604 0.33439587738463056 0.4627234928191514 1.3117372378993797
Ni 6.6107024864591 2.0147027124782646 2.2984653934229633 0.3764362422851323 0.7081859402961674 0.13352201515126683
Ni 4.104169409054122 7.012388899860014 10.320544134777366 0.12512967732251354 1.0661236095564801 0.3043746484321919
Ni 7.7174942315092725 6.4702473299099905 11.38522671559413 0.2006496620376996 0.05510773960742122 -0.641085032882612
Ni 8.127532377964673 3.720601236214034 8.337473953527109 -0.25089313157428406 0.4163197087436314 -1.4388780321146508
Ni 3.2800495994841556 8.586448699837312 12.377690080811215 0.4166832627306372 -0.043812626309576164 0.7085700631084636
Ni 0.4784073500306182 5.213626406620043 10.132073358847789 -1.8604515330580538 -1.1141042512008168 -0.1794311189785555
Ni 9.13725234046352 2.677237024492414 5.45303727763572 -1.1593268704840423 0.28038445616518165 1.8281073123993934
Ni 4.03571258073866 2.561371560674218 11.321797356750155 -0.3731989662947573 0.16955705439795316 0.9689960738738472
Ni 1.3748960674648476 3.5461458549349105 12.411020341381448 0.04621789331695911 -0.05001438424491386 0.4290628673419127
Ni 3.4272500355166162 8.690776906190077 7.964500159437122 0.5791780109651703 -0.7312320234823536 -0.06506433659950084
Ni 5.809638936665781 8.161952471241687 3.2784513607324173 0.11758451798540394 -0.00983395537128629 0.4330030829365833
Ni 3.2300304769283246 8.77035112342397 3.3901336559616833 0.5779407961239594 -0.5981308979185892 0.7225206117512847
Ni 3.8139854776134325 4.662594576566117 9.234553225200274 -0.16432974456074279 -0.20412270818796457 0.07793116525983998
Ni 5.465602300283596 4.562437672952043 11.470671790424358 -0.17646046638600577 0.24805386235327603 0.6422541134900487
Ni 8.225133559988304 9.238659722141492 2.43508879310183 0.5645515193012471 -0.971070697014689 0.29412957366541603
Ni 4.727884135624851 0.46573462197285986 1.6334073063382497 -0.27969771451080216 1.4338188724241887 -0.5713004079893064
Ni 6.483190234250166 6.062874435970338 0.09691752649818762 0.17011138423952638 -1.291441206654505 0.9670219808666121
Ni 8.504382654052737 9.237290585575181 10.981126058047957 -1.0434737333674482 -0.29880152521978864 2.4319049216854567
Ni 0.28043111530001297 5.487590633538522 5.542623534200177 -0.4969461614474473 -1.188516604674121 0.5828660013397188
Ni 7.415161494936866 6.258834388917626 2.8184023065405843 0.18284322998389801 1.193209639274416 -2.496171702084327
P 8.80558357106366 1.9621643786404244 3.398069171500012 -0.20610194340152246 0.355313087153272 0.09999148749398908
P 1.6950458345534918 3.6163460504781395 1.34101632675267 1.3784619929204387 -2.6965136030736203 -0.40864907957225105
P 4.972037695706223 1.3864698352387153 8.095940920833653 0.07415627159844002 -0.3090519993032032 0.0006510033204375886
P 8.71500149583664 1.7896349161312426 12.403098517208782 -0.040625486830846165 -0.13915375951574743 -2.0519508960550534
P 6.926872629928338 7.9367112509296 1.248623340227279 -0.9934943161255277 -1.455275756746384 0.13878120666767713
P 2.175302431706338 3.6271987396604177 5.734955275246745 -0.6918296104253311 -0.5431902800166516 0.6665759780648649
P 7.075953346845198 4.270866349790826 5.947378639025045 0.5812212666474441 0.11811905033263528 0.23421695647018376
P 2.660223220761745 8.724503303606827 10.274067424897432 -0.009057739326894078 -0.09035576417643792 -0.91553975382692
