# total energy = -340885.2088765534 ev
CRYSTAL
PRIMVEC
9.12200208714683 0.00000000000000 0.00000000000000
0.00000000000000 9.12200208714683 0.00000000000000
0.00000000000000 0.00000000000000 13.35097212064426
PRIMCOORD
 96 1
Ni 6.4752259147144615 2.2776544920147925 11.469673559145376 0.38605808164561256 0.40866527752216714 0.2535989605412213
Ni 4.919961023047445 0.5916612742347339 6.046988959174426 0.6147654211514767 0.09777313968643161 0.40247149000662946
Ni 3.3279709504151773 1.9304802092635551 4.809327555639904 -1.2330036313429023 0.358978194709685 0.9760380683222932
Ni 4.043665001128454 4.856243837492979 5.0094049914822625 -1.7142200407599186 -0.9246972519564719 1.6463220913663648
Ni 4.019856575316405 2.823141103177494 2.805012948152098 -0.06127350209850093 0.8613380709735359 -1.3003997013993733
Ni 5.212795538533406 5.181716876946569 2.9192304502345627 0.6504682738697249 -0.8216371528394882 -0.36660871467174927
Ni 5.0383463679473515 2.8255857997742866 0.5514861520272929 1.233664919075985 -0.146115021324929 0.142953849988128
Ni 5.943914895012266 8.238882947253598 12.343547689473143 -0.6346842715625908 0.6519173476114257 0.03135331750030084
Ni 2.4476886135230576 5.293662088274328 11.50393215070849 -0.1467786230508569 1.0179079690832018 1.963135994003174
Ni 0.31205183757724214 0.7264279107335971 0.5253288106418341 1.0484894414144843 -0.8229214188685505 -0.1969058787245512
Ni 8.08106318672707 -0.12924052754984452 6.890690242736478 0.08539867728147872 0.35427179037295115 0.45423216751868867
Ni 8.620821180491316 2.9378594031822116 1.0767127962441865 0.07480290404350343 0.3578623359376869 2.2309994348832096
Ni 0.6806080935481885 0.7347809281727128 4.583909197611391 0.8738835117387143 -1.2323503140296197 0.1556378732136997
Ni 2.104746939805073 6.708338681621313 0.4864572225526082 -0.8107930110361327 0.07141650406977378 -1.6333547325724194
Ni 7.6312937449305815 4.333179107803846 3.866855056366093 0.05576362802386525 -0.7185248603283302 -0.4252928587765191
Ni 7.6283382162090865 4.394104960676899 12.75202091498851 0.09331304703254896 -0.26927240541242015 -0.6916426912255056
Ni 8.350800792574676 7.669451080245445 8.95652636984275 0.48561479559502824 -0.10047408355736245 0.7427289683783596
Ni 7.034669189284225 1.2456915020948065 0.36856537797317324 -1.3525265040015997 -0.855999432369442 0.025834701674916798
Ni 1.9297413270831811 6.80032495207675 9.239073091217284 -0.011904721857385949 0.326690795430889 0.7647766922070184
Ni 8.94408669540601 5.451737264863208 1.2016085141333879 0.48020982252937294 -0.2714917816612421 0.24932218754273835
Ni 6.8464001853245104 2.1589681210414 6.925216108964838 -1.5541444434898397 -0.7809216773979971 0.815906421003298
Ni 4.034086898790274 4.870693089020292 0.8349523712262918 -0.9968997422626509 -0.7767593184901912 0.3074941678977801
Ni 6.249091479511141 5.949378974346143 4.98293020441931 -0.1210123127200303 1.0055684736812425 -0.43236236402879086
Ni 5.575495469074723 3.2676015396779614 9.382422619611377 -0.17420483758260966 0.6132189025999633 0.3638959437262765
P 0.42676922538173745 6.032754074699444 12.421184138225538 -0.11826380344061568 0.5157144431938859 1.3618071579725772
P 4.147354800440924 6.314706041528789 12.701568032872089 -0.3044330124739531 1.637831280286534 0.06585315104938337
P 2.2936636059228936 9.056816398925278 1.3605575785355994 -0.31990513996762326 -1.68120759038964 0.4348961861942381
P 6.436959115372874 7.964976586388325 5.879353924251818 0.0825123568726192 0.04953513061565017 0.6756820541311912
P 4.600116258967814 1.3432239499041612 12.37755268937435 1.5228446049352933 -3.664211012740702 2.7578148730862635
P 3.8398977153853404 6.278801840763952 8.324585070374965 0.8574294799477492 0.8600910859403121 -0.12932803167457727
P 5.074515106776765 1.1215866617986718 3.7079525141752385 -1.2409699373778305 1.7010863315914382 0.3978491607432697
P 0.14773903586564982 5.769173820354952 3.4327882292028846 0.6728121887825639 1.0965402741751242 0.7518103618543375
Ni 0.7640005257057212 7.736707602663925 2.3875144136334963 0.08753500689819119 -0.010927188435465052 0.3498176112563395
Ni 1.918083408237282 6.876511914675303 4.703814268082288 -1.2071432186363726 -0.9496294964217775 0.05320769437123095
Ni 5.966573948543732 5.962724463604007 9.532033490333976 -1.4060710128869591 0.10781586863441432 -0.6752513943516758
Ni 8.956228080369932 2.029408323413616 10.122480626072319 0.8730594731755222 1.1395203772810762 0.3049508326506361
Ni 2.2701105961731973 5.548074730380846 6.938474027001325 -0.41987657285695434 -0.2827892089519323 -0.022960465450915294
Ni 1.079798769597526 0.24598756084981138 8.75148200378788 0.34840581851047736 0.3676644096297732 1.3148338745468322
Ni 1.6884278801744017 1.5242683281002203 11.794850133526593 0.5404641393347402 -2.135575769265561 -2.017915146626583
Ni 4.029817801748113 7.318783070641329 1.6861875164274902 0.6285570756189304 -0.4409552479041245 1.2231673619787709
Ni 5.906669759920085 8.155060868791182 8.08640320683066 -0.5501849661669299 -0.03029685121132847 -0.05862680850427322
Ni 7.379699801512156 0.8931936188439862 4.918191354615438 -1.1554249643264747 0.16525457036785732 -1.7112185349294338
Ni 0.9060501687824921 7.754796533079745 7.229952100756156 -0.3794657731400755 -2.249004356101062 -1.1042278726273693
Ni 5.653114586022889 5.555673358235803 7.23283556566006 -0.8416747882166536 -0.17600075314076785 0.5513203653229537
Ni 1.386206824397023 7.954714333883133 11.74463716006874 -0.7732253371950039 -0.1924082479645138 -0.4499744206835993
Ni 4.7555734209175915 0.41121986038586894 10.382116526653924 -0.09564863714426107 0.07145327084498017 -0.36141637183753234
Ni 8.503147351765103 7.6627007985975855 4.7256833562209115 0.2076788009703391 -0.3544952192376669 -0.3273261150220427
Ni 7.831083837702793 6.455841659982429 6.801706023213893 -0.0740534274719886 0.22174350659352135 1.1594729091436031
Ni 2.3999349318655594 5.555235502128915 2.4853104873072067 -1.0301407637039677 -0.5729520846601164 1.2559522697192755
Ni 3.411647076841964 4.556932700425962 9.579882953014858 0.8938239594163832 0.042872116773177774 -1.0622353302456673
Ni 1.0533084751307875 3.721074514378545 3.8574566574717815 -0.217134032845968 0.17187747500101366 -0.8001170193795253
Ni 1.7480492867290165 1.767524761483316 2.5601428325750746 -1.3108854314220457 0.5675810501561903 0.5158481405582729
Ni 1.06123549506591 3.6760300673824178 8.294772542697213 -0.061714189180345325 0.04448496978625242 0.41850026133471796
Ni 5.535331293269953 3.169704211779533 4.832704510746623 0.8085615506024525 -0.5890183940943597 0.32053197491834473
Ni 4.127851959679943 7.336981465083872 6.256238568255868 0.15324751860465222 -1.147827868705507 -1.5283585927749872
Ni 8.132429181266396 7.622053156674794 0.33624429968303987 0.5586716634817024 0.45089873227008154 -0.3127451318840743
P 0.2016318250218103 5.754943496881085 8.315640034991329 0.23062435402291892 -0.025214294482098512 -1.1547312806935595
P 8.788337629384975 1.5960676076276643 7.985230167932575 -0.7186685849950462 1.509673357660658 0.08520995830944035
P 1.7660196311158878 3.4907713241575595 10.526974834216338 0.18217088650722174 -1.225383395793483 -0.7168009356586881
P 3.808435929704975 6.531572522469641 3.885627224748703 1.1620334707819278 2.0285178618430932 -1.4093537974032888
P 7.031138974422438 4.480499443767284 10.562060791381425 0.681490176172536 -1.3234738096100174 -0.07880071234898686
P 6.664726388974799 7.881866024099602 10.185777287324127 -1.677828903725394 3.2409115302451283 0.34727530445046
P 2.1704435998427623 8.608023011367061 5.886096908297898 1.5539876061970013 2.31048328934215 -0.36728054392779325
P 6.594231555765793 4.317060529869023 1.3644827760938079 0.3825449262860315 -0.9387113068473768 0.6498051863644293
Ni 2.764513994865604 1.832236245280507 0.5271541232874245 0.7332089447030663 1.0220790697417557 -1.7657503474287268
Ni 1.7507676433926143 1.8101427558871046 6.778248794487578 1.6883956234976472 -1.3633418494495488 0.9054710567370083
Ni 6.903221137195486 1.0717349196290007 9.470833065193895 0.08610187399609043 -1.0287302565096863 -1.6222496237981932
Ni 2.94556749506389 2.0298370575182774 8.998248583627863 -0.36296520438189106 -0.45070409976077214 1.181602651163107
Ni 6.600981837413653 2.337421850605037 2.8142115751976418 0.24378685954680596 0.20308089718701156 -1.7641878880376134
Ni 3.9362807909141133 7.185610960131718 10.774929098746256 -0.14613533303990317 0.16462619275523907 -1.0210323736447964
Ni 7.473948328519848 6.463604483877469 11.419046446786423 1.0337950726271032 -0.13565834476797925 1.5208329738219033
Ni 7.601099917559747 4.028467745418541 8.247736762614968 1.0939015510006966 0.9589687715448324 0.9413513155733852
Ni 3.380687001284075 8.606554369008542 12.840057358479726 0.29751391675661665 0.07961703760269513 -1.1083848322185361
Ni 0.2160746911475633 5.186806954189144 10.462996759398187 -0.5495128798005697 -1.1676976110462405 -0.9054733707298535
Ni 8.913792526010681 2.4368972848887083 5.93763165987842 -0.7029933403516345 0.4169642843061657 -0.8487149828928867
Ni 4.055350285981033 2.91169750079564 11.42301178115443 -3.545444301521739 0.9692727245740017 -2.4342621090637238
Ni 1.0088113482682703 3.4022058045371866 12.629031695564716 0.3160502849979073 3.1872703478809044 0.9560955637620953
Ni 3.347665353222921 8.705792631234315 7.947420380902552 -0.26636165952352836 0.7301300486674265 1.0482598419021818
Ni 5.828576298856124 8.36850659889697 3.8475237092469774 -0.6639154005135662 -1.8211149402419602 -0.5918625484113742
Ni 2.7792642724664014 9.017956669438947 3.5543763090846348 1.0655451113451908 -1.3511625337745374 0.17757246850326192
Ni 3.9930834987806354 3.6707393060908515 7.3423406413921395 -0.6345696003615975 -0.05233917572334857 -0.9413392313885273
Ni 5.248517299253705 4.600718311114785 11.917011075148189 1.1888331074732752 2.0442319301442406 0.18477258579612693
Ni 7.9529172994444455 0.08336415395062953 2.3327887856740257 0.8148638386713966 0.8857121289425263 1.5542298041147942
Ni 4.558200658735492 0.41919796353346167 1.301848372203668 1.7218891272694024 1.3298938542037484 1.1222533626705125
Ni 6.094984373890934 6.257182695486346 0.566393328066392 -0.027101741312798487 -0.09747926259509664 -0.8033013306447778
Ni 8.277459894670898 0.05424672284256179 11.6247585434043 -0.3375135970780058 -0.24652097064851736 -0.31145855186216675
Ni -0.047311264549496655 4.717890429718523 5.891557338830883 1.551281777230064 1.0444985750875366 -0.26277934148890875
Ni 7.275873172166283 6.5814881186549 2.778457887469549 0.4312133380260122 0.009274740433706609 -0.4444478344384152
P 8.702800614503913 2.0704390894299345 3.3122427941756625 -0.3334988194916579 0.170280562827539 0.10542988490074101
P 1.990539471925058 3.7142056467017355 1.363481180249301 0.09766155380923182 0.02346105923641766 0.31064016972592956
P 4.857201647726797 1.8233514151115664 8.062638566629301 0.49921027489127573 -2.3847588601272736 -0.9351423585491959
P 8.487047017834733 2.1452212636855545 12.34285350510368 -0.7546773989894874 -1.2702221493747285 0.022129742019503823
P 6.322906721530716 8.179170320676715 1.5844534743924539 -1.0229470741690059 -0.011671779910973446 -1.3184686430859425
P 2.1473010801932735 3.6526868636839387 5.685911832829264 0.45819886547592054 0.39353150720452224 1.3899954474813352
P 6.98001015194101 4.199660361209615 6.162594829995815 -0.19896481813610895 -0.20416436005917743 -0.8982789098639433
P 2.554981603715129 0.05781342571325555 10.351075265276217 0.4284218913238041 -0.7632414865094145 -0.6305761629314882
