# total energy = -340857.0489185405 ev
CRYSTAL
PRIMVEC
9.41032650220700 0.00000000000000 0.00000000000000

0.00000000000000 9.41032650220700 0.00000000000000

0.00000000000000 0.00000000000000 13.77296404635637

PRIMCOORD
 96 1
Ni 8.916604352981349 7.1976200029114805 2.3623937838686433 -1.2342860975997518 0.6464843495213124 -2.1808055876376375
Ni 6.366358807513102 4.640024992411183 1.8648867579948607 -1.6113201213698831 0.6420057449246686 -0.720657847510933
Ni 0.31814620191619936 6.4668799156723304 8.37299801942638 -3.096184133296345 -2.655610179991039 1.1495721050901233
Ni 4.892946338975084 0.605136694705496 5.070310291639709 -1.9314715730203573 0.7512958841117642 0.681264176204659
Ni 3.9123150303196894 4.992517004153216 3.9669852634185343 -1.024518532421184 0.854471939981322 0.20569596621235542
Ni 1.08481303384083 3.8548555764327537 5.24683860730709 -1.7387205970044441 0.8593647492972489 -1.7659118127072555
Ni 3.2892855407205452 8.437684604100275 4.181486128762392 0.03796285239701849 0.030855294817959764 -0.7970226967249177
Ni 4.184038209321537 6.429012761653164 1.8511966149364403 -0.7723503907892183 -0.7243972599487073 2.0360478516715514
Ni 5.830760661848369 6.924005348273984 0.5079044956739259 2.5967046639040827 0.9813291415179034 0.006367594089240647
Ni 6.723988857548988 6.732881616134502 3.153154815880419 1.6729898304655382 -0.3590964654551042 -0.8157413561803435
Ni 4.5529512408855 8.99194342730477 12.593612285965039 0.907072082675541 -0.40798907739074897 -3.241940742840591
Ni 9.752768328509942 2.34176917117883 9.454038453355112 1.5247356513104193 0.970005488974968 1.7740776363474995
Ni 5.896868205830637 7.65576175078005 9.36925141117999 -2.0476170445663895 1.0684250039961471 -1.160757946503614
Ni 7.737641002052607 2.597965311380572 2.477026617715532 -0.12665948370347863 -1.8898772945183389 1.3268640662384892
Ni 3.779093037414784 6.376145547120441 13.037983902999551 -0.6198644329409388 0.14700308035683715 0.30818502331721764
Ni 5.089001082224417 2.7377086605815224 1.3298833449678051 0.1969058787245512 0.3172306784592537 0.05642877241168992
Ni 3.457128124986413 6.793399426148732 6.090253239439007 1.1788788244740405 0.4561646086547112 -0.3690530624471837
Ni 9.04891354421134 8.279713452380657 12.704471578867174 1.7340720424888392 -0.4195729255736064 0.8802773310802
Ni 9.258378002788037 6.721683327545336 10.804808018090696 1.825273442495024 -0.03002971359287086 0.2653661283794785
Ni 7.771461715657201 7.283799773415339 6.91636980931495 0.7263883222368072 0.04460324053167157 2.1695981489575926
Ni 9.180394626705326 0.5338450018293023 3.15641925815906 1.516977090410923 0.014645774937632841 0.671772691774456
Ni 8.868000016373745 5.5492601535657275 5.939066933158706 -1.740017975659629 -2.6467619855717905 -0.8120942463460594
Ni 6.099199636885831 4.4957082245091105 13.303829392041067 -1.3515669683018077 1.680827581342402 -1.3353641332897004
Ni 0.7482254149933779 2.5587054290326687 7.1578783118444465 -0.7906617875038964 -0.9739652449536645 1.2199660814326538
P 4.7157969417556975 3.11488395885245 3.567941307288476 2.5858975459862497 -1.3393277459231387 -1.8484941035858615
P 5.169186474718781 8.229151767851585 7.122619700343697 0.7627187812367251 -3.256533553053101 0.5752784188004479
P 8.53893030740351 1.2007953085143457 8.340328188758305 -2.0729282696376687 -0.7150279029186654 -1.947740999604342
P 8.353255154333883 7.234517893296459 4.5096260974699325 -0.34602369143154604 -0.7735480106417452 1.1178943143708682
P 1.6718480244033667 7.449750882045559 12.011912009521156 0.8901642511766089 -0.1290488098712616 0.7509492994056227
P 4.025173076580094 2.403039807316701 6.663648902706469 0.8619530788497155 0.13577095908644357 -1.7528840329890198
P 4.924781473678573 6.851894015955676 3.9872588709281995 -1.955051674333143 0.9708644945411539 1.6584003626871373
P 3.1560541374890936 4.875951289233877 0.9691111868983706 -0.8986661180000329 -0.3282643105655959 -2.1135910374643534
Ni 1.1352994357575368 1.9613849515558806 1.969850481316229 -0.14587256629681974 -0.29071257756406704 0.6602932303799467
Ni 2.7449640223481167 3.3400730730867085 2.3572566866074447 1.0097516585246544 2.1763285257028904 0.9001804977620304
Ni 0.475312770716177 2.8314166923217954 13.689733709215618 0.21162107344753878 2.3162487310710174 -0.9103918910773934
Ni 3.93064634643036 0.9544423698792163 2.546056068090183 -1.2745426311269534 0.4588390701630808 -0.053984938856887675
Ni 2.24811760139783 4.656624808437478 7.057611282501947 0.7370015789762792 0.6785442061703346 0.6374170971127215
Ni 8.648598252964982 5.236093896457417 1.0567467349188209 -0.4331959156736798 1.0077300001089355 -0.9402799368860774
Ni 2.0117678398805867 9.470176222348021 5.993153726011728 0.7666929353931248 -0.242615207836208 0.31319276094445414
Ni 6.088067220582482 4.449541162476796 10.337559897224029 -1.4307695440749038 0.07428482675650433 0.45745813065515406
Ni 9.175642411799837 9.096699182409482 5.287178795142419 -1.0594983909304785 0.692731039193678 1.0686633452591983
Ni 7.566382469250715 0.5595897731925318 12.4902050306543 -2.1818643679194554 0.623577620126468 0.6286393509200915
Ni 8.977169214628306 1.0023691629755422 0.6997641153492666 -1.3456058656223664 -2.493344002827545 -0.20390930662557785
Ni 3.6018118956237606 0.30063923041091667 10.308347420528774 2.818550243293107 -1.0125269072769463 1.0814563832588084
Ni 3.8444665759265013 7.171007599440754 10.69616673915534 -0.6520397321219029 -0.1338976533231307 0.26054145329732553
Ni 4.573014057080545 2.3819324448751034 10.714416185425062 -0.19038324711468504 0.3101940833274464 -0.9104726237166577
Ni 7.445073949752436 2.1909686882868957 10.163827389573319 -1.1166367878146832 0.11936680669680734 0.4161916678061993
Ni 2.9596888534637587 2.613454708874496 4.463142848465689 -0.36851133101110084 -1.6822630282373479 2.70321466924288
Ni 5.494360308499172 2.410746864757481 8.387432519314551 0.26123976491593076 0.9728678981244276 0.0437329221115763
Ni 7.209458193705743 0.18805031948971485 2.40190868606593 -1.1485503486938284 0.3385150417593267 -0.8242162264205741
Ni 7.258533046640622 7.94940158030641 11.302328218421643 -1.7991412641843467 -0.9433716884375236 0.42233943257515005
Ni 7.435296620471641 2.9184716231943875 0.35343210336393016 0.45872671295493256 -0.3104882175290975 0.29421493429037066
Ni 2.816783634543514 2.500417866409727 0.31273338208721707 0.8477467054423463 -0.5572189901955759 -1.888252357320406
Ni 1.4252692379311447 7.135097793343055 0.6603197906010712 0.002413237427182941 1.5998200911500835 -1.762075469680301
Ni 1.0025573695064525 7.66919969708705 3.865396083196389 2.143419433679696 0.48946219436557636 1.2445674249211016
Ni 9.442509862304197 1.5260444249071026 11.695353329693187 -0.2682254522051445 1.5863678222999196 1.1721479335081104
P 2.0599110704874595 2.2498773324618417 11.937703115415852 0.6260985867761087 0.2902461794506098 0.6446483247538382
P 0.5781074137688031 4.249599954364165 8.447798823071398 0.21158610644454529 0.7177602142481638 0.9163416809029251
P 5.0699357606431965 0.8005985873824613 0.3602705876645585 -0.572085365784447 0.028616892405744263 2.644862197445916
P 7.789576594257323 8.406752860745156 0.7275001118095279 0.2190433340535389 -0.9764530443725249 -0.5216881442788176
P 2.0299203597868916 7.417040586973336 8.403092243718948 3.2043648414693457 2.146883480968896 -0.29407146673397094
P 6.051856284035327 0.48920805889328967 10.725654938418376 -0.7507667510811715 -0.18292267707158175 0.36947420914500234
P 0.05119029434231167 3.9698591771455356 2.348014804907091 2.3243569620004485 -1.7717104216669035 0.7719413282762576
P 1.0086176198017665 1.807187340781014 5.2706382641733605 0.30110574787293304 -3.0317684860244367 -2.2251661160308838
Ni 8.161962036316583 5.767796166932304 12.653126014136863 -0.6860451425330701 -0.3249123633742275 -0.7325995932538415
Ni 3.926966908751062 5.997229338438592 8.366167063386989 -0.018247890466594377 0.0006756859107859331 0.6265958381275015
Ni 8.34003364553743 2.3398776955431813 4.932993865654848 -0.18439206252825666 0.9279304141817889 1.072188070583005
Ni 4.107607537118835 0.42769369529788964 7.569538692774081 -2.014186789932402 1.636209171302079 1.270450720445767
Ni 5.263242688541238 8.48479269878714 2.587953664968795 -0.8322506666892764 0.16300819753584184 0.03070951326871485
Ni 8.488556829405349 -0.07012763548251315 10.109754712210117 0.3852124458158656 0.07113034028792267 -0.966198456524052
Ni 6.492287797345231 8.293518401422931 5.496169914293876 -0.37966529074539124 0.012452623941055972 -3.5831844963849906
Ni 1.3698800558842226 5.099691213180126 12.717225394434317 -0.28744213434291144 1.3017554440963193 1.4482972685460218
Ni 7.764356919115333 4.583967677179529 3.474436538601586 1.3920515586794155 1.3762742412405007 3.479665198243401
Ni 3.6781955161937345 8.373214456936926 0.7152393973533718 -1.2237432890868989 0.7735762927765193 1.968551251481474
Ni 1.2886124758371247 0.11024668064402227 10.816280147182338 1.101743929863251 -3.2394087204473565 2.542605310956518
Ni 0.14779858872391394 8.87240404919705 7.626847581436289 0.15749369547551584 -0.08022021840433281 0.7682317406351543
Ni 1.5534096545014704 5.8378372274106 2.375023383125384 0.6190992726401403 -2.4936003418127246 1.4716729671574849
Ni 1.91464385960429 9.607284680116226 13.263033744400937 -0.23948026175165205 0.02237811058488404 -0.098489706137482
Ni 3.5675488966715276 4.118071820237453 12.212776370667903 0.1426507169254124 -0.7982984781135477 -0.5161204203830531
Ni 1.0249915879909688 6.960987931597871 6.330742603603623 1.8063835475690566 2.479428421187717 -0.8522960153759256
Ni 1.5783752508267308 4.474694965332968 10.552308254156033 0.2169003195686071 -0.47647426674634075 -1.0595035331368012
Ni 8.391159949659231 4.511414059513581 10.072912342751755 0.7622819508096226 0.4051824611798893 0.01766682115214377
Ni 3.001348369080769 2.5897877376125162 8.430086706447423 -0.5121287827251567 1.1693284617814443 1.5261901243687588
Ni 2.0101210327351207 0.6100140669540383 9.000714792677849 -1.1319001417316572 -0.47932407749031003 -5.347546962327255
Ni 6.276866602065221 5.472622454179025 7.976033745462882 0.8452892450407894 -0.38125371827843374 -0.1934991670358474
Ni 5.733467295694253 2.1997108816476825 12.722045363690931 -0.3284162627624279 -0.11311028426413423 -1.2473804688898644
Ni 6.505725743652231 0.5857109576175821 7.143623549193295 1.598387215358299 0.4951543596543473 0.14844109835494437
Ni 4.737054869422024 4.452928880033183 6.204775031432657 0.8164250125109294 -0.2863301322256553 0.4131379685815401
P 7.7688738758571825 6.881677699472242 9.336389609850386 0.39010474091116043 -1.050853827881603 -1.1451680624851568
P 7.181970629866283 4.015631005462938 6.229208944308096 -0.8185546572594224 0.6775504747984976 -0.27707621772755503
P 1.7893265409976198 9.30479914363708 2.3407566200425323 0.9292709873700834 -0.9460032125230998 -0.3671486463356193
P 8.105396563451471 3.0976348302945147 12.193976420295268 -0.4719277850262389 1.8691446899566777 -1.3589131242542338
P 1.9686873649552028 5.6814470105506265 4.857986034825828 0.169732660743869 1.3463540566423007 -0.9799335467219574
P 5.879205022904698 6.597165886695034 12.194582445324798 -0.9861275913478115 -1.4133086682859788 -0.5408510903605137
P 3.7062571099524706 4.273511594116327 9.819627757583199 0.8671528778831001 0.47647298119476006 -0.016466887306771642
P 6.66439325953622 1.236281649917496 4.271230530961693 0.8475132492753017 -0.0422985036578949 -0.6109853852837542
