# total energy = -340881.17087004794 ev
CRYSTAL
PRIMVEC
9.19905422397778 0.00000000000000 0.00000000000000

0.00000000000000 9.19905422397778 0.00000000000000

0.00000000000000 0.00000000000000 13.46374571144042

PRIMCOORD
 96 1
Ni 8.766992958114336 7.5523498504438535 11.843262449183317 1.1792490633292658 0.9995060695372465 0.7462166698166439
Ni 5.157155329718354 5.517335095226763 11.875172128158532 -0.7459523604116637 -1.3694765015923769 -1.8013768383830848
Ni 2.014960817207989 2.7229660185247027 8.414585473442576 0.8298364008208289 0.13164305296099907 -0.028869631846498673
Ni 2.520559230444775 2.8511088425920295 13.34894063197441 0.14391955633550696 -0.43891970553133447 -0.7177069924127252
Ni 3.3372788535007323 6.922131850872532 8.58327220869399 -0.7993001799051848 0.9281096200721306 -1.1017436727529348
Ni 8.647248870470088 5.412024323516586 6.2839207931653815 -0.06110843727554637 -1.0792082106545802 0.859366806179778
Ni 4.978886859682409 5.91803669418934 7.226840400055858 -0.36882474848646163 -1.5764078828737302 0.5171154373064707
Ni 3.0227815908148905 6.709891273924839 12.895144852274619 1.062274925234351 -0.010260244275427492 -1.8408160182153137
Ni 1.7050906787508529 8.649355453866455 9.724230892762229 -0.9486586478680759 -0.21295187644382033 0.0616545395870035
Ni 5.330391917143761 0.4493222796751001 2.1563806361049194 -0.20520668528076272 0.03675546235247863 -0.9122163458806418
Ni 3.6473605702029186 0.21736261028873327 4.141245827812646 -0.08406067519634557 0.37921534769216625 0.036848536286917186
Ni 4.016426622003432 4.761724788773766 0.5764035328955233 -0.5081577138925506 -0.7976171357758071 -0.05868825786982796
Ni 2.3549118626787764 1.2937365751027083 6.278911908190173 0.37786988940786537 0.10244252013764293 -0.8466347033250903
Ni 7.103049648498671 6.97841166405587 1.7894533643902386 -0.3799036320084425 1.1090674601078576 -0.7487957433977298
Ni 5.678815291470687 0.26171217016748344 5.5590859223130495 0.9967213077032576 -0.6128059834322608 0.16194041839295983
Ni 1.8498285964734174 8.53553555708361 0.2532168436760135 -1.3228636868298442 0.565507198346297 0.551643038769695
Ni 6.731785022760462 1.665497949764078 3.8174299232904647 0.875444171357615 0.11720450893816588 0.3315887469531386
Ni 4.944868757499999 3.4008903128277646 7.3360313327991715 -0.7329032405371894 -0.24425068655710194 0.804575312261195
Ni 2.4337845528118174 2.4333521972675842 4.054323965313566 -0.710952447297711 0.589362664807656 0.4801429738471796
Ni 7.192197682097843 5.916546447419856 13.008697976487618 1.638130556694508 -0.4222995804761501 0.6943258944846236
Ni 6.328066134042388 3.7568109162727716 0.5812946699778346 -1.680357840794835 1.4188946470141885 -0.41232370021036086
Ni 0.9796716679610994 5.602150374329473 12.41855473633962 -0.7494279776650901 0.10710007351431232 0.5218796914643334
Ni 5.385411459910931 7.784120019315088 3.8297759738418473 0.7579347295845205 0.5993768545105485 -0.6761404818248484
Ni 7.846719582687532 2.284364316535752 11.06391398354111 0.7275229500618825 -2.2809078896778785 1.8150970161826545
P 5.3772518988953015 6.384189563305472 9.411130966399131 -0.12111438551553334 -1.9197031196305194 -0.11777503672965522
P 2.743194738562323 4.482395510036913 11.820320008176575 0.5656074713695872 0.665194524336306 -0.030825212910972722
P 0.6939223693450931 1.9005061856899934 0.5484466874810929 -0.29607204210376753 -0.23941906949641348 0.16092817507836155
P 7.177515991702189 4.180096193130918 7.270382282981765 -1.1954015047194122 -2.2269424912050164 -0.8791216202092021
P 4.4577972392862995 2.0521801902285497 0.7595530210542348 -0.9471949188383558 0.6652523741574349 0.943300468879956
P 2.6293748417794776 8.864732908273371 11.68327249970888 -0.4476655700447645 -0.9836500763415962 -0.10141664997628985
P 3.1189117065007173 4.409088247654103 2.9623741620422477 -0.06093720180500473 -0.35111884656626624 -0.7367038452302023
P 6.8073736505681595 0.35613678121712333 11.25504549097069 0.6988484649453255 -0.20911347653433665 0.3318738822937252
Ni 8.82730195700776 4.065503575800934 -0.13687364634459182 -0.36386817581213465 -1.4604493305275237 0.4948329717591865
Ni 2.0834109790087774 6.028232163643934 1.54240632632097 -0.634088804070437 0.24749413319506408 0.10438910234105248
Ni 4.722886382225867 2.596488223255379 3.1232251429835003 -0.841181393520003 1.170449719870081 -0.4827513580043041
Ni 0.747670602831136 3.4620548237555218 6.1594207945345705 1.162325805211366 -0.11190983619812984 1.0962931911613247
Ni 9.011834982908018 5.302114024740102 2.2819973999074303 -0.47338071542268156 1.5988986077770788 -0.09984339195189902
Ni 7.871704213711715 2.34581399814162 1.3769502988809303 -0.10405305915787241 -0.2976347586051971 0.11937914799198149
Ni 1.4370946347053803 8.351913237542483 5.032263451381494 0.47262275421073435 0.9974972666373336 -0.5105493540531787
Ni 2.6600720854200137 1.0559226276663451 2.128577414894504 0.12146585531768114 0.7962745057049835 -1.8573656950438784
Ni 2.7266088439612184 1.627487458088113 10.805840959188489 -0.10071062504820075 0.10307115486057732 -0.9234374114074418
Ni 0.8869608406963657 3.4757154191424555 10.739559014446757 0.9655829344272402 2.1236224535584265 1.2124060096972087
Ni 6.839745122060832 6.903696946390771 6.245347319376501 0.3334887921893289 1.5861119975353717 -0.1777897267203906
Ni 6.427737885569272 1.500393326191904 8.30814045835785 1.2488269715284042 0.34447125934276157 0.16808921160317503
Ni 7.996231809504924 4.973349029094575 11.037187971569622 1.107701947218899 0.008389252504959746 -0.5099533723403927
Ni 3.642853033677937 4.406282536143656 5.1864101616708975 -0.0037008458903549173 -0.12207340699469299 0.755774488708408
Ni 3.7532692804317147 4.588561793781422 9.382117149664863 -0.5212315163573734 -0.20196812373880701 0.3810621710929179
Ni 8.241699369979623 8.855865020089531 4.973009583997082 -0.39678780935829083 0.4194330575616325 -0.04226842175090785
Ni 0.6535247231217143 0.8045998692362372 11.836422952435719 1.0615323906413718 0.39231408985765337 -1.208493819126996
Ni 6.205175969884784 1.5668104970293844 13.19210135854039 1.2939138365647136 -0.4238494414617732 -1.5075444842431134
Ni 7.083584449954057 5.97544799103099 3.95912203418972 0.9786737061729273 -0.8951768738998519 0.059951955073599975
Ni 8.54921455057881 0.21696153152855127 0.05205652743105501 -1.073809408236512 -0.6153511184516176 1.9550791851369682
Ni 4.3222767738046155 0.8595660574894383 7.560054978185332 -1.1906598762693688 -0.3216272648650525 0.11726107320771417
Ni 3.8125203880998884 7.58990958846732 5.699701743878789 0.02654638302996073 0.952809951032288 1.8383138206187504
Ni 1.3229251738654955 3.630250329516255 1.942616695792865 0.07277661764209402 -1.1590587044243201 0.07147409678058658
Ni 8.094661688723905 3.1444298826645913 9.096860920350366 1.1999063345683012 1.2606723009027643 -3.03422620353631
P 7.241265436841211 4.154624012237707 2.5011464665087173 -1.2145379684385469 0.17147715423880144 0.4721872093352126
P 4.532870720062571 2.159993104662797 9.380851359816216 -1.4744096493623575 2.6478133096544396 -0.6148672368366636
P 9.242933620827571 6.6971965792218295 4.838183647102409 -0.6057279935395569 1.1964371450727782 -1.8534041392929692
P 5.2633308125169975 6.6213319797901535 0.1763753046954539 -0.30756050235934124 -0.505187318410317 1.3085398140080045
P 9.18302018126185 6.9870679739946615 0.42752512090786876 -0.32659592172423757 -0.46572808397343013 1.2738628314511093
P 2.217110031772204 8.694697591686117 7.615417645671648 0.7239414033582112 -0.320292605214029 -1.4549057750014749
P 2.1831379248604565 8.232067960302775 2.5547051994796286 0.1354454574262248 0.19787441328540759 1.0509132203646288
P 5.148848583836603 6.016163004621943 5.022865697679616 0.4510985069857134 -0.30612017036838896 -0.390053833068567
Ni 7.525102252103047 5.582446000377412 8.7683985735858 -0.5822142266883328 1.7004690097224133 -0.4693348274880821
Ni 5.742040390524149 8.135229517448737 8.178013398314116 -0.2168607245799233 -0.05386075457419757 -0.19498166511864484
Ni 0.050570880188637694 7.913725492989501 2.632324058534394 -0.05537050635050464 -1.0438732827987118 0.13327236103430595
Ni 1.4133794731514988 4.905745180273987 4.340415468743306 -1.9657294657619628 -1.6520332828185291 -1.2447923964477143
Ni 2.808305643712972 6.561850895768665 3.839334710991048 1.2897198530880238 1.2252044470134578 -0.6120907025327911
Ni 1.8258926576203531 6.243416437914065 6.107531689888729 0.5802697013674523 0.13586608990341117 2.416567262887122
Ni 4.83792975320835 5.792046448789044 2.598179929310367 0.8208606796847798 -0.9727910221399054 0.023195464279856828
Ni 8.354065816209514 0.1438943644586036 9.54121755060468 -0.949134816173546 -0.5554667833911594 0.8032064569381263
Ni 5.951824820018435 3.7075959766632813 5.216231655358008 1.2183018063563533 0.4845760699178687 -0.5477948686681986
Ni 4.382898540538549 3.0753541851827855 11.544852492364592 0.5397583715169672 0.09178478331348064 0.4900666607187947
Ni 3.964497961424821 7.745235617496524 1.3722652206111892 0.2904590667923643 0.7210257723733131 1.1099714599793657
Ni 5.091418888886688 0.34771688696954084 10.03751847982963 -0.1956640358976501 -1.1446813526567254 0.6799719397557967
Ni 8.608833620412288 3.4180373497309593 3.9618421944967346 0.23668238729154079 -0.041925950809824565 0.36517789576249365
Ni 8.858615537275183 7.692295060963325 7.816714107917769 0.3234609756396816 -0.8194501724904983 -0.3760320648681782
Ni 7.802886089745622 2.2055836169440375 6.082462427566527 -0.635618353341086 -0.42682523626064556 0.8165556245515229
Ni 6.572650585320355 8.154805104642941 12.866345373501641 -0.6459161357226683 1.0367981211194852 0.19390360156311764
Ni 0.012473917403825937 1.1490722498132047 2.6466221483727175 1.9000565490441856 -0.3827601276206311 1.600116796454896
Ni 4.253918602545154 0.14102793919088075 12.92860181215494 0.2585151668959161 0.22878910058639307 0.16945883825719205
Ni 4.2896109325797 7.566957948406445 10.810296981010326 -0.6873744028674549 -0.16354350121402156 1.2469657499499494
Ni 0.3957626267987757 0.8361103092620965 7.50487997140332 -0.6781325725542128 0.2480608043318115 0.3114852913350442
Ni 6.981042593537798 7.288566973191118 10.533509400930315 -1.3843397918574545 0.6066803301504972 -0.5024650343831475
Ni 2.1220654044740255 6.144407018284729 10.444365966858209 -0.5650243451726076 0.06741226800638712 -0.0019249849368547492
Ni 0.7074348599604912 5.015204725397973 8.438443220335513 0.6237640251056612 0.2267890394372288 0.2007108542929382
Ni 5.975218014677674 3.8834542945164823 9.681967678360756 -0.09668813415236896 0.24705190345132294 0.15304851521996868
P 7.268724613427067 9.146095177973534 7.050115531303365 1.3440724596969755 -0.015608395961218281 -0.23170601712287192
P 2.7688417014840536 4.63738117406321 7.420327785248801 -0.5815395692188113 0.29184643405819416 -0.4295639753480473
P 7.332639641540476 9.146003187432209 2.7075594426633987 0.23869041886050502 -0.9941715446982103 -0.020804852560493203
P 0.477756555999013 1.655084620485958 5.070110199893898 0.32677101384952106 -1.0495225106646893 -0.7710846367029172
P 9.157078848607876 6.7695379409207135 9.891087016241253 0.8115574000059829 -0.40395655919258816 -1.1999958089583138
P 0.4561194607736892 1.8033273778330488 9.690813488814678 1.387967618418029 -1.76809185107771 -0.7214263502458415
P 4.494786635953544 2.007206014574195 5.580439686671088 -1.2127384533359629 0.6522976137689799 -0.8081391183530534
P 6.535357619866734 3.6348222594201642 11.8291658186305 -0.9494019537920035 1.0756459472246185 1.5987656817436402
