# total energy = -340866.6541794874 ev
CRYSTAL
PRIMVEC
9.33618236641793 0.00000000000000 0.00000000000000

0.00000000000000 9.33618236641793 0.00000000000000

0.00000000000000 0.00000000000000 13.66444660902983

PRIMCOORD
 96 1
Ni 4.4249583704061255 3.9415961954643874 5.081547809341432 0.6734989304369433 -0.3299350133997995 -0.7794178391589609
Ni 3.4605493937748375 0.45031675709447644 12.073713617841342 -1.1146914911628543 0.45188089367769274 -0.5845703856253351
Ni 5.8881062145047744 8.965480007407365 8.132750415548319 0.09437851218258585 1.137962288765337 -2.162873942859881
Ni 6.110494080904484 0.4660771667195541 11.296972178627653 -0.20703371118717245 2.7878672123869532 2.481404056856849
Ni 1.8912864997391992 9.011880834275818 9.43032666527757 0.6965974641276196 0.16677563499807407 1.4654079600843795
Ni 4.347206642808444 1.5236276341296024 9.780355083913648 -0.7308923807547477 -1.128813018165901 0.006920638379233243
Ni 2.9443238565439738 2.867244334084024 12.126923322584073 0.2418665025956415 -0.47539491763923286 0.37316168529891863
Ni 1.3960673730624638 9.254808302106234 7.197200512545416 -0.8577976619204453 0.39367626031250263 -1.5533312035599247
Ni 8.450524190992217 0.5759668352285596 1.642370804473488 -0.7689110260903661 0.23192764621537476 2.354084313861552
Ni 9.149962972984959 8.187888041970796 5.5384325708025 -0.5906520730430408 0.9273244051666738 0.21054840920865028
Ni 5.788395785741176 5.584129449512828 3.8203882729488177 -0.5109571310145588 -0.15651333384011754 -0.01847389043447141
Ni 9.193702987849889 1.3987375212484552 9.042638887418297 0.6392322959445894 -1.3353402220303003 0.330353846104773
Ni 2.281016100704334 3.1700914209972813 5.913603328826253 -1.1122160330391684 -0.36316626464910357 0.05278166257740587
Ni 4.030093869083315 2.949430748354244 7.713921801065358 0.6798981490950678 -0.5055274753585552 -1.7155053352302454
Ni 3.1541638937060177 5.251649319444545 6.625862556584741 0.06736855925264527 0.6404980500308903 0.1414376704539177
Ni 8.511592160518687 8.842961284873217 10.876790751305007 0.07549890166926351 0.1110379751161378 -0.5433442890960126
Ni 7.4528223876782524 3.1293016397923976 10.823457808953691 0.4527090460059429 -1.8033445036324167 -0.1426921116863091
Ni 8.85391262690877 5.015714652283038 11.715363859771088 0.45502458151299696 -1.198182152788343 0.7010755545036312
Ni 7.026018806130697 5.0283278347979845 9.741206603586727 -0.9597827828056954 0.7375098860712652 0.3154213931646568
Ni 0.027126278162231673 7.071523359482175 3.2092725779628424 -0.5002076058075385 -0.5522076530239135 -0.08847525932427343
Ni 1.8943861123187418 1.0638953370156419 4.673964626641782 -0.3416204201575278 -0.5884039004388124 0.6732215084058406
Ni 4.3487284405508095 2.5812957374387535 0.6001998304438025 -0.33859500306764273 0.041363393438135214 -0.2988128380736983
Ni 2.402573196444226 4.107462813199788 8.605745693477033 -0.674567995131406 1.0031688631008142 1.8617183155856194
Ni 0.6657332960449566 2.8373778863672867 11.014746851550822 -0.7739344474468866 0.35354571084020403 -1.5452000898123581
P 7.9343266623087585 5.476044465074983 3.1499009927908994 -1.3507940946915251 -0.47418341382963497 0.4102539621655257
P 8.565424588632068 4.2181245839989385 0.17975138830255682 -0.7968758867344082 0.6986733728200419 -0.6771529822497628
P 7.171149762603556 0.7011454361479834 9.452230282966923 0.1691770453507151 0.492564487439984 0.2371981505856947
P 2.0660224908196767 4.454750128663115 3.6731258660183994 0.6627640605179425 -1.0857197865208528 -0.6575807165447901
P 7.297150881198456 7.6805225419025405 6.972598103664177 1.421894610182777 -0.5763832218288525 0.7438844221390415
P 1.184985623632109 0.88226924327341 11.206403739737214 0.6510215752700337 -2.3457179441747282 0.957010362266881
P 8.380110702814777 6.584986882501147 10.478799562473496 0.296746699573289 2.1306245959078725 -1.2663534104479417
P 5.0920659525104455 7.31077237142 5.183758467770094 0.873038904350232 -0.7385817789792054 -0.9356069568904404
Ni 4.564562306857631 0.4214259404456979 2.145044872851322 -0.9827751299358107 0.7371846415213626 -0.6114980632541146
Ni 9.297866775650963 1.8650704993676464 6.071550996591871 -0.33338800494540644 -0.33908376977860316 0.5940739542403962
Ni 1.4531768012222888 5.654645635697421 13.108330686635762 0.23205902958691646 -0.6229587555955465 0.5696037370131738
Ni 4.9856521447344635 8.468552359338894 13.315388541422193 0.7659866533547196 -0.5761600500744529 0.13500759855785782
Ni 4.765598323951878 6.550265619900788 7.902901072119782 0.5521875984192556 -0.15653673087888528 0.32271715549512164
Ni 7.7239451265635415 9.132597673593546 13.332318774710574 -0.5685894368160466 0.5802565887413298 -1.3711592886114385
Ni 3.576812874055089 0.633441308122903 7.413454507063322 0.8227460696329507 0.8205146091992708 -0.21419911858736013
Ni 9.42039483436758 3.6551434449658182 8.688688338527202 -1.3449168099751418 0.29474072488685366 -0.2323508497957224
Ni 5.771525304020593 8.065341310889243 10.14473134776732 -0.22844251588025175 -2.361598619960726 -0.6965743241991681
Ni 8.144810896061129 5.584913688840182 7.823469765296017 0.412554071053612 1.3881946468271706 -1.1485999709848411
Ni 0.6963214306665086 0.32348845273286836 13.779637683614414 1.8425579406070847 1.270535052629457 -0.7799888811710826
Ni 6.5246471352072195 4.376923711605684 12.800320690817422 0.9824347158772565 0.3172700163376213 -0.13791217379916249
Ni 6.439407789269799 1.7078025056857353 1.5018733953597465 0.040179914652995315 1.3682966223516626 -1.1425175122361872
Ni 3.7528279221337515 6.124442337512425 10.231021947850696 1.005773647713513 -0.9008279015380422 -1.0676685854460968
Ni 2.1742288456296115 6.269059803949517 2.2812793810499454 0.9059803922732591 0.2729606528972847 0.9948438881748867
Ni 8.647620339084757 2.287719479716718 12.656160697321287 -2.974424657997645 -1.6679525251519467 1.009572195523997
Ni 0.7182829326871651 5.886901846966337 4.913079197552059 1.540193380626386 -0.7234945456287799 2.463174935443332
Ni 0.6964129252547 7.838574774911805 12.464543954719513 -0.32531216991580747 -0.3131253980416284 -0.00800924345772169
Ni 1.3768815180896927 6.472401858113484 10.507316931823533 -1.1007368287549752 -0.3346270195588301 0.7357967600349006
Ni 4.14559178240115 5.010878509764354 12.514542946311328 -0.17983915305025158 0.5179762426448692 0.46493669842038643
Ni 3.4950465879959514 2.43332658149547 3.1530986352863617 0.3386567095435135 0.41522621856913655 0.030046939984051477
Ni 3.119760061309589 7.343738431716278 12.056099975996265 0.30765177652156694 0.18842020985104324 0.7821061846244014
Ni 7.952522881939869 6.862038097253934 1.3189542403456271 0.6326189043931298 0.08833847663609302 -0.7383714627406122
Ni 6.100961838604144 5.181049107617735 1.3385004719616822 -0.38979055210485125 0.21456910033226914 0.31110399673622546
P 1.8522705932033303 7.9334023802443765 4.6891601972275145 0.08530714600893695 0.25344932233723444 -0.04624360434857197
P 8.96899974819799 0.8518687659194748 4.044662981825412 -0.5881974408549612 0.5487202086959454 0.31728107208121487
P 6.103137169119305 2.2446516699895196 12.83959240875293 -0.014940423359916206 -0.7201901638458952 -0.2764761222497109
P 0.8568682916313575 5.1572698508704615 7.266492725208389 1.229130007320109 0.710026593049332 -0.6802637599646026
P 4.96299322988341 4.451361094427048 8.953519424046966 -0.8111179984757193 1.7363886064371579 -0.16708750981153803
P 3.885532419741035 8.36121426949853 8.867569594623694 -0.11213737882790366 -0.913990149951613 0.45012637288043117
P 3.981732443896476 6.185631677410986 0.7061076171299921 -0.0036671644389420716 0.36227023519739543 0.14702107807896614
P 2.4497956073699076 1.3170085799191913 1.2266875498641654 0.9108174086505861 0.20625081027456094 -0.40888870638688285
Ni 5.104230998266903 3.465096114636998 10.956057741317327 -0.09966932826787996 -0.22805839306795564 0.09241727469115696
Ni 3.3680745064243283 7.876899803945005 6.327404409049924 -0.6876243140947319 -0.9592024848221931 0.9713257504482885
Ni 4.458895393679129 7.490559237215936 2.3885315780115994 1.0241554926548104 -0.9638273851887144 0.35737794010210067
Ni 2.7916492646365656 4.455795781099587 1.1230027082237262 0.2765658537500398 -1.8692177092864584 0.04841053009290373
Ni 0.9415633381308642 8.975861842312339 2.777586172984261 2.4274751680488773 1.351727405139072 -0.5393817049038389
Ni 6.167622181429246 2.684899354291717 8.68890773881521 1.5882311007609033 -1.1075350826237313 0.10920220745897967
Ni 7.419146777514366 6.947828277956996 12.769234004052054 -0.49032171415239423 -0.9027017215219871 -1.9692706461460021
Ni 6.53492627210504 1.5819134212804584 3.8872614807342014 -1.9163678846096996 -1.1595112185807064 1.0326236780268216
Ni 0.15054967677757722 4.431391000126923 2.1155565405245595 0.9084108560916225 0.9503360355704986 -0.5351380991361363
Ni 7.06369963857357 7.711257254588848 3.2823366083430896 -1.685884169929703 1.464013393729698 0.3488462484820057
Ni 2.1317118706680547 6.6200722562177745 8.337362190528003 0.376955348013396 0.9502514462764926 -0.45735117276364456
Ni 7.657023370629322 6.273681214271425 5.200565463449891 0.11192989080278787 -0.30419878497596 1.077298652336693
Ni 3.976625552086206 9.153846824891854 4.4334430930335 0.3918752025480219 0.08785073836639708 -0.6738933376618845
Ni 2.7567226060219006 8.23141332463895 0.6320800927189953 0.1654548593041215 0.8742987448992621 0.32258962877832187
Ni 8.201117412528662 2.639189404925933 3.01027745035621 -1.0377288604638708 0.37569782145721103 -1.511120888740462
Ni 5.968938882317062 2.1253445942245364 6.283390844038667 -0.7413783678877361 -0.660171874310734 0.5716824739190735
Ni 9.370446258161095 7.863446365007894 8.4836676387554 -1.8289588617664116 -0.7287691637641578 0.29163020428233
Ni 1.0061697208128961 3.008939575408474 0.19883827974116167 2.0674957857681875 -0.17997053642179328 0.9513073983448327
Ni 0.2061746519249103 3.615324626737659 4.426911499778536 0.9871143807411129 0.5608995243709566 1.5917468272236457
Ni 1.1161032693795034 2.2359316755639393 2.6785050029190405 0.6753436969551658 -0.6489086426920888 -0.7691151716813722
Ni 6.24249836482663 9.159607249474922 5.736225198107188 0.017698188610711457 -0.7364212809927768 -0.9028390184308
Ni 6.208449307364004 4.796753164849269 6.734098787178574 -2.106115555022915 0.5631659518076301 1.144268947709655
Ni 3.317724474371699 6.1262535569113155 4.39370736682931 0.1694135868415534 0.6292299333162389 0.4305114268629811
Ni 7.223861848820717 3.6755710122069005 5.1354820018437195 0.9001254761543789 0.13500785566817394 -2.59917009472544
P 1.8010709685460673 2.0515700803584362 7.889742656548676 -0.561084386688253 -0.19028271698107874 -0.2855351471281857
P 5.433714213762797 6.861347219751265 11.795970591967638 -1.0625256077925764 -1.0321449386181902 1.1657335453413342
P 4.005250287534632 1.799353110971863 5.384693654093682 0.03515366508299752 -0.3020678546758862 -0.24695420153119405
P 0.8861586968897879 7.292594824153826 1.1036637398584719 -2.606429347391014 1.1598179511878477 -1.7171513554741007
P 6.360545055958365 8.786169286917321 1.3072279951651888 0.8073991548632352 -0.48084257101736544 1.277151272394394
P 5.389330002307539 3.5603811929105262 2.684694891895657 0.09680434801525908 -0.9864024422757528 0.19369842753084707
P 1.839573385046168 4.441642128477338 11.269575151173836 1.4612515147138447 2.883162579956854 -0.3835512560633588
P 7.706113018048703 3.2218325442377176 7.164324079600835 1.165489033430696 0.14474513756059587 0.6665543807983101
