# total energy = -381169.1916300118 ev
CRYSTAL
PRIMVEC
9.29666721123393 0.00000000000000 0.00000000000000
0.00000000000000 9.29666721123393 0.00000000000000
0.00000000000000 0.00000000000000 13.60661218516146
PRIMCOORD
 96 1
Ni 4.392740337564073 8.672535465086673 1.942643667712494 0.009579159048002857 -0.9050630226653122 0.08157004756400792
Ni 4.849959728052973 4.511867831306062 9.81032667599668 -0.5593164961545528 -0.3586074416338275 0.7649618116346308
Ni 7.142043734186394 0.4669390560661787 7.8027392800936575 0.04812950851737518 -1.224637004545762 -0.24442706423396612
Ni 5.926485901990939 5.901124593817992 5.933680592751585 -0.5830446930094281 0.49629850056111946 0.22145528592914118
Ni 0.1749084267216448 1.7746779920698659 12.905001259798249 -1.4951317124010572 0.06282696262854987 -0.05345966248103696
Ni 0.256127830212164 6.448224162978466 4.577645470546117 0.5530720579067377 -0.5815256852617404 0.2876563072362465
Ni 5.996359652807609 0.3427430193564877 11.484933482789698 -1.794407349043787 -1.0348844490365403 -2.0003797088459807
Ni 8.533355060153685 0.823121337554196 1.5025915029098713 -0.11473445013111852 -0.8802459636216324 -1.8298314941793519
Ni 6.59865353524623 7.854159146480964 0.6164898932817637 0.3008121278919142 -0.385283151152801 0.3250820561828724
Ni 1.571824713355163 0.09633299538815865 12.093230223251513 0.18885806871941024 -0.11181676226369129 -0.9657500561327239
Ni 1.2232461759854205 5.804718154758805 7.1621673000482575 -0.020295774134558596 -0.31022056569000767 -0.44246037169474123
Ni 3.4320692305070692 0.5563664870441961 13.377980360556496 0.39412723180699216 0.41212289705346444 -0.45047655713099843
Ni 8.736133965530637 0.8281852321882884 5.945762541469168 0.08313147851385683 1.2412481307398817 1.652856807161089
Ni 8.129517132835263 5.77105492275945 6.909205914690824 0.5941706277192607 -1.333684174484116 -1.3193333050790828
Ni 5.436356309547408 5.262257622540523 11.960457081365737 0.10779838513291756 0.2516798891416375 0.7829034837147162
Ni 3.0894777468262484 7.269742755104137 10.966712151011052 -0.12071277920174048 0.10393967350845972 -1.0972198167406524
Ni 6.763288215024355 7.191641453798812 8.140536472489732 -0.3375915015037928 2.7291038783048163 -2.2171633003310656
Ni 8.63876996974791 5.238857911150748 2.8044586638981506 0.6835920530068872 -0.3579731504839383 -0.3396882361318214
Ni 2.0862557939086956 2.8751802707651755 0.05235232210935407 0.9923936268621812 0.5957351439929031 0.201698157906872
Ni 3.6434940363975263 9.211788647114462 6.286976259068159 -2.111548296002712 2.0527193987899617 -0.6849138571421043
Ni 7.225425542472011 8.06598370906183 3.454964132866863 -0.6203367445916672 3.8674392341388555 2.1400237777345854
Ni 1.3727458815313023 8.7523659464947 6.109926809886019 1.721218583564939 -1.2589023534865351 0.13322042475044799
Ni 8.885550001071548 7.603818491612516 2.0623410471549968 1.4059524850312237 -0.20793154041109352 -1.6299354224782254
Ni 1.489735141812962 0.5606029782958135 2.670842314295627 -0.0026130121428148546 0.28551277853068247 -0.19646082076733262
P 8.806853713064218 4.265329513330113 5.088669322563952 -0.3086460221140362 0.9662154258049166 -0.42138272508883556
Ni 7.953001312351483 9.05274126433485 12.466133490399304 1.388559229255441 -0.4702568250817192 0.47004393773996467
P 0.5881899086009468 3.8200563402173997 1.3535445450575465 -0.47009124603813235 0.6830963443173913 -0.3452582740204312
Ni 3.7321470549962155 0.4475582939150998 3.9760971808184444 -0.9437568396910843 1.7202608476373598 -0.6018371431255829
P 4.378507140052056 6.337835536422171 2.522597658824286 -0.28627511061800376 0.10137551232570928 1.0348823921540111
P 3.920534719518431 0.26557975177354065 11.101757398365109 -1.3243736957164676 -0.46051568653455527 -0.774643043478137
P 6.663404822425327 7.092910847934918 12.114035234820516 0.8515437105909336 0.5302128939203772 0.104838016953013
Ni 2.24725547680426 7.829913438374275 3.832969410984344 0.10115336901257418 -0.561973988382058 -0.10975859418308193
Ni 0.025737823195309564 8.902646572086963 8.197466473537634 0.5197868134910468 0.07971191130934659 -0.16465781732412285
Ni 7.874667594365686 3.0488606077472142 2.135802381851409 -0.7232652032267931 -0.4955217702960949 -1.3428581276739002
Ni 3.0243452962911794 2.763880570821435 6.075066167148879 -0.12616506056556334 -0.3326639822951884 -2.104496788472569
Ni 1.7544112575328332 1.5281675640955734 7.372511833207887 0.06451669162614695 -3.1663860482327273 -0.9243915477905952
Ni 7.222943332324586 3.639691699505028 11.04763034248368 -1.5145283717601141 0.2857287511962305 0.3737011027421564
Ni 5.5526576164548755 1.892290129055187 4.53590064573344 -0.9141608712015225 1.58975550782523 0.7123184744073022
Ni 6.96761966382685 5.588951805277158 9.544099876184708 0.01212532250862428 0.3795699028181076 3.182606880966964
Ni 7.619650715886171 5.766778455838791 0.6631907713887957 0.7775414480718544 -0.35145848929387213 -0.8603001166273249
Ni 3.1560232907785783 6.666807402627417 5.9708403012919415 0.27124881241250054 -0.2372050925642302 -0.07961549494079836
Ni 0.4708306409639777 3.2814446282277103 6.748743579160506 -0.7595920626822853 0.9103150150928709 -1.4245047941121145
Ni 0.5942959596302693 3.169819544931311 3.3936247225570733 0.32508257040350463 -0.5124157178379563 0.9400359391960715
Ni 8.719037394515222 4.3430124646105925 8.843385896567302 0.47309275186861754 -1.0315479284641396 -0.3072344864784902
Ni 5.722173046522882 0.654797740223643 0.4139991845885951 0.271805456246919 1.4748937880876276 -0.5196155780205052
Ni 4.8660429623415355 1.6926442005309779 7.137321027239232 0.5704306037898433 -0.381994195988884 0.39222307280574387
Ni 7.664702365228584 8.155017891016492 10.08913930388949 0.5208023992397547 0.5839108976644654 0.7392834330319203
Ni 3.4417656544163013 5.839208790140636 0.6269467845694952 -0.3787301805256316 0.9677370046557657 -0.0554502105485045
Ni 7.389177038864347 2.5341320338426794 6.787004942766291 0.39212228556182144 0.37090888470899985 -0.5757034221530084
Ni 0.049327186596349284 3.2337806153968085 10.86082497072211 1.458756259095817 -1.7092339003992372 -1.082077561782575
Ni 8.860067836224758 6.1083194161238845 11.262900249935843 -1.5270936100196346 -0.034079972402844536 -0.1347142356871551
Ni 9.102301797278392 6.596775608468028 8.941149649040439 0.3379188029362245 0.16593462715401744 -0.8128048992598389
Ni 5.337746560357361 4.536327362758783 1.1743884710836219 0.5281922639459227 0.6592542475924711 0.002775505862608123
Ni 4.351351575105876 4.4782510826428 4.634262173908745 0.30762786526216696 0.4639008009567043 -0.22557856406889534
Ni 2.5286841868524492 0.46424302257272027 9.234181529444438 0.030409465529792793 0.247819891965599 1.507459637838791
Ni 8.422222700219882 1.090229461418511 3.7201431982832722 -1.3350062357296493 1.2492478611159066 0.3331581483227875
P 6.4268604217096135 0.894127422438117 2.432181992120908 0.49612469398741654 -0.057920012245235734 1.0928767092806082
Ni 1.7526727807629134 4.831124680267639 11.05478691690873 0.4634624278677051 0.3044540955198756 -0.7329852587280343
P 5.567541580672211 3.42922445033811 6.1970086917247285 -0.37552427199382427 1.0082863868330376 -3.1586799378377215
Ni 1.4062975535240316 1.4117454005142616 4.974318456438993 0.8704791140428556 1.0733478952190612 -0.9737189332708133
P 6.965648770376459 1.766617781591147 12.493876604713714 1.5598250388143846 2.1007067253025173 0.6001119329043599
P 0.11392321943289234 8.59101299024482 3.9509245949900396 0.6728777519131767 -1.0093127712150232 1.2073054552458498
P 3.325901290868119 4.666053057130229 12.51655954306092 0.5617071078739165 -1.2738332637647545 -1.0389838159168947
Ni 2.4837719875183186 7.733776602664435 8.120929801325236 -0.5048232502026789 -0.595341250988594 0.38714360140030746
Ni 8.69244892626939 7.9216808404912715 6.084360045367537 -3.0854762599605374 -1.346567201094371 0.5539891704043685
Ni 6.845898399930809 3.867952769728772 3.970545211155364 0.0031303180988655767 0.9231728448921456 1.436514416978481
Ni 4.557653917358762 6.33822599644536 8.322579161635101 -0.8580182625716836 0.12296043758533663 -0.4054984497584114
Ni 6.319846485353749 4.363585989165846 7.875683720092704 0.8050262837556845 -0.24663229941540107 0.4578067722438245
Ni 1.8410654926794758 3.260071590291638 8.626660131028673 0.8102461373937273 2.044486726467524 2.4812271649593525
Ni 4.5061410842992675 7.851965133017322 12.836681911740568 0.41227382080903197 -0.5810338332269864 -0.100459171159027
Ni 2.9661760495030083 2.9424044714244793 3.5349433609503915 -0.05058311226419031 -1.806188143728799 -0.37547439259249527
Ni 1.3566254605738644 6.8575006406199 12.492734044312522 0.1645043224653941 0.45760391220439905 -0.506055065727251
Ni 0.008537129507044527 4.330564227204589 12.876726376118924 0.4924526444524681 0.4820818427411052 0.5600816564553516
Ni 2.345948895999278 5.071331967867569 2.7948115123251784 0.4628972993928544 0.9032352254279542 -0.4588565536645775
Ni 8.975327916403716 1.949046282426097 8.54737443431967 -0.7473641531575258 0.5926889009674116 0.08405964675508104
Ni 4.230513494595623 2.3086599637845815 9.434607448348306 -1.1067789211839971 -0.10214067262650797 -0.0937161960082386
Ni 0.8694652236400251 8.113963808578172 10.253086030293423 0.04596901053094664 -0.1690806289821669 0.4090105766767278
Ni 5.1376357984722105 9.382010623891098 8.892669388827724 -0.8142817409156815 -0.9810545477002781 0.3553650234371299
Ni 2.80938775685757 2.1795385527823585 11.406409183125916 -0.9934992012215341 0.29176930096335557 -0.6690853747502798
Ni 5.14758323239635 2.7471000864914608 2.5668330607848864 -0.3991951332482028 -0.2749218903887137 -1.8311401856884462
Ni 2.142835310602448 7.9537636390634265 0.8891769471440941 1.695578000178699 1.155983407933106 1.176498240057006
Ni 4.840207524140427 2.824559917758688 12.404590483077422 0.4530833986262262 0.09113326577241078 0.1154085933800077
Ni 5.414583514920927 7.428157964512869 10.322642764757928 -0.26357921168238474 -0.5243798321783679 0.6085700909740422
Ni 6.458785176939048 2.1174275190934067 9.380942436827654 0.9280777383929306 0.2932392006406627 -0.12850425022170125
Ni 6.575170153851485 6.330537652655394 2.61159837277696 -2.1046551684273043 -2.659048259138311 -0.4480594630490735
Ni 4.710054183076915 7.7531043738123655 4.441456733124145 0.8473911218751405 -1.2121519847048736 -0.5195986087396406
Ni 1.8518031433172157 4.659684840085337 5.038623503591587 -0.24126177913210706 -0.1804071097385796 0.5488978719243902
Ni 7.129948770134706 3.630264878945142 13.50339240133841 -0.4654213513662888 -0.5768678747747549 -0.32917885196006536
P 2.3621250969600287 5.486558312529049 8.941952881088143 1.1705893307717388 0.3481762189981746 0.4109324762897891
Ni 6.485420128520974 0.2503109055333469 5.369563474247058 0.5408480050367203 -2.8033113148561655 1.6996593693369246
P 0.19201522407099975 0.9517277131924963 10.261440015456257 0.9685317326429191 -1.0530855454255992 1.4212536341646684
Ni 1.033826581401916 5.981670918601869 0.8856228312663383 -1.5861752466731391 -1.5497308878031761 1.1439781559421136
P 3.0647393153569626 1.5394816081008802 1.5356969348760976 0.7209666370006035 0.7838676474001984 1.8763797742525363
P 0.3741880665574323 8.6551135107186 0.11147354762073267 -0.9782075651697861 0.17624346527919324 0.43590354441282986
P 5.049949633264278 8.012667322561885 6.836846235059842 2.8219464134588494 -2.5894261279647983 0.9127403367049121
Ni 4.043427363484043 4.0732882585909005 7.480915621312964 -1.3072776594661293 1.606549439454117 1.747909462592564
