# total energy = -340897.88397045113 ev
CRYSTAL
PRIMVEC
9.01337861213603 0.00000000000000 0.00000000000000
0.00000000000000 9.01337861213603 0.00000000000000
0.00000000000000 0.00000000000000 13.19199068514165
PRIMCOORD
 96 1
Ni 6.537358395753522 1.736084869360574 11.267714659711476 -0.9493122222916749 1.5797521167556146 1.1215380817710427
Ni 4.4451369131073015 0.17761403236388035 6.0244791294754325 0.5492285157909315 0.646961289157731 -0.7767714026750494
Ni 2.656431939769161 1.5027194853106984 4.54456168922168 0.3394470666552928 0.3234568618746236 1.1187224666991187
Ni 3.4587037511667655 4.321248024931274 4.766226806575207 -0.26180823582489104 -0.35744247479144886 0.5291402296814887
Ni 5.150650105765752 4.589999933170242 2.7517303911831403 -0.35396840019991943 -0.3401998856609173 -0.4578185993183663
Ni 7.19128802296771 6.1392825320726 2.6141114234612015 -0.11800232224911292 0.26799379581031263 -0.23605298123765797
Ni 5.174355291353454 4.613263463208971 11.477519973568315 -0.16068263472645877 -0.30389179525850246 -0.050539403510448444
Ni 5.651820993306799 7.885327184731429 12.247787080408955 -0.1023702721388108 -0.11251404544103204 0.5628219382046501
Ni 2.003583917981029 6.403419590493735 0.4794098877066784 -0.8608210221278014 0.3501353996070744 -1.013919673859415
Ni 2.872383476459554 1.6793456513854488 0.3259490058444571 -0.18495256301741697 -0.47828380915125374 0.2623913620218707
Ni 0.5258783608235582 0.10347178308353329 4.5957072044683915 -0.6922870096777238 -0.11197488510811036 0.21024527614593472
Ni 8.477713463203097 2.4349642154058886 1.3191953806312835 0.5269997862997181 0.29741338662301037 0.28381353645138857
Ni 6.911963421689054 0.6211867269539428 4.893542581276119 0.050030067974197706 0.4071529546426988 -0.1250510015657782
Ni 0.5734599861914194 7.423283373477915 2.347936440149809 0.6864837727323854 0.055365878364814325 0.053262973089198584
Ni 7.453712539464257 4.019155629434165 3.8451884100318 1.0145858466885043 -0.945253735951585 -0.15051032217914725
Ni 7.690908609398076 4.024870111435155 12.566426236248992 0.2175477233446189 -0.6059737910017757 0.3153910541473536
Ni 7.805621878209739 8.435080182659437 7.117566698465668 -0.6799953367945645 1.6407957622314968 -0.6282117764643697
Ni 6.842776727935748 0.735767499100914 0.3794091567029261 -0.5528501717039188 -0.8159377884618658 0.49579944943751386
Ni 1.9273307354441649 6.489046686723074 9.174422387693461 0.17224488564276141 -0.09575816613893186 0.20022825822956483
Ni 0.18807946619881566 5.006273808144536 1.413178780114751 -0.444999336066511 -0.9782813558305151 -0.6060892335337175
Ni 6.43293840524648 1.9761832471876404 7.04349385220016 0.06079219158670821 0.123633038172329 -0.8607426034813822
Ni 3.53358690016396 4.249997267489913 0.6309401038833921 0.08307234314114725 0.8838758470647358 -0.36692470325027127
Ni 5.884816828836105 5.644484103166726 4.824548773823793 -0.8241064403155872 0.5286275517111283 -0.10352546878917654
Ni 5.4708684055278285 2.8946194813435313 9.23467051393828 -0.23026799912476473 -0.2533539344099508 -0.029396193773930015
P 0.3442939352082016 5.577667927972191 12.336423743736292 -0.5647620926501564 0.3663860571379819 0.556901458955157
P 4.0657277564043754 6.20184439259132 12.497590162921298 -0.657484557286558 -0.13830940923758114 0.8645545210283045
P 2.3266864988792517 8.460326655979266 1.3846316075697442 0.5684919920062338 -0.14832976958806068 -0.6357433089547244
P 6.167088804900759 7.631014708930292 5.800359669142615 0.22605087571962357 0.40979219203775874 1.0258876448545686
P 4.792269161221042 0.9983037814914877 12.485268874442824 0.2533199958482218 0.24674439951323313 0.3515191673284785
P 3.8814402185617367 6.051915853783022 8.218016395055917 0.082757897224522 1.0458039241625214 0.2823534069660944
P 4.718765059142068 0.9644044647632198 3.7865500731960937 -0.31829922893308404 -0.4323250830329522 -0.2650809930388918
P 0.1409683391912884 5.653163986710816 3.5020905501572437 0.34215212429128167 -0.7472029449893131 1.5081029278497446
Ni 1.3647246597032054 1.0093992504871 2.499697398817414 -0.47520517022592995 1.3264213222741157 -0.484020968745347
Ni 1.6486190439069415 6.422870461405621 4.900784830941411 0.6388795405908609 0.509888066320096 -0.13257996295297167
Ni 5.864437579933523 5.452715461127209 9.199329056641938 0.5015818604472458 0.6875770057965642 0.3206019089243317
Ni 8.47384672380495 2.404661236719253 10.078733756322931 0.9953889620450793 -0.6460377489021971 0.27926936872413194
Ni 2.418830267800571 4.973266815892763 6.971531939191168 -1.2021123410806844 -0.26983342012221273 0.09038224653899918
Ni 0.5746073892808925 0.047327448092738256 9.23715009437751 0.16975065846599796 0.15467139553537235 -0.22669596550279023
Ni 1.3338538381678913 1.2600883481109535 11.29886038929258 0.6093766460357377 -0.5591223778658757 0.5962064272023667
Ni 3.9695640206495524 6.804037226925886 1.5615885646372965 1.2199231440098601 0.7354946554134494 0.859504617309223
Ni 5.460007284374529 7.7707671433551235 8.03073010616954 0.11411532848988089 0.06772465704048337 0.2315334961007496
Ni 5.280929479334054 2.7099894351159755 4.771741191572377 0.2063107169782189 0.9197465928194158 0.8047509186071109
Ni 0.8312182766123959 7.465456971715502 7.092291382334477 0.6017960054750023 -0.7214160658331963 -0.2979193797251514
Ni 5.0180993608027356 4.603880536137946 7.13172220947916 -0.22802882538160085 -1.3028311936590016 -1.080013480164695
Ni 8.235406807631168 7.109320358429855 9.05865004690212 -0.3823207260903674 -0.2113300245696812 0.811599308987512
Ni 4.719287835097994 0.37419131186006666 10.239755060113277 -0.8897022239385258 -0.7688457200700693 0.410948417129389
Ni 8.114933989925763 7.137955862084656 4.751412417589676 -0.07844564300241329 0.3202758930434807 0.44952344918910975
Ni 7.0841459921384295 6.038242558521979 6.954276727294174 0.48393895055450203 -0.09597516724574438 0.6782996942596964
Ni 2.2691541035916862 5.24295611550098 2.762349953791288 -0.5230731975518025 -0.4266809973732974 -1.0506710224468356
Ni 2.335907185136369 5.3352711386147575 11.458378261540709 0.5627790007818566 -0.7330433656594796 -1.1375172308081183
Ni 1.0406666606786343 3.3849022075956254 3.909881934577703 -0.5782228461407525 0.23605812344398056 -1.1674330445309444
Ni 3.7489345404914727 2.60766054843264 2.58684415067036 -0.13797310894408496 0.1257968785928672 0.006270663500060169
Ni 1.207215869533974 3.0723452796014366 8.436805343313994 -1.0720034653760246 1.2733347268617812 -1.3340135327990768
Ni 3.6629919760128673 2.45413567158271 6.860533985018004 0.1892182802723064 0.6942737010904495 0.01814041835445263
Ni 3.8499745140420925 6.842488299822135 6.086678652176425 0.39172222190992534 -0.2845411586460325 -0.5200989454148269
Ni 0.8823899306569039 7.478769731834526 11.350361932992035 -0.4004822274907425 -0.2732948963082519 0.03479293930946911
P 0.29198659546633604 5.512906803087159 8.101531096021235 -0.04692623223789338 -0.70577167442772 -1.6298184372843867
P 8.54427726379822 1.5508959936628897 7.974875100630216 -0.35232983615523195 0.08764993520950067 -0.6802997554088606
P 1.8605235736281795 3.22040804904979 10.531654225807673 0.2641019169550742 0.4028350439936353 -0.3957832793531765
P 3.892292326336487 6.187603254481599 3.745312063652044 0.6367717502192388 0.3940053615171472 0.8409361102784162
P 6.9767876402239395 3.9147626790627754 10.449771287028193 -0.16045226388320755 0.5870970087019308 -0.566169000300012
P 6.365238918954001 7.688745398545968 10.129931549165235 -0.6241610034337637 -0.3364278202129948 -0.6672133545385477
P 2.240140038037766 8.491008196565021 5.757894938777849 0.8321282821787992 -0.8141099912245076 -0.3523090102196255
P 7.011182692772483 4.165974552642555 1.6076811798686221 -0.7077339403604134 -0.81527470095657 -0.8517925933769459
Ni 5.425089455870059 2.890617541267128 0.22286029134931815 0.3661101777687759 0.11802134841250643 0.2525962303083198
Ni 1.508064418791119 1.0776936197639106 6.933037602077877 -0.7605701103248385 0.5746981208169457 0.4394346974945399
Ni 6.890556647631719 0.7212325248504475 9.135585542195253 0.029119543073775657 -1.0264229485327483 -0.4979023547131296
Ni 2.8012589063179 1.6307545276199364 9.13955593544673 0.9155125001334102 -1.1869842271899946 0.7764595278615853
Ni 6.179797668656903 2.074230779059509 2.4952916593819507 1.4411038361213762 0.13278436565429388 0.16568882969179852
Ni 4.123990235354528 6.864643184299156 10.382413407782776 0.359210108214833 0.3143322738655361 -0.41107491540492425
Ni 8.011036775374649 7.158470311665496 0.24736586495229995 -0.2822742169887268 -0.24534160562843552 0.09558898755091925
Ni 7.683788040343216 3.859168160163558 8.101795188012764 0.3357426212205121 0.08516522111443398 0.02107841793685402
Ni 3.180370621528661 8.470791188476346 12.393254898172632 -0.2147292800592173 -0.5369417280037785 0.12374513827016108
Ni 0.1152117086455032 4.759784944925196 10.123401356405429 0.3517878476088328 0.06327356324766523 0.7978238524699743
Ni 8.616050797195507 2.395828125739805 5.832548246622006 -0.2936618900003781 -0.055345566649840174 -0.17163090620784635
Ni 3.8507316378403305 2.6307257841432583 11.332157612333678 -0.22477792254447096 0.04744816617963441 -0.11221965412906482
Ni 1.3451025345988614 3.5054020654366815 12.730759055318774 -1.0133925977113516 -0.19964127537784326 -0.10801178669530431
Ni 3.0784022699873437 8.461705702897486 7.973978269464446 -0.027833991493132707 -0.4384553643004062 0.5242682463011681
Ni 5.593459367192591 7.9468795468524975 3.74908416257541 -1.253003471503597 -0.36520129280126135 -1.035597930163797
Ni 2.9301321928323305 8.318600291651883 3.550888080291562 0.7007220278189545 -0.7835976815682634 0.033882768790373906
Ni 3.44064094055165 4.10094302640101 9.119688646445814 -0.318840960369167 0.28541764771371486 0.776423018196695
Ni 7.370347801251082 6.0878882475778955 11.227135528139465 -0.09149064911182954 -0.00999079266412473 0.5136272216475541
Ni 0.5264453023343819 -0.10538983003907049 0.1562487198478777 0.849295280876389 -0.04713654847648656 0.7102343381847639
Ni 4.628261725116931 0.30478108631870937 1.5816144891007011 -0.567902438051351 -0.1983618944447874 -0.12190577106857715
Ni 5.900373920214194 5.6802401758763885 0.4298426150441517 0.1970480607293703 0.09876352862415894 -0.13134403366334155
Ni 7.818096394123572 8.811370710383905 11.283241105602492 1.3652069276827454 -0.894073356423028 0.0913986036186555
Ni 0.0016557576397189032 4.900871359375495 5.918652150576665 0.050384623100139025 -0.3884705477418471 -0.05370160328851396
Ni 7.709800650839834 8.725383079012547 2.5927407029180687 0.18875856702706847 1.3154087732136959 0.3725834441979454
P 8.38483961061919 1.8165743398161525 3.511562709675919 -0.5246078890287739 -0.9661051254792975 0.5379022921448349
P 1.870239995705572 3.1916463580952823 1.687202613467882 -0.6055392745675184 0.09516552686025545 -0.005036791092959067
P 4.812188727817551 1.013446257456255 8.132453293814287 -0.3948008608352491 0.06772208593732208 -0.24798701367108258
P 8.508782579066521 1.5168344361207136 12.474543855305635 -0.011030032561916488 1.7296595152434406 -0.8239912548939615
P 6.160220610445311 7.726069799123408 1.4562771509916148 0.29900875613458827 -0.21126214744622326 -0.715349290813826
P 1.7332366417386293 3.0997910172875778 5.917900434805556 0.8237829955378974 0.3400268504181628 0.6191944034571077
P 6.783811205458661 4.007167835962058 5.957410579681484 0.6590575582006327 -0.738702877938102 0.6308525565213264
P 2.4905136674123534 8.420812004414064 10.231325748492889 -0.12224181425175723 1.1569781677462074 -0.3417363769101018
