# total energy = -381164.75874210784 ev
CRYSTAL
PRIMVEC
9.24139532183979 0.00000000000000 0.00000000000000

0.00000000000000 9.24139532183979 0.00000000000000

0.00000000000000 0.00000000000000 13.52571618807182

PRIMCOORD
 96 1
Ni 6.50450055511582 2.768648067339153 4.328472664616628 -0.9262368285294501 -2.138256401421518 -1.7255596341424542
Ni 8.523652989870191 3.7861164362073922 4.099658492165771 0.31948322193885625 1.0191855502440448 0.35609187430082545
Ni 3.53982401303636 8.439999880623102 9.19225222139264 -1.0175647268111703 1.2320250694797168 1.1974082507367958
Ni 4.386705468118471 3.8492166825550638 7.6813894599638175 -1.0872714472786889 -0.5398915546607218 -1.6340085641063342
Ni 6.555411401209746 4.037306798828375 8.244045337044303 -0.21663601016362694 0.9038450910978111 0.2054167444090398
Ni 8.473804904222954 9.083284158305453 0.7987263930334225 -1.200117679248159 -0.38034920418629337 0.290622588953422
Ni 5.794502645567059 2.3193961230363738 10.509711064314713 0.5037703834581324 0.8573698303544073 -0.7353532447395789
Ni 3.908638853617678 1.9902545919996595 13.004123501851105 -1.3089103099735457 2.638218209766837 0.49460594335004493
Ni 3.5104641005222192 0.30509449661649196 5.356873603992966 0.5350799922046914 -1.2907822329142673 1.243474191856923
Ni 3.568952890670786 1.521919166632448 10.559282832245813 -0.6238059340871901 1.1994569057357085 -1.6102055481494657
Ni 3.777595869843515 3.8472944723558378 9.786491490669642 -0.7459446471021799 -1.0902022477722386 2.443021857534225
Ni 5.341692764116674 6.013033917591575 2.1561210011234566 -1.6766389971823512 -2.0166707326965203 -0.19023438024164654
Ni 8.372260453890759 6.4581734410354334 11.530619080472144 -0.42094923709584275 -2.0133784350984936 -0.671378798770147
Ni 6.843604310165832 4.538652487809219 0.5051392817057591 -1.0127904453509784 0.19173873270131495 0.34297641996478995
Ni 3.7947756234990977 9.240221531398038 0.6644516933618102 1.6836100291835454 -2.312156563279515 -0.20015395334820368
Ni 9.084199056429124 1.553922118170525 12.583974559276223 1.798060372415342 -1.2112950360212171 -1.6751300167369925
Ni 4.9561879638247675 6.928209283117345 8.375421011045256 2.350091133541759 1.0665085036997246 -1.3572331654486496
Ni 9.090205963301704 6.667324696943534 0.6033318780030524 1.6046990165089396 -0.5662039673030055 -2.87442494297354
Ni 9.068155994381737 8.045004167472516 9.409366787534745 0.6878086621913961 0.9458219497502293 0.7402501678205639
Ni 1.7495347301273458 1.579382161915082 4.58923526437395 1.2099197529402452 3.320131332409405 -2.3577000562372685
Ni 8.749216963633222 1.5563988120810663 4.593725658296084 -0.9196900285498678 -0.12929537866442894 0.14244451445187728
Ni 5.14662539447598 9.06500467862243 7.046330023999307 0.6017481829562024 -1.1652401506446834 0.029405706855626778
Ni 5.078091207757419 7.308797661168923 4.499194502772509 -0.1006869708991169 0.5434620456207995 -0.021919940001542893
Ni 1.4039527570501353 5.592513470930113 6.729179203219785 0.23960547447560668 1.0013408087531401 -1.1896936557013575
P 7.993585044643218 4.999899763066784 6.641519025018924 0.26386177591981014 0.6886237018935237 0.11733949185413341
Ni 3.4651535399125772 3.1804169127570234 5.262206599960118 -0.8302629468352863 -0.4335784958240791 2.417623472065778
P 0.5249657709433536 1.4726070819061479 2.1380374390184294 0.2477121627431411 -1.5123614460157826 1.7104598023865378
Ni 2.78299071267184 5.808605014624844 3.0485209482069537 0.1289459657448102 1.3612299453128685 0.03269080536480177
P 5.864090351337119 0.474557656747687 4.966846064895765 0.8036142338995064 -1.3055017985126292 -1.5346390264670604
P 0.9877665247321202 4.616649863200893 11.266597040631808 -0.2799386268770147 1.4808906291010109 -0.5001788094521321
P 4.813408408161099 3.7046720204103747 12.15947014714896 -0.12432157959892136 0.5569055727202151 -0.4594569062527377
Ni 1.4197463014274303 3.375659868906301 6.547434228882957 -1.1199288283023938 -1.645049138191212 -1.622216970788045
Ni 6.0331709177075075 5.446185219514027 11.977914621413499 0.8743838484139006 -0.05857358666883461 -0.20533524043882703
Ni 6.998148161904571 2.304397338645297 12.573532706852639 -2.461394703614458 0.318948946701941 0.20631585918454143
Ni 4.3370514517701935 5.924214868434066 13.50337139412414 -0.05421530970013889 1.3176772575328985 0.9633126503358248
Ni 6.408602597243853 6.579633097999032 6.4548770353716645 0.4229102174769555 0.2789839762732292 0.1324182405641268
Ni 1.3632906182203526 2.714743009204125 0.4820441109899613 0.10877591855483848 1.5469898347229294 0.13920338180676026
Ni 4.928454536863819 0.45115659585114704 11.97416723566453 2.5277651606198916 -3.1803412248612384 -0.5374042694624938
Ni 1.5423518913944139 4.26225159911377 4.255663408483827 -1.1722528345170908 0.5874034841987561 1.9372017906359154
Ni 6.14544462785365 7.533354322856399 10.814459008611635 0.058938426207421075 -0.44685978631401746 -0.3252604907422656
Ni 6.982585652406992 7.051563426094604 0.36683810615047935 -2.3204802526538617 0.1655394485981278 -1.9104036966064646
Ni 3.2322611397649963 5.695120681708994 11.517134036612958 -0.6959834846927045 -1.3954721543251902 -1.1518596155727197
Ni 5.389489260032046 5.328634672715201 9.719566230853411 0.5088804509911881 -0.00016377927137391148 1.1327460346717202
Ni 0.6852891912330362 5.668560911936996 8.992328498580344 -0.24348372648409036 -0.45516547796623547 1.5279117350455558
Ni 2.473801353847285 0.24593200875867693 11.886168822399764 -0.7965699254582153 -1.1678307941899952 0.5730523576834067
Ni 2.8097168275572333 1.4386449545880908 7.345193971979654 -1.6178905754985493 -0.26992058051938034 -0.6046049356787072
Ni 7.376370742787871 2.9914858295215514 6.444218934300667 2.6720403005226046 -1.0530081552204444 -0.9167155193025761
Ni 5.619563034647108 1.86056085192303 1.5423241672088484 -0.5759847008388531 0.32054277355162214 -0.614494169767961
Ni 8.20169202289501 8.60325836802468 5.282265048216946 -3.2847606662195945 0.1421773768334197 1.3049071023514238
Ni 7.16872583429551 5.753221333259641 3.7694006005902754 -1.4793358830193812 -0.33273700162496894 -0.09525525836058434
Ni 1.8124316657808688 2.690715381713799 11.57114167423458 0.08015131283961034 0.6264608552115339 -0.004634413448217824
Ni 3.071100449071228 5.755892096469143 8.483045375272022 -1.0837400370866626 -0.395870439750344 0.7675149170737878
Ni 7.350005042314833 8.507914893864028 7.810533337026726 -1.4035703579522922 0.8618535771573738 0.22974169430764949
Ni 6.27304981261766 7.960214366617231 2.328925849754845 -1.2700807387008577 1.6043609164432304 0.6290525271981101
Ni 8.267832688259727 2.3334522851182147 1.026826205636202 -1.8809887337794573 1.3805183612288352 1.3913537612814424
Ni 1.0864369011606636 9.176095490184432 5.651382082420932 0.22943907546556613 -2.4670449599216995 2.6270120566383723
P 6.4702242203613505 3.704154502279814 2.3980422443702865 0.155596478452803 0.7937687085639943 0.6986070383584807
Ni 3.8150420031476693 3.925319571933078 1.1477979169338435 1.9724616422794736 0.21673191231154285 -0.9311062408066093
P 4.354064860312382 1.599075575061961 8.651399567980585 1.5987345713953884 1.0483711706690655 -0.34664821238942234
Ni 9.136283559712 6.726950178700298 4.3724173470173975 2.0641438385768187 -2.1176222701109335 1.261677088018195
P 4.304651120239008 7.558583331721241 11.842319326369438 -1.2551158898609094 -0.005649999196925754 0.029969549778896768
P 8.153350284663512 2.0963827743453924 10.608448902928133 0.4257510293598603 0.459531468244415 -0.6367360118852969
P 3.382461535765101 7.3213105102542695 1.569970725055025 1.3251015750214274 -0.8725223697251296 -0.12712665314788427
Ni 7.645360032542072 0.09176428180411221 11.075870354311194 -0.3758448885580366 0.4128757160590889 -0.08248536028942569
Ni 7.587056070297277 6.475122159811302 9.07517390988795 -2.080942141081081 -2.1041373482506214 0.230270570227926
Ni 2.810308276849303 8.909185514347664 3.2828134197256054 -0.04085277235030384 -1.2163745074266537 -0.8587152886387082
Ni 7.208778041042846 0.7077698091687928 2.7497919245963605 0.8544624268996253 0.8483678839661131 1.6405252821789298
Ni 3.238314253613521 7.868706071459843 6.949540271491642 -2.2675777482278754 -0.6892158269515679 0.13701845834029952
Ni 5.779550068151925 4.455849586919479 5.568848106131179 -0.4769512063827593 0.9517797099955608 0.8677907685774151
Ni 8.76585147497268 7.016520055539482 7.158836617304203 1.5714518244200355 -0.9664576237227096 -1.3428229035605908
Ni 1.7470487948216158 3.4042342628294113 8.669618978594885 1.00426029639278 -0.0228049137096575 1.7959474398373974
Ni 8.932769554868937 1.075171640425776 7.68862547239648 1.188269264550005 -0.16133929447385115 -0.4982738791199354
Ni 1.3461663129359007 7.5713641812670565 1.9478920364551768 0.6253326551443619 -0.9741277386734578 -1.0444582087679044
Ni 3.899074009597491 5.7772582021451555 6.136535922891852 -0.38224847809153517 -0.5088133451986786 -0.5884175272855673
Ni 5.756622166689041 0.14058287602734185 9.451323645830449 -0.3972698912010319 -1.4354414956292763 1.2041777082501455
Ni 8.906440819976654 4.819720281074904 1.8411881151891951 -0.12149568011435205 -1.051561909692221 1.037212840059401
Ni 2.0989611236030083 7.4938843240059425 13.09471874716386 1.2858580561397726 -1.3639396309345477 0.8166988349976063
Ni 8.698777428693916 4.056528900820636 12.858817348742875 1.8228550628615185 0.7650235181105018 -1.1225760361172539
Ni 1.8342875654018769 5.07585479012178 0.47499107818203173 -0.44235444224449627 0.6833917640706231 -0.23043126417550636
Ni 6.56335900107193 1.4554365696457534 7.932900498997843 1.5406392099145532 1.8514182192111923 1.1016086898369672
Ni 1.8171540187222368 7.469570213264771 10.662213491856296 0.21200776736299615 -0.47696097657477216 -0.9295304116790573
Ni 8.711576761030107 3.3724808289614265 8.5580587041573 0.48026767235050183 -0.5798539539862724 -0.38658078691830194
Ni 5.20240645583429 1.965653998007641 6.2674513754124135 -1.1264044087244085 1.83526217827662 -0.6223203506805992
Ni 0.960809374967012 0.954857916465562 10.05639660268703 -0.36294643532881365 -0.04023467915033071 -0.15458269247630796
Ni 7.580143506696214 4.217098142222334 10.418182438087909 0.1772701067714947 0.24538582860280966 0.8963079021805015
Ni 4.1872946427391415 1.5121972188940547 3.705410407885943 1.8607510665763438 1.378058586834433 -1.0433446639887516
Ni 3.1053767838256974 1.7641084103397475 1.673875427718384 -0.9046542172626678 0.6066443347062391 2.181907562452565
Ni 0.1508990454763615 8.230442003326704 12.099483326840325 0.6268303227358107 2.086707839920264 1.1136023718637338
P 1.5185090918078594 8.667633926908376 8.291250383667606 -0.05237260006444528 0.8444310108055522 -0.2972778894864106
Ni 0.25955567354569187 8.692936866934728 3.4026373497408238 -0.7112185564749041 3.3427310720867918 -0.5001330438158613
P 2.1785572603623082 7.229441800684527 5.133117247128822 0.08262702807361254 -0.5983335008476985 -0.687712245822848
Ni 4.382057046338613 4.206461296360271 3.65110427319973 1.6800467373123193 0.5070583101807848 -1.701595924238005
P 2.381258022428775 3.5975088018035204 2.590918479211767 0.03131655072509445 -0.08737277028871404 -1.0892907917015628
P 8.171426453652387 7.165334242261299 2.405007483923925 0.9064768722937032 -0.38253001388769603 0.7422561425069991
P 6.066670975266135 9.27133730899801 0.2907315202143901 1.1334212063618738 0.11333577001137901 0.6428223272886929
Ni 1.467552038737991 0.38680598873445926 0.4681949561603449 -0.13655103178557773 -0.5205913116702131 0.22364509449160838
