# total energy = -381167.0394424774 ev
CRYSTAL
PRIMVEC
9.22678421667317 0.00000000000000 0.00000000000000
0.00000000000000 9.22678421667317 0.00000000000000
0.00000000000000 0.00000000000000 13.50433135874046
PRIMCOORD
 96 1
Ni 0.2536498303385755 4.269758918975511 8.86485055378138 0.2673865012436169 0.32766704330122925 0.6333802080391866
Ni 2.1916841556558797 3.3259142686348766 2.1168171069792328 -1.51468006684663 0.0556237600118913 0.8873851457695751
Ni 7.840330594187824 6.881252523336579 8.66192127819076 -0.7194779682702189 -0.3630863033407876 -3.2103961352650905
Ni 1.3160715735623472 0.6119867528112434 7.114797191172054 0.8053355874659872 0.5631194148404108 0.43759995827864634
Ni 1.4540489026451267 5.544125428511232 5.08082922377421 0.41522956100324615 0.018193383079575118 0.8631064757278684
Ni 6.2181789124495355 1.961734242896683 7.283844792954669 -1.8253161228075017 1.6030689371046842 0.5542653068838905
Ni 7.380947468577725 4.155411383913127 7.4863422550504986 -0.10466858125468426 0.6635832139851281 0.33168233510820944
Ni 2.733185659548495 3.3153865080033764 10.643235679576582 -0.8411790795271578 0.47356043553365534 0.38897474107177527
Ni 7.181482850407901 4.464287207664306 3.605764475037613 -1.0184638415866718 1.056132045561407 0.49626301933749367
Ni 4.473975330944827 8.172051935312881 4.071920060160001 1.9783888063971864 1.5229047687492674 -3.2270046903560488
Ni 5.011121792753246 0.5314203196104265 5.836261097912077 -0.6454510231607916 -0.2972310954088752 0.6530951699696107
Ni 5.576197729961797 3.184264679489576 5.122152298940061 -0.07314608516637079 0.8171852877157215 0.5130024435793618
Ni 0.4230766529467431 1.4817938423637247 5.161112394703872 -0.7596812799619821 -0.9409090858296442 1.1737011369278432
Ni 2.775453557403799 8.92312138593929 5.1866622824906266 -1.4006511274229685 0.5838386496656333 1.7385169656340704
Ni 3.894330301679188 1.4670771217614087 4.049800690692959 0.7462835184988373 1.2120835933607834 -0.5456379702261959
Ni 2.697293469490182 5.781456768531779 7.10264367118624 -0.49878758553156033 0.3612160829012682 0.49559067586081745
Ni 6.99391155691293 6.298608789246017 12.564524314473108 -0.5936147552157907 -0.1524946995990277 0.7399722315688289
Ni 3.077224757415928 5.623328143025515 2.710251565047481 -0.4093671886851982 0.37676122972471887 0.6903653671749788
Ni 5.839843858169055 4.763207331396739 1.414848910495321 1.1221147802101192 -0.47134285905704626 -0.023959339029074867
Ni 3.3608376463651375 4.132602773675557 5.0154814482294805 -1.0614794259162494 -1.126741223238537 0.4850787205859001
Ni 4.738295014389684 1.3292012873034726 12.228725657464564 2.1856973685123005 0.6921607685125047 0.3947802920099588
Ni 0.8738973229336767 7.692369884734069 5.919191433193341 -0.616137618908655 -0.32730940285149435 -1.8983081988945114
Ni 8.417059959685231 6.704402752938718 10.689555980998367 1.9874352328701708 -0.809947632316702 1.9343270401912818
Ni 7.843606102535048 3.4141223244080057 1.815049597680734 0.37426057479005226 0.9755786121873715 1.2008427303396416
P 2.973294261576124 1.7296990769361547 0.7118980615072423 -1.0904632147431093 -1.986915870031591 -0.08155693493788535
Ni 0.7393588162762786 1.2622332884748775 1.5059357229003767 1.7315161088362052 -0.82154870689074 -2.8525304568932937
P 1.3658777540083042 6.026732369642353 10.550798988661107 -0.0812784844655181 -0.19903243814925076 -0.9132031352739434
Ni 1.4076843126597736 6.769156323588907 1.6556043100867264 -0.9499763382382348 1.6093424288182219 -1.3718953954465147
P 8.465703565337526 9.165795033940238 6.312383455194103 -0.8403069613348496 -0.8942096248905761 0.05593177817061335
P 1.10709414100946 4.831014967576313 0.7234472271360316 -0.31903970664353437 0.07671117680980982 1.1651622462188966
P 2.962009904650336 1.9367942455373979 6.620876367406098 1.341157857153342 -0.08472787646669924 -1.4215508536901131
Ni 5.138386825522992 1.1222998811678402 1.240702587831928 -2.0521198175327497 0.900661808273823 0.32059599538706074
Ni 0.003184163184864732 4.088388024380072 11.191242066243262 1.9453192775367272 -0.05656504087923807 -1.2340667825000942
Ni 4.318531699604879 3.7202116593680254 3.0086033188807906 1.0900322978532775 -0.5947025889633307 -0.6314819625752092
Ni -0.010210359259261989 8.295690841940488 3.6417267886549087 1.0537064668390497 1.4369515045158994 -0.14390747215064895
Ni 1.2385573605340983 8.064707529364702 11.308499729003431 0.14922117105407848 0.8287953611508243 -1.0787909206115034
Ni 1.718156370056219 1.0292477637544506 3.379215554889083 0.5750056247550356 0.04865375645196137 1.2880977441035688
Ni 0.3492060969503782 6.303259088420666 12.789384733135604 -0.8545639854744961 1.2439477890592319 -0.19299574503686762
Ni 2.445143914242476 8.179977742834755 13.252232516166499 -0.22813115528742 0.19540692558152153 0.35832179207260867
Ni 3.714075847957028 3.608438397063037 0.2889247485421581 0.8298531129913773 0.4555771115823573 -0.23581361153334227
Ni 2.1890452954099473 2.5597497992590066 8.51688453661091 1.0125425910062305 0.9456519998312681 -1.0037846423079424
Ni 8.036953362862027 3.469501482436282 5.40304236390824 0.2619373052035876 -0.5887245170030247 -0.4277737162168439
Ni 2.64084400450901 1.4380035251357675 11.963757331099115 -2.825352096706289 -0.9833708545382807 0.7808687126728745
Ni 8.357999314810357 1.720693735677308 7.675483947195325 2.311121180036465 -0.5713019506512033 -1.2635984734106238
Ni 6.102013700924043 2.2241901159580486 2.9844706651282156 0.8982724821060402 -0.3100902107597305 0.4308734381880902
Ni 3.667176104495227 5.222230612427848 9.23183112757709 -0.6248107212026207 -0.9714849017339721 0.5451497177358676
Ni 6.018631253223021 0.842268829797201 9.732720018677757 -0.276156277016447 0.4755227014663488 0.3949384148543779
Ni 6.477331596811447 8.900303548917643 7.590663043856747 1.97181835226852 0.11368929669605582 -1.6830955514409724
Ni 5.678190601145497 4.235988889254836 9.477447197020094 -0.5360426132282768 -0.24170786553059015 -3.597539222444766
Ni 0.05232047910685443 1.3559405075577122 11.628484600782942 0.6978506198084303 0.11674916656830216 -0.1683676620755423
Ni 1.2249755343732147 3.0324102671554587 13.135217517827543 0.16127296001229 -0.9628457380017353 0.2118686706819706
Ni 0.7787064369713108 3.522915335456224 6.537433022930172 1.4310634211662387 0.17280770012476693 0.8199361109879814
Ni 6.9398702825757725 4.12086630433001 11.15978980468265 1.90740347632756 1.5826353518406808 2.3444722446930846
Ni 8.204188824251982 1.8695494431865018 0.44070442392525394 -0.5401422372189472 -1.944043496148097 -1.7602132196605815
Ni 8.268158118255654 5.957429994442355 5.451563253332314 -0.2739620975786056 -0.12121208743566221 -0.02007234526984285
Ni 1.7101290679095014 0.5624296955353567 9.584996437574775 -0.15473207356997867 -1.6911171361938684 0.6127962132402479
P 0.16063185202626942 5.576557574540788 7.249611578673345 0.6228371424160177 1.652918770747276 -0.6990924626353315
Ni 7.734573195100836 6.745858693795272 3.2006209996223194 -2.027103755104386 -0.8873085268953687 0.8143141368155136
P 8.098699001903217 8.00675409857903 1.52532765499435 -0.0160789078397336 1.3784501658458972 -0.4703262448670739
Ni 6.65473497425391 0.21180359651557634 13.569016616549806 0.9796167868124871 -2.2066806556321867 -0.44222305887295454
P 6.283412275871712 6.277174969835872 10.38889568578907 -0.6413454856328503 -0.3099140901931824 0.16485090717153544
P 6.054689525394715 5.560419929190662 5.474737244219321 -0.2922776080583418 -0.6346117664534425 -0.2152113619019584
P 2.1980321831006404 7.819561103231202 3.362619338370346 -0.53900838072482 -0.7246057764150876 1.5895009686122625
Ni 7.168786795518381 1.344822232745304 5.072213252803399 -0.4597718663899953 -1.5101014463370122 0.18076423596768224
Ni 0.40049871231108974 5.243812060383219 3.2194187268217536 -0.7428562379848432 -1.6769740119242666 -1.5466090543447428
Ni 5.004377013593189 7.4854038911099 1.1985131176412762 0.712636005647721 -0.31989434133434586 3.0250460796989387
Ni 3.155043454318708 9.046889467543972 1.9840021635873597 1.0762514420191012 0.3019938069048412 -1.3772229783070151
Ni 8.511127023347056 1.5203710265883537 3.1803912755341823 -0.9146331828522506 0.3088833349358229 -0.4290896068147901
Ni 4.095354246357971 0.34267814721612205 8.36724270709838 -1.4138935942551716 1.8924465979074117 -0.8387226475668653
Ni 5.270717362750839 5.969424813742049 3.19593471598977 0.8773727558388954 0.8651661864703747 1.2362563339522452
Ni 5.743008759284224 5.935922360759599 7.7211150078465804 -0.8308980093161238 -0.15763819147318012 -1.514246321743321
Ni 8.234009790387834 3.99737502624763 13.141199241944461 -0.7739107932978027 0.9568111017718811 0.49514998877897304
Ni 0.9062445825497266 7.82151718145546 8.02825711886975 -1.2976661045182942 -1.0332852228702205 2.6929387412381685
Ni 6.9966888189200125 1.850579175124833 11.804487352402566 0.06297582950158832 -0.05662751868605731 0.10117033829343866
Ni 3.7881115633883655 6.664487685022968 11.25476570657603 0.28875905338212204 -0.2693672791190716 -0.3223677425755029
Ni 8.94032933824231 8.769901409561824 13.145804329877135 0.16247315096797824 -0.8524469391314933 0.3605442536452242
Ni 6.71659133470402 7.8495020175600505 5.153428328924806 -0.018250204459439538 0.45911597797355125 0.593729426416784
Ni 2.764759714658918 7.22092735233574 9.116395754672062 0.01649928320660384 1.7201811434393601 0.3923827383120597
Ni 8.247960687911785 5.876797128396188 1.1621125317803378 -0.3319096206276671 -0.9272128192894741 -0.2786394484496169
Ni 2.198041409884717 5.126502727632219 12.271776909287977 2.3439698511353697 -1.0218949787554077 0.2563004186327844
Ni 5.360337116487701 7.804558352322508 9.069549526557907 -0.7583391641117907 -1.9280180672541185 2.495986325546398
Ni 4.159019056487113 3.804064673056958 7.296862862608467 0.48795655635432744 -0.8088166040360522 0.26186994230076194
Ni 8.382081221250509 8.976000085482784 9.652638914319374 0.662239298362724 0.9585550810461814 -0.4196531439922385
Ni 6.522312169185296 8.926230812173134 2.8660375100766746 0.21294981956129133 0.27511960822181647 -0.2849216819139029
Ni 3.9307760987821023 6.437776373474688 5.129958158268939 -0.1431770217425276 -1.3520140831415555 1.8337776233112935
Ni 4.660882295986279 5.665245423085905 13.275635331298608 -0.7146448085476338 1.358963774986511 -1.2826927710379135
Ni 6.816074520618861 8.345183311727839 11.247271712548944 -0.7851215744119575 0.6755866662039075 0.7281484994610234
Ni 4.694320161480193 8.214449008145259 12.772963825514324 0.533595694349681 0.55578354330063 -2.046661879741972
P 4.093278219940716 7.85663432165133 7.07223219086948 0.12785736066632175 -1.1972156751100156 -0.4360480404104942
Ni 7.505379878635927 2.697819396182553 9.459365468265009 0.06313729478011706 -0.04530695146691552 0.9808812553472074
P 1.091611597328779 3.2734600011589103 4.347976212950403 0.5932064640337783 1.7280042390282047 -1.2965813560945476
Ni 3.7361832226047706 9.046621890805747 10.678738499346858 0.2719111285868479 -0.5428148989551039 0.07300158916870653
P 0.41802775669997994 2.2212006379172022 9.686265006208451 -1.0916510644036233 0.12747915139129656 0.4566184083626781
P 6.038837910350967 3.260690131996775 13.415108322080219 -0.1611084094099677 -0.7599088225917557 -1.3034577714994067
P 4.427195535676024 2.3689122242008867 9.576704326725055 -0.35189917637571655 0.25377405266650493 0.012663968620913674
Ni 4.759793421288364 3.993361375174271 11.525797875436675 -1.3127466530005005 -0.2396916064315098 1.5044717588550607
