# total energy = -381170.5106078293 ev
CRYSTAL
PRIMVEC
9.23615111850583 0.00000000000000 0.00000000000000

0.00000000000000 9.23615111850583 0.00000000000000

0.00000000000000 0.00000000000000 13.51804076639333

PRIMCOORD
 96 1
Ni 7.2896414464064465 4.099539529400752 6.740446974810779 2.533638331571217 -1.9159459665809326 -0.1775215606606685
Ni 0.8530352088241137 3.3867580450015873 0.8107982901069797 -2.8256369749365593 0.00252636596627952 2.0320837248174812
Ni 2.724535251408807 0.5379180547879377 4.149660426647722 -0.5784701862648682 -0.8470095701660059 -0.47819536320250544
Ni 0.2366292660925213 0.49913360933047246 9.234295499707779 0.7113972481446136 -1.2992139086213883 -0.02737787779232059
Ni 1.256421334757901 0.7876626553607412 1.9117077789178 -0.9837462355998284 -0.6393102003703763 0.6236015313858679
Ni 2.53697673218973 5.589247567188911 9.231254035169497 0.11456244332962852 0.8600280939128607 0.5085199823279758
Ni 0.627737776445577 4.6832180945285184 8.381482882123787 -0.3548649438722598 -1.3094273588192804 1.6566155028725726
Ni 3.337224566960916 8.610882089180278 1.866016539710789 0.47451534324775696 0.8391774757160966 -0.3074404318417092
Ni 3.8353948457376608 1.568880324524059 2.6051561519549034 1.966865122028303 -0.014172691955956237 -1.0232463505769798
Ni 8.899927436053819 4.826480033347996 2.5281164924947053 0.0600645693920643 1.05308683097718 0.38374974522741007
Ni 5.777581923095553 7.9631231081199765 7.469326146861833 -0.21289916882901397 1.199989895421043 -0.35317701464687556
Ni 3.68092945570369 6.378448965313324 1.9771893189634737 -0.2831339938858608 -1.1477234819171587 0.3094623473677445
Ni 8.827358997313272 8.738063889034844 7.01475419546588 -0.5907618591480278 1.1250232121061656 -0.6154513914749078
Ni 4.408655032489542 5.9062969240231675 10.863070416511931 -0.7401596649892866 0.7791833545506517 0.15865609121473323
Ni 8.219158451167793 2.3427497119180023 8.383685704147412 -0.6984401737633132 0.6291628275237293 -0.05281637247008324
Ni 1.0396858143957175 4.081676813284648 12.230974865197544 1.4208473998651854 1.1566272121646919 -1.0760598948335853
Ni 6.475585565826794 4.919294115173598 10.38340938442426 -0.2487187496307846 -0.03420955600217334 0.7411192006890783
Ni 1.5900865273175295 6.384923507194084 13.42345524990365 1.7321953942914168 0.35364675519444255 -0.43093745865680616
Ni 8.34870470568923 2.522254307428061 2.9654528624303382 0.35555939883612314 -0.014230798887401298 -0.7111995303115106
Ni 6.522209656289093 6.650619864232306 12.401936944608437 -0.737719173868594 0.5859045310557264 -0.1583061640744822
Ni 5.856957405154388 8.051134391403503 10.208743608445344 -0.10092659771374875 -0.8198895740207622 -1.1220569303889902
Ni 0.561451767644106 1.3777381787005107 12.982374544335409 -0.6337432478055601 0.31270013757875176 0.20484313129375686
Ni 5.398197782875786 2.983609288149591 1.3254791124872118 0.4057493894269528 -0.8327990829935786 -0.7003301916971745
Ni 3.9161557504528632 5.417325851684705 4.4340793854641 1.2373547092227464 -0.8715648909078668 0.7026290150336801
P 7.774604029192485 5.267164508036517 8.775168278617688 -0.09067689496128255 0.32378313486579074 -0.5661232346637411
Ni 8.063926460597301 3.366706361088424 12.410264258388313 0.30564374495260266 1.745940511791651 0.7150811247541039
P 8.331904146943009 1.3360277205927966 1.197487302186222 0.3562733941840122 -0.5801473168569751 -0.4451083508405496
Ni 8.806549949014627 7.158839075343239 4.6732134957193345 0.9614126050996347 0.7162139528069664 -0.3443866700487553
P 9.147927327694703 1.7374308448977696 6.43443851293267 -2.5843106611151043 0.39587969572172466 1.023840789627869
P 9.227228920545198 6.767004603518246 1.3061552372761935 0.15975163827175715 0.5328012234728436 1.863724804492687
P 3.796168912260366 4.350421100166881 7.9928256462573986 -1.299764896028852 0.8491806096753957 -0.7750657328378523
Ni 7.942508018993223 8.288780557725799 11.066260197755255 1.767704128720988 0.27240143795970506 -0.2231146759094351
Ni 6.677654078333564 1.948329117801123 13.177845674152556 -0.18435041065704377 -1.554379185208465 1.3605300910323663
Ni 1.2125773257593806 8.538932472559575 11.279939475737491 -0.2152375871542035 0.40864676557940594 -1.1206505369597666
Ni 8.516331610958694 1.6211661755753812 11.028517590135378 -0.8150101344412738 -0.596786725185869 0.7761885335883858
Ni 1.2905766213128893 2.45901438124039 8.275068567888173 1.651557628733691 -0.5472436241504188 -0.9910430263715577
Ni 6.784516345894736 9.003381563880327 1.0290577753911678 -0.856557618865757 -0.09575456659450605 -1.753191794037426
Ni 2.6388422420369353 2.0787712789736754 0.6000210107822822 1.6924319983505496 -1.2523411553292496 -1.1319646764210054
Ni 2.041891327861164 4.003021751007126 6.446267251572738 -0.03597436121207998 0.7516802640343765 2.5549669178456647
Ni 6.721525795785211 6.251978349089026 4.42258961356729 -1.0360761553517963 -0.9996780763387364 0.03860100020164965
Ni 3.8511147748119146 1.8172866068108111 7.344702760846025 -1.238095958264145 1.0649532433974627 -0.15144440395764242
Ni 8.65194601671502 5.687510978129559 13.071282657885158 -1.452118699174641 -0.9214512342153486 -0.49987541927910034
Ni 8.681954271451946 3.9002972791129724 10.320726398144451 0.17741023189378477 -0.14635901901493503 -0.5920733788705996
Ni 3.9672316657176236 8.21236064400055 8.987901774733176 -1.570853014493772 -1.2651753309794405 -0.12261873797520174
Ni 4.7164682382813465 1.1772305757199157 9.399418484429633 1.822119984467707 -0.3951075934423905 0.25722035934389254
Ni 1.4717067794064196 7.698886062946461 8.414439316273466 -0.2778922858709472 0.4522840426533824 0.5806808207629419
Ni 3.12978061454744 2.8645737735144667 5.030198122430947 1.6367305910231877 -0.9028773278679032 -1.1892869071812422
Ni 5.191797515530107 4.741701402929326 6.372012291651839 -1.6354663795987834 1.0973203468742585 -1.5029337249439794
Ni 3.9638881790402563 4.072080452351542 2.6349501279876457 -0.47947088748081934 -0.6960004539735691 -0.5165796194076586
Ni 3.37705085025597 7.534972090396062 4.2243605690488675 0.3644510448987982 1.0331371273281305 0.5857960305023202
Ni 6.508447791235839 0.8348169008928766 7.411846808079341 0.20552524496244604 1.3673296304527032 0.524354121146755
Ni 5.687012225973267 3.424293762838113 8.377400503363024 0.354201599256648 -0.9821791482230247 1.329657055602594
Ni 6.141883428662996 4.920374744845565 2.5552883252464955 0.057216301309991786 -1.3236897822755656 0.8807897519402444
Ni 6.982548660395953 8.602957471585853 5.460261023420649 -0.1843380693618696 -0.1376589201377758 -0.9789375013572754
Ni 5.913177856549795 7.993371502784007 3.1611401181818777 -1.3560959665204129 0.2441774101170053 -0.22304191368997073
Ni 1.6585264065421004 5.63323935460411 4.8855276705774955 -0.4691795328571403 0.29919953198915566 -2.447720548561475
P 8.381751654119123 5.085840390771096 5.078024759758972 1.060678784391825 -1.016152934065308 -0.15773152251793482
Ni 5.323089402598565 6.067772552698359 8.357285090007666 -0.6636516053292183 -1.5241008459398977 2.111708989950292
P 2.1407827970726996 6.625091142750969 11.185543241238316 0.798506994579928 -0.3919291957144089 0.24641529830858855
Ni 6.140285574532651 -0.056861440277752764 12.096118747441803 -0.15698744526305866 0.7988422664321597 0.44272442398940526
P 5.088980682125529 7.313350646132421 5.387372090238928 0.6482944061468577 0.1080801780393945 0.8857725498668164
P 7.135887240002744 0.8705792777292516 9.698302179393597 -1.8345720941881307 -1.3166601291222937 -0.8301397909938606
P 5.55064045583146 2.62967074405178 6.274371397291451 1.4624984997470682 0.7883092281113198 -0.2965772638749602
Ni 8.064563755019229 7.592226990708223 8.793404135235905 -0.6231708716063525 -0.4278027696825665 0.5631011600079657
Ni 1.4932454836374183 7.790333194417781 3.132629967144036 -1.575675632693396 -0.5803419493662844 -0.8120896183603691
Ni 3.99445060283973 8.112915005726467 12.164870808571608 0.2039126490596875 -1.5072647482191655 -0.3880866820398671
Ni 1.3630526985430116 2.5078551479528777 10.599442033692114 0.703178459779247 -0.7288478395208932 0.38653630683361173
Ni 4.92367205076772 1.0426875634845145 5.201012423425161 -0.1872750405030065 -2.2276914535558987 -1.3094191312891643
Ni 9.432603975125165 0.45856473949160537 4.520487272926657 -1.3124509761369527 -0.571601484169493 -1.4564944596448335
Ni 0.3864451776917216 3.100788336425182 4.8273057452511905 -0.14860899139137632 0.9298124616958503 0.6046280756071587
Ni 7.218153637337866 1.7156612368907096 4.925298536966295 1.2999775262602902 0.819071448994841 2.0697850960229967
Ni 8.518742246380773 8.501036544832393 2.5147203790227324 -0.309859325695847 -0.052380827594561405 0.24477776270516555
Ni 4.941654836847374 4.829906645384745 13.021577387435098 0.845408030006841 -0.40228534213775236 -0.09366708793785804
Ni 1.9808773140747247 2.7573328237605543 3.0438299165614837 -1.8679671247088088 0.09008965499924486 -0.29453349397205403
Ni 4.553561006194575 0.7087185015555894 0.11355847706694988 -0.04170329327605721 0.06503142647903638 0.5120141115241633
Ni 3.8097460542927712 8.822648560281621 6.5347698980917235 -1.4868674155097361 -1.1960998163380174 -0.030380412064070262
Ni 8.999234532062266 8.164212588616246 13.227727355087525 -0.6547157362921692 0.9105381868472707 0.034163533255586326
Ni 2.9170997644928924 6.441882850672886 6.922223663477281 1.1395126639715922 -0.8594022874034037 -0.1883001393334112
Ni 6.564012475907231 1.0022147496164888 2.9178829901012926 -0.8687433622986714 0.23492092451574378 -0.4338006391372142
Ni 1.7153102631510964 0.9754114392912926 6.010377262890353 2.8989494104774653 1.6560205496010514 2.805283350980872
Ni 6.891120001226718 6.6385943955750335 1.42810013948969 1.9390218745637895 -0.0558746996804328 -0.5162127229865433
Ni 0.40102259488202385 5.934300933983882 6.726442198985109 -0.7567471370343225 1.7879960462008044 -0.6291126910120842
Ni 7.235166627558063 6.362285700989032 6.889131457907279 0.7464971771715402 0.3766712411140739 -0.7783359189486917
Ni 2.085134987041925 8.924375527863189 -0.16670051931990715 0.8734001443443925 -0.09936233855042242 0.9002789710131076
Ni 1.4203999603655975 7.9843108386113615 5.981232588275895 1.1298831113016283 -0.7050167985395664 -1.4520495364996024
Ni 3.4728851534724545 3.3155842650684506 9.802107280959717 0.09082524761368874 -0.3696305322172086 0.6819375481225997
Ni 2.852622194065534 4.329944553305764 0.4818573888055656 0.7184389854827433 1.8183435481444101 -0.029320860451304342
Ni -0.01770754877858937 6.197919157037553 10.435170622096372 0.7223385776474657 0.5204738122557423 0.5182302676372043
P 2.0380398528764614 4.845728172120466 2.6312325771930585 -1.495938781683385 1.289597982798179 0.05558365080257524
Ni 3.348381837420199 1.058324367199386 11.29387682766055 -1.0187618324430647 -0.044562617101723254 0.6407016814012643
P 7.0580634313190425 4.2988833773499975 0.6258619141688548 -0.308207649025037 0.6362788697432205 -0.31548284253021147
Ni 5.346318322470332 2.8675755226032638 3.8938042649301283 1.3541596687296487 1.1659153223348373 0.5331323815600173
P 5.075865347645247 7.427444819959833 0.7373865907762569 -0.8853627160229075 1.4555881457804805 -1.3769555835782414
P 3.3880049253923183 3.177947142233828 12.210372706682248 -0.12760462122556734 -0.13318597196808676 -0.5579491834933811
P 2.5822523445998304 0.6523687440455885 8.791132965694567 -0.7561539835350138 -0.2658559235317034 0.5336273189185649
Ni 5.311267129264227 2.480959476117257 11.324184333691253 0.6910551941531518 0.7148103875912205 0.1728033292493927
