# total energy = -340897.6034201311 ev
CRYSTAL
PRIMVEC
9.01387638622723 0.00000000000000 0.00000000000000
0.00000000000000 9.01387638622723 0.00000000000000
0.00000000000000 0.00000000000000 13.19271922783765
PRIMCOORD
 96 1
Ni 6.389017639848495 1.872713969053642 11.381556856421835 0.18038834068550222 1.3743081186530655 0.06642419306150495
Ni 4.489865971002139 0.37987089621354897 5.935536723922284 -0.06193581827284818 0.21756160730168983 0.4606606967528519
Ni 2.7908133467171354 1.742229092749749 4.654879402650719 -0.39179601257065433 -0.550049211920014 0.30487138556295235
Ni 3.5873065164353517 4.340776453589429 4.803231584965221 -0.5001065614533 0.23844822094271192 0.22587706914592065
Ni 5.125308209183905 4.559453097630079 2.594242333420314 0.05774826255406183 0.7544190031217781 0.27638613363906595
Ni 7.3136791196085085 6.156144140310564 2.744890350080948 -0.4067744882573575 0.12265344786787909 -1.3057889907357447
Ni 5.070684117556274 4.488261500984033 11.476927275408135 -0.07763908794071789 0.447498705449597 0.09057816459988917
Ni 5.481924205399083 7.793758182329242 12.4589269250118 0.1995119488888306 -0.5551960462282761 -0.7488816182433168
Ni 1.9516574994950273 6.445489576159899 0.31706490888123096 -1.1957809995460178 -0.14311531526665675 -0.21203630660808645
Ni 2.7867030190303037 1.5697485658034245 0.479184886171318 0.1274773516190837 -1.0658148200668096 -0.3707422772241486
Ni 0.6049582092254152 9.008720568848249 4.765553581169264 0.45642377585336874 0.2210346534519548 0.5932825686873525
Ni 8.56832059050785 2.2965194007461083 1.3589293179132378 0.24991971191742118 0.5667017328750305 0.15063450646183735
Ni 6.946228443832866 0.5499816750263911 4.949657501870346 -0.5296984161778039 0.9795738493896936 -0.9835714005848609
Ni 0.750733324246792 7.3723594556639345 2.452381043577934 0.30018734982372175 -0.1057636140910759 0.16384663427673718
Ni 7.574946330141 3.980131254575975 3.8338171097395266 0.46115743388361224 -0.6494912546684363 -0.7553235172139185
Ni 7.637087994774809 3.958867519897826 12.597252972488445 0.28385415988133694 -1.0790832550409417 0.10532806921555407
Ni 7.8602715770685645 8.71341696062831 7.017880649568378 0.5982247431839762 -0.15101965771539796 0.002238916632847757
Ni 6.847256079794682 0.5875343859389117 0.34807174267494206 0.1479351052528033 -0.03485567422660449 0.15251089754894379
Ni 1.6902640946914493 6.515401202342062 9.25921799973112 0.04763457115882763 -0.3014572176750808 -0.825531859908204
Ni 0.13286453970153247 4.860985294515809 1.4655923213865196 -0.3936153251675802 -0.4336839110536918 -0.6203362303710349
Ni 6.366428865323933 2.037785089511862 7.047761650186464 0.037881091316489604 0.15570472189589313 -0.47937627088448415
Ni 3.377896137443086 4.055712609080544 0.3656154505189782 0.5548358346753799 1.4238517339091479 -0.20266746379867678
Ni 5.952358420258173 5.713499706720119 4.772228356722113 0.30108543615795885 0.13371767610184068 0.483658700309922
Ni 5.26810604079528 2.9314388340905144 9.232990323261003 0.10070445440061365 -0.21789662204360535 0.22976020625041074
P 0.18442751886765502 5.6174388247934415 12.299743668687437 0.966240108395265 -0.2797308817415827 0.8757532179576015
P 3.9124370420143393 6.067537734254522 12.542252100822855 0.8071189046186551 0.022056465579407176 0.316485572763113
P 2.450016703770355 8.380615626142538 1.3687310072260903 -0.21801309301681163 1.1211362183469336 0.3392750598538028
P 6.131761604361267 7.862146463381856 5.953201217711504 1.1417091574022789 -1.2187602340500105 -1.1949201942076195
P 4.805225454448395 0.9178920585038502 12.545088767759358 -0.5550014137189667 0.5030489319110756 0.41703036165741075
P 3.9597508797954344 5.952115045592506 8.159234819150026 -0.31091090688881295 0.7425651891069858 0.6989106856418286
P 4.71707875609417 1.1463667863067502 3.8139361037174306 0.7913243607885597 -0.6680885580546493 -0.2470858420130519
P 0.273691036521 5.52381168952344 3.524633033087675 -0.057585254613636304 0.7044673537939996 0.8003499613259377
Ni 1.2307366704048737 0.9307458464017054 2.6570924887475127 0.8072970820677322 0.9678704449098363 -0.39153067472440956
Ni 1.9116899710664932 6.424379077382356 4.696884968557308 0.7281528703363976 0.07893106727926406 -0.2552300683867411
Ni 5.979877785231632 5.595715382413476 9.233650139021256 -0.24599877959646016 -0.0662976947859697 -0.29601573494453537
Ni 8.475910328566188 2.331033533888385 9.99331351072275 0.26949352028429074 -0.3264023176561927 0.36711727887705164
Ni 2.279492188025878 5.2222163955021665 6.983724367323397 -0.1009394532295552 -0.6177769542842908 -0.05959919971987156
Ni 0.5966672456150034 -0.03919053227369897 9.024717495483818 -0.5240149926397814 0.4664369371149967 -0.48600945993028566
Ni 1.3895701883207967 1.163943845493859 11.44662352398191 0.03328344464347816 -0.30542494407357723 -0.0769492609625449
Ni 3.9800230880579 6.874027293018125 1.4769380877448857 1.757975331468998 0.09995729182194397 0.27564617014924786
Ni 5.424803269979233 7.782653086473592 7.966397353502076 -0.06628869592490519 0.1661904519185654 1.3236645854645848
Ni 5.495147562233693 2.865475285818071 4.903061168659145 -0.7894343428546985 -0.08716065427790796 -0.3189193790155862
Ni 0.7303394286514923 7.150663162993704 6.7894618077998174 0.23712744524875937 1.138756245421542 -0.0827470985912446
Ni 4.993435195898056 4.395373503587542 7.111759271992902 0.9553612566992321 0.2360871769097031 -0.6198942577376099
Ni 7.989097900095315 7.201744801154395 8.983872916871231 0.43411174261972985 0.14852825875211195 0.8529727297279762
Ni 4.658677850210436 0.41522331987090383 10.373857743511314 -0.8467565736149352 -1.0537602028951205 -0.1194197714219298
Ni 8.161803773954295 7.243217646959467 4.747466336571905 -0.524118093876549 -0.6246096609354082 0.16535201517767006
Ni 7.297868780216616 6.183438158371367 6.956494347785788 -0.8094938326087349 -0.8568484106332984 -0.6979375230952819
Ni 2.507480166497442 5.090136063056675 2.4539251206234476 -0.1880736251449019 0.3786052249119931 0.6302144087166953
Ni 2.3248590284816317 5.414356187108535 11.255486976830682 -1.308087042741302 -1.0422655719919598 1.0904197630996835
Ni 1.1237870256586946 3.4609770372008213 3.7418638513367286 -0.35338321712041076 -0.39784273298536643 -0.019200227077534677
Ni 3.7923631930751185 2.7582011415176684 2.6534779242685227 -0.5972814054341004 -0.767904953423355 -0.4302535452159042
Ni 1.133594123297451 3.2518821438862724 8.216993035638865 -0.7964033179733639 0.3990701776345643 -0.3157988311087335
Ni 3.4424985903630914 2.6387312223043633 7.182221646029595 1.0511446196491445 0.6386998204798872 -0.18277869529454974
Ni 4.151809546513247 6.851979351083936 6.033096613511945 -0.6046753839053265 -0.45046421583582424 -0.31648197321868715
Ni 0.600150207497003 7.599635337891508 11.355805112631243 0.3137725447073242 -0.5937726209498935 0.3816357842082008
P 0.12249587755643933 5.514716688128675 8.0119381617744 0.6619451641610729 -0.5234141258309888 0.15202753015462206
P 8.509568143440376 1.5938516715810296 7.824746988369941 0.054373689654874095 0.2404904481837213 1.1378638155142597
P 1.6434279923651833 3.162798002375401 10.586919643876245 0.5641727958055897 0.09878795410419114 -1.2418153160972614
P 4.126273234371154 6.214527018441285 3.672575985408795 -1.2778917501048443 -0.21036431822230225 0.2546412857628066
P 6.829165229646719 3.9067763275684397 10.447037801314629 1.2287497411625548 0.06269737902922105 -0.5289124299413988
P 6.292073398024208 7.644371206991828 10.270334273225144 -1.070912289194375 0.3666660502722459 -0.5070680803727976
P 2.507092569807676 8.342522984027296 5.726682501110451 -1.2115403192628036 0.48363273216799285 0.3996790148631568
P 6.815887789553072 3.765637049234207 1.634498846298132 1.4562126667383566 0.9763239749938283 -1.0328957007412858
Ni 5.294165157774734 2.7318355527370044 0.45181515154786256 0.22469564724330982 0.03410285522097998 0.04054809662569146
Ni 1.7076338347189157 1.1131055819988358 6.888987623855482 -1.359201344918614 -0.7228188597179939 -0.2727014856986272
Ni 6.712633834174439 0.6406017810939206 9.005574725947582 0.19612092092941064 0.17608559954509026 0.016692373054016413
Ni 2.6200905256895215 1.557823207185709 9.198306729240409 0.5071740098230426 -0.5881241644148646 0.8202467002498647
Ni 6.5165189230288325 1.9015223183674885 2.710312218415477 -0.3147526492324063 -0.14439598175129326 0.14822152614497053
Ni 4.087603704159514 6.742172307485288 10.306086011611724 0.22551942869618577 1.045572524878006 -0.004458035771353612
Ni 8.176216962487725 7.220421553275262 0.329928612043243 0.4293773132585379 -0.4979404070399166 -0.2263334399570489
Ni 7.532130416736503 3.932871500053917 8.220225411753992 0.36177298384600276 -0.34852948857253524 -0.5553917071788499
Ni 3.1533424459203867 8.402339068522503 12.300192559737447 -0.7253274850724605 -0.06222815270228638 0.1097853336559593
Ni 0.11548127885930687 4.771252153896491 10.10594009489254 -0.37953236471195284 -0.25710928768732494 0.5939387142141125
Ni 8.615976955596182 2.3706945905157086 5.742513572418308 0.31934515369909516 0.5026568386789795 1.4648757417299934
Ni 3.6528734541415218 2.669135027759809 11.50683531765574 -0.5509925496698898 -0.9344149934648682 -0.3406187183658908
Ni 1.1995306299403754 3.4776527087373097 12.736858089041322 -1.017450569830809 0.07268251526639095 -0.46750548758882704
Ni 2.9546495660940044 8.166436906478486 8.042981051074136 0.5540606470722522 0.3882897991896087 -0.3484335864246193
Ni 5.583907204190341 7.884446793858219 3.571994644414253 0.7248317763829646 0.3836600137270812 -0.14084297429271228
Ni 3.2372255806871757 8.47226872245768 3.503669460497183 -0.9233085991390614 -0.47158762807800075 0.5479504204094563
Ni 3.2940851136883467 4.1776883859625755 9.46912684609418 -0.036781173384091495 0.3446288679665484 -0.9149342590324372
Ni 7.328191460783506 6.066095514013528 11.329511634862628 -0.4647870602163996 -0.009414094225048302 0.14261780680494793
Ni 0.6179426983326104 0.039093182407431905 0.44608683302816626 -0.1363394299954039 0.14579800430514245 -0.4707221947539119
Ni 4.703657093976423 0.4061923169993322 1.7018739676314476 -0.02562232855379458 -0.4270278391897549 -0.7216703479358475
Ni 6.023802405446392 5.5445345916112165 0.3946933147403604 -0.3706623159158326 0.29483508437287287 0.30480068022601703
Ni 7.818843800646024 9.060388108981844 10.942700955126947 0.9198769477496932 -0.626818752771585 0.9339874190091463
Ni 0.06643317123841685 4.799654878767558 5.711867293684845 0.3330607035129748 0.44176643095151014 0.3939616527634054
Ni 7.88213924147263 8.850112397844981 2.55825262869397 -0.045730155047263174 -0.1870996912674068 0.14578514878933602
P 8.507990715051788 1.7493500551896546 3.7819440532215904 -0.4103850884267513 -1.2764208219862727 -2.0981973286171027
P 1.830177485820838 3.0861259688135805 1.6586812741889914 -0.4440176888795321 0.005322954874810187 0.25513828000388317
P 4.672009373563121 1.0884436158778459 8.228127877286987 -0.22073717681619404 -0.5874541349310335 -0.668581695640984
P 8.476676508069215 1.5768244588607991 12.443966594174443 -0.08567661353321374 0.5002202042130288 -0.3897542995502772
P 6.341009733576421 7.615472718912918 1.2701300148999624 -0.6013656028058031 0.09731059822771629 1.9233265753157198
P 1.787343544663329 3.2220281848977055 5.895760289675682 0.14814439305013197 0.6207787172250923 0.308265755956482
P 6.932356087889809 4.098014731524186 5.9252464825027955 -0.14405145392768096 0.09329787752389737 1.5124653185834984
P 2.286766386366389 8.408847087359987 10.227088397911302 0.962357228401091 0.696212312874059 0.09815983360188901
