# total energy = -340865.5154014403 ev
CRYSTAL
PRIMVEC
9.25300299729007 0.00000000000000 0.00000000000000

0.00000000000000 9.25300299729007 0.00000000000000

0.00000000000000 0.00000000000000 13.54270519441131

PRIMCOORD
 96 1
Ni 7.858186559057927 2.39132750936678 0.6628869633588635 0.2708320365900561 0.6193484125364688 1.0186106515771811
Ni 0.1360145130512424 8.833906439784514 5.239618257812497 -0.7642665853398193 0.21240551702204707 -0.11084359971714458
Ni 8.58642562982033 3.6202373027176833 12.16235122795275 0.3576571619054163 0.4072118329050923 1.6634070718731093
Ni 1.7703955108078717 7.4056499564662 12.13777062630503 -0.7893770072542018 0.7619798461881716 -0.39467256278750096
Ni 2.510302617963186 5.581503753028329 1.1104371228005994 0.17391096049127466 0.6244386825751826 0.9203780557558278
Ni 0.16699911786116045 6.415652692587936 10.130932212442653 1.243828232762232 0.1300638813993373 -0.49619822753782933
Ni 7.9175168123103905 6.90160188789561 8.507879665880191 -0.708327093859722 3.2828724480579456 -0.39481397346137165
Ni 1.5993815150792372 1.1104343468997924 7.1903094513479955 0.012216853781166059 0.45002275742303144 -1.8196748653613242
Ni 6.115327984257437 0.5950106368213152 4.668021418999608 2.0606250267902837 1.2930797706991923 -0.030990020623611142
Ni 4.275645989301962 8.910789639141143 11.324735188284953 0.2551269671499735 2.016313606467418 -0.8678573601492924
Ni 4.438017680517527 1.1351028520730713 13.269629375634759 0.528215146764058 -0.07031067260010472 -0.6633947521234059
Ni 9.023907597034368 0.34377680896580215 0.8831158297985391 -1.4846182144642432 -1.095927323181474 1.8052576614947293
Ni 6.04570839201297 2.9947805858430465 7.8450315651326274 -1.5851781728671925 -0.054097038954719734 -0.24537785818300967
Ni 2.1887237624522586 4.18908414913091 5.24011977055833 -0.15226767118988616 -1.0470514234163775 -0.14624229093141264
Ni 2.2470546914141303 0.8921134496149292 11.967133227785908 0.37518180105274096 -0.6956291866770794 0.578587428569023
Ni 1.0028866966263414 7.144363666487562 7.897943010418585 1.2071463039601664 0.18133450664885545 -0.4538727272967409
Ni 4.829873091463957 1.0769847421730845 8.227910638168856 -0.24954921595187987 -1.7402519460473058 0.07899765885114138
Ni 6.8836695686811264 8.618746368218778 11.907856641949051 0.8059925043236958 0.7212345459500095 -1.4412473036777758
Ni 3.2832892097375828 4.7755579656698295 7.369384663020726 0.8071957806031775 0.7073166503173366 -0.4645744299849612
Ni 1.1801649751765473 2.288943034594713 9.27724000590012 -0.001270124961675232 0.9522229681805665 -0.8862919127053962
Ni 4.755488202833805 6.007465731892504 9.378891642859086 -1.4728230216015281 -0.8145637909324746 2.6542446671020805
Ni 8.51832353001713 6.45940088930934 12.096790927988671 -1.6757203420228237 0.15358381889814837 1.4082590216772135
Ni 6.12445144491042 1.6352554065108957 1.9808097172935721 -0.8916187242349483 0.9158398015658421 1.5534327621347956
Ni 9.29464120276016 1.0236134226534024 12.422276401235592 -1.3445997929553553 0.3768792433598219 -1.9076690712841213
P 5.500068076347898 3.624428912936549 9.874351999632482 -0.8629972038435136 1.0391841048531587 0.7248392325821323
P 7.102697395371555 1.9413354825149807 6.2701779095857715 -0.06686308037113646 -1.1773947837293466 -0.9801186661495701
P -0.030707014729198477 8.76871903582887 10.876362436904019 -0.5065764854483598 -1.333477972010581 2.029344728619763
P 4.607440159783369 7.8897578042384335 3.583020800595611 2.0342311101777866 1.108730131373097 2.0875976987243856
P 2.9707135258446598 0.7997758851643726 9.856434485222303 1.1457915550017685 0.9253359139817354 -0.2630390229081986
P 8.980168653315653 8.938761466274984 7.688884368827064 0.2903973603164934 -0.3783604558910387 -2.2953844860274986
P 2.9312587223717186 7.555428311019787 6.8324569746891735 -0.2483829635579206 -0.20659739498070226 -0.9271932789054484
P 4.749705076152146 5.435445105556384 -0.0867496761256718 0.1426507169254124 -0.5851537689326308 0.5446671216724943
Ni 9.093980586410677 4.537348664401678 4.206513104999022 -0.13239844306978488 1.1086051757594584 0.5542565651331423
Ni 1.7715336301388218 0.5325556445602198 2.6241293558625136 -0.45857938874379084 -0.6518733817473676 -0.2217951857670632
Ni 6.487270933413585 4.583410111795745 11.957788620368616 -1.4868216498734652 1.482900203331872 -0.688718061379543
Ni 5.7574681051964625 6.719697108000078 5.52348650085767 1.843014568528529 -0.8825424729652929 -1.1624785287391461
Ni 7.231036542690901 4.795396403438588 0.9034909417233552 0.6160350318925197 0.782421144761659 0.16729885449139575
Ni 9.08834550777207 2.3656504269002196 5.283754155346639 -0.3522002525559031 0.10901580247978644 0.6206475909638666
Ni 6.48182091482879 5.35353752573873 3.4291072791395707 1.057591917936385 -1.4537166397893801 0.3512779978519499
Ni 2.6727390801975863 7.461954477838819 3.0122770886308006 -1.0454658240968124 -0.8903036049679506 -1.3387397346301526
Ni 1.6049240636909379 2.9101988882477943 3.0447384726701467 0.9847862468285685 0.8026528984275015 -0.2661017209939223
Ni 7.401587888285003 4.137878032240841 6.119488134267155 -0.35055371809141567 0.07225262681782395 -1.3352787726647455
Ni 7.533924332766711 7.276487291907385 4.1714645814073705 0.946333342169009 1.232833167203309 -0.0523196353393228
Ni 3.470218370094139 8.24127012345362 8.824805186337988 -0.654549385917634 -0.4958223322556493 1.0723868168573725
Ni 3.246582548063765 2.648597996177674 8.54191220977641 0.9406761438832315 1.4335280806566473 -0.03247097604451182
Ni 3.105798112125491 3.7559695991868605 13.18473030004722 2.529615069344437 -1.3716233727320506 -0.32041627527608685
Ni 4.051038601989069 1.295623942750506 3.97134434041502 -1.3271623142051983 -0.26095925756103444 -0.2072543118384108
Ni 8.516852302589315 1.8518681994990644 10.337918181431467 -1.3870535912441917 -1.326212291587103 0.7499622529020051
Ni 1.758968052484916 4.8893421397567804 9.273949638143323 -1.1124579738466454 -1.0699740936508217 -0.8327402047311852
Ni 7.246220720106261 0.7010287657500012 8.20384542877101 0.20080032868295095 2.505125054622873 -0.36259367997508524
Ni 4.007864091434486 2.378336293589104 10.986262200461434 1.2065400378347348 -2.850213635834659 0.7629854046345504
Ni 6.017403456782264 8.358070776417724 9.130302323172563 -0.877049825281838 -1.559500051374798 1.7855722672506602
Ni 1.158142828772795 7.774779992804389 0.859211622647508 0.6381712016699267 -0.7983056772023993 1.0208379982458031
Ni 3.819500715660879 2.5739262644641108 6.093662078457275 0.3893812324815746 0.004644697860862968 0.19261290777615217
Ni 2.474484244547672 8.72275011846171 4.939660893688816 0.3760932571234168 0.9911708101986737 0.928330220723369
Ni 6.621032340309654 5.155523268158773 8.42621636533357 -0.11780486152632615 -1.2615302780276854 -0.02999217548671609
P 9.268362675118707 8.254779507381972 2.7266748328813977 0.1118895244831557 2.0126423282634174 1.8557379296324685
P 1.2764702271808557 3.701654473392732 7.449516591622044 0.5979756032876474 -0.8768983873056381 -0.7622292431948163
P 1.256853861476673 4.565579575610859 13.183159140190345 -1.3658941835577572 -1.2371551916174306 -0.7742915736759891
P 5.32118902833221 4.726526304412063 6.404981204584808 -0.9897718729686179 0.048569938488903446 -0.0030495854596011996
P 6.757736202061349 6.527197640023749 10.410981741277396 -0.1987053938271352 0.22728243413387952 0.4688674009333602
P 2.538792613247704 6.470328685487001 10.439312584915635 1.494689225547 0.4422292295205416 -0.6501147471850481
P 6.682102158067958 0.2578210404709883 0.3855143282025271 -0.02776122927366832 -0.01532068951747039 0.16231528523387528
P 7.724286357121499 3.533962305630042 2.8365875506425793 -1.1934402672279831 -0.48682578518399383 -0.27900171688504205
Ni 5.521766367657478 3.400367452782405 0.5444439024171698 -1.6035525616093222 -0.0013693695437008674 -0.8156534244522275
Ni 8.326295965178023 2.9770518326877564 8.163407031112051 1.1147012613548675 0.2659153160147291 -0.11575697785836193
Ni 8.912575468660439 5.246073152489495 7.488654942402964 1.6544817443590218 -1.1578366590917608 -0.6094671488670148
Ni 0.29480714282606335 4.283612824618613 1.8219541671004549 -0.06016741351851573 1.0169492047143582 -0.20343699497484963
Ni 0.8764564437620767 2.378012438494931 0.5588869143170088 2.6684029608803335 0.28340215994558293 -0.017513069183098872
Ni 1.0990253945822182 9.256611361701578 9.201942771204669 0.2554144164834053 -1.2028978130964572 0.8471131856234055
Ni 4.223486813134755 5.749538281890573 4.321246637162034 -2.40586170354416 -1.7611778975666958 -0.8282163487189027
Ni 8.590515457009598 1.4531933255696226 2.935774187684757 -0.15054117541708267 0.3011800527542942 0.4582011794687657
Ni 4.456736504960716 9.015644665631614 1.7519524258448635 -0.10382114565272442 -0.15342775293625835 0.199030895487354
Ni 3.7488447871150585 2.1100547335763333 1.7144120686286184 -1.1361224073431209 0.9436799637065619 0.08190557652655572
Ni 4.998092680380015 7.042034709731639 7.533996506187698 -0.36563323813235743 -0.4606105602412067 -1.2582050703091943
Ni 5.0290902393937005 6.403420223030895 2.033410261689123 -0.1653083064239282 0.1150823203888405 -1.196183377190759
Ni 3.7495202563114765 7.449851550319445 0.022459813431020145 -1.1333525579074675 1.311268268682761 2.257793158037286
Ni 1.3959635039279388 6.452405619275208 5.228404543851695 -0.21636964387611768 0.9437748374132132 0.6886360431886979
Ni 6.336197158483306 7.171511976381936 0.007858575185170935 -0.31972130609159133 -0.6621616510472532 1.2192950235075581
Ni 3.455284023751426 4.382943808502765 10.754248709794943 0.7045174903056448 2.7756583290255876 0.20875763585681467
Ni 4.7103242967007315 8.753516352408129 5.94104952917954 -1.762227678987449 0.507214633252991 0.419050220300917
Ni 4.574166362107784 6.8361183878538645 11.71174480172229 1.4856363713161125 -3.1501348764811876 -2.3565764841557866
Ni 5.644359400305929 3.1182156417363465 4.239069794966083 1.6395001833485248 0.09554939256223545 0.7915562742937078
Ni 7.041414758551365 8.421870229969771 6.4516089357435416 1.0116787003440384 0.11666740548777327 0.28451621894536805
Ni 6.782497237261535 8.836367738500227 2.6836085824582954 0.17636430712777368 -0.8125827559467038 -1.1722461496488714
Ni 6.671007807841867 2.2305103226032443 12.34487966022963 -1.2041075171338422 -1.932891850406652 -2.2422004458053513
Ni 7.976134584355672 6.836571784985706 1.9809725701409278 -1.4597157947956085 -0.32778145739190645 -0.04391392777413082
Ni 1.5089981847969463 3.0658621525126364 11.417867585666638 0.1904390400532849 0.5775677290552569 0.6303200810566242
P 6.5489329433440915 0.8330043431267738 10.30086545745702 -0.9078945785768363 0.6688647740990417 0.5747341162612039
P 3.931804409317325 3.653686907444391 3.248041746588081 -0.9079449721987977 -0.11305089178110853 -0.26706588467940456
P 8.282788346526576 6.587110832445722 5.917430314511382 1.1246172349169987 -1.1084938469925747 1.1985847875434001
P 8.963402212440192 3.967076855574091 10.173781017302527 0.7279723788944754 1.2308863278895832 -1.713788609649455
P 1.7127863160558707 1.6197288679959816 4.641613349320486 1.1579395032182123 -1.8236479910764594 1.8249469123935407
P 1.9500795700576472 5.417031630201986 3.315795933490113 -0.781359536266364 -0.8166564117954451 0.41353134736521685
P 2.5396438894952444 0.19069790835245892 0.5558463776328605 0.6430380428439247 0.6391667328139766 -0.7478225808511831
P 9.139893985761693 5.998407042258356 0.5832787547098371 0.3665112698619365 0.24421623377474067 -2.1615958474784063
