# total energy = -381169.6921279068 ev
CRYSTAL
PRIMVEC
9.22511164114627 0.00000000000000 0.00000000000000
0.00000000000000 9.22511164114627 0.00000000000000
0.00000000000000 0.00000000000000 13.50188337539496
PRIMCOORD
 96 1
Ni 4.415359693600933 4.485913345186854 11.579471387268887 -1.3628854786384206 -0.9521702605657602 -1.234095064634868
Ni 3.6520370802607838 3.0891207858344094 0.19955760866980213 -0.12935040027208047 0.5761412810213755 -0.6930105181073097
Ni 2.1513051913557013 2.107476687343579 8.756619602813954 -0.3635776411549093 -0.6764685545882285 -0.5881640165138645
Ni 7.120014738915619 1.0840612846711257 9.461552796391036 -0.2908449893768733 -0.048879756419838404 0.23573339311471012
Ni 2.3632521245652383 0.9515794606092254 13.004284299828322 -0.98380922762728 -0.5446321546695008 0.24847038106540434
Ni 5.179189688065197 7.6201541506220405 12.709349187447527 -0.4599883532761755 -1.0970339259820912 2.9686841559694424
Ni 0.27496643635792917 3.435339214707268 7.208911601904972 1.3126972878198035 1.2745228336326115 -0.6364945852984522
Ni 5.221080918694337 5.246191671782318 -0.04231835328453141 -0.48258577896071725 3.5865295015978234 1.8483539784635714
Ni 6.012263368304032 4.314750629244754 2.312022313718991 -0.8016838496460128 -0.9632949097240119 -0.00018691919982548455
Ni 2.9891482541612104 7.3862237770713355 11.852209036725252 -0.1676176712833952 0.10413610578998195 -0.5040012685220159
Ni 1.8247270245417375 6.771471581983182 2.7956995142257437 0.2893349804902501 0.9290077064063679 0.004185241725941179
Ni 3.6283100938749326 6.255704831654041 6.855689468497067 1.560643420950622 0.6430311008653893 -0.322226074791316
Ni 7.18339125387316 4.058089581333732 6.295374655470696 -1.8117684660300541 -2.0647886712496697 -1.1988748079799934
Ni 7.752119368448478 5.293175163875296 1.3111503156465008 -1.5331585852667917 1.3868044513478632 1.1637339984128021
Ni 1.3338588497395845 6.767615485439914 7.356068733098525 -0.5268771446789249 0.6005726745908625 1.5643463237235058
Ni 0.3651280621130286 8.794298647601812 3.651057373435676 -0.5463136561369818 -1.7067887812928542 -0.24424605857141163
Ni 1.9545151160901586 8.263255112881158 4.993157937653145 1.7713581805338072 0.44725470775959103 1.504880050037073
Ni 5.820740831617929 1.976563132210759 1.7303605930344332 1.0357689085240227 0.49858241149928967 0.3873099517748426
Ni 5.553074225869302 2.608169605730853 8.07093921661917 1.1182370424222678 0.9222870998530827 -0.6924703293331236
Ni 5.840851574355549 8.01506271718717 8.746735818516209 0.056271163787903096 0.6704881686350775 0.5305468802210282
Ni 2.3702632091893623 4.423800670483924 7.5375884815504985 0.8961078703545534 -0.1106134859842095 1.4462067045655802
Ni 1.324200158158719 6.365206903349241 9.9552217149983 1.6413192388351348 1.6213186273434916 1.1508445440446438
Ni 4.672980153092098 7.76175960980665 4.0940407627661966 -0.5538318188908978 -0.9358954346651366 1.1902114758780404
Ni 2.447874070956145 2.703695633734542 11.160616276667835 0.41134642389875603 1.287789983055163 1.2341194901149004
P 8.355939806589808 8.61786839308027 10.167835623758263 -0.8404673981721138 0.2887893923994252 -0.5505153529231551
Ni 0.65411943525261 5.486773350614593 0.9668765402457021 0.8044719539141113 -0.6566980568295206 1.8860093269225002
P 4.621863811115427 4.014464029771255 6.667432621227991 -0.1480459197990547 0.9972802655305213 -0.4352728528073665
Ni 5.493655283679852 9.01823822556314 2.4055492600936708 0.018074083892891456 -1.0665172454504728 -0.143391708856495
P 2.2788608059580198 4.720194272968765 12.161699529790184 0.10091322797731009 -0.9698615071979363 -0.4258739280909698
P 7.1913617500774265 5.7268660985454485 11.443710036122939 0.02982891043597443 -0.8733250681320831 2.36306543431424
P 3.8783013862816893 1.1587016605840033 1.5028139965362204 -0.4036166593546662 0.5005907001785701 0.22923724386740524
Ni 2.623760043908181 0.516905129069426 10.637120728051732 0.33183814395978334 -0.5912380274534978 0.3235501929193783
Ni 0.7654895919956843 2.7635850566027167 12.973473350438704 0.10179460214099888 0.25103531357910314 0.02620596897140648
Ni 8.9016051427963 7.140688213445436 5.5403758600994255 -0.7286699191821322 0.9286652354652845 0.42804368204877896
Ni 3.8427847075936934 3.3509109956546594 9.487813920864054 -0.06605626819912495 0.35775357827396453 -0.5863552454398999
Ni 6.566397356727556 8.973284257966618 11.832267113525292 0.6433656013866726 1.5418093189632542 -2.569017225291143
Ni 2.140364209297529 0.24984184560292705 2.2969540168439333 -0.6646162832353328 -1.1091065408759093 1.0675464580459357
Ni 2.822579643670181 5.974910892457877 0.378629012570141 0.8286349243135599 -0.4083068657414839 0.10484495893154848
Ni 3.0198401996144475 9.03270320015607 7.359700659436048 -1.6105487904214972 0.05853450590078306 0.03343025463398759
Ni 6.053693343365796 3.3854129120944276 13.27615847886256 1.3696320533336346 -3.2873911618639062 -0.7101068114679642
Ni 1.6696990283464699 4.410092155021492 2.95743877892634 0.3281033595076994 0.572851040305878 1.1885808822531532
Ni 5.301422413419989 2.107651964459182 11.081940837051548 0.07549813033831514 0.3373495606963158 -1.0684324601953148
Ni 3.5474981184705565 5.425933741277622 4.334549563218826 2.057049650734199 0.09873858892349446 -1.3767514379872354
Ni 0.399923337093648 1.7505755795302789 10.462460772397783 -0.14113479450151822 -1.419067682256943 0.4031695445149186
Ni 6.490622292118933 7.561823771571598 6.362316675964059 -0.8127390790189101 -0.5540909860895554 -1.0141963245595695
Ni -0.040182740007577857 1.3355285948934879 8.249394383081492 -1.2082721900344933 0.10452537080860064 -1.8318924904734386
Ni 3.8438086949532693 5.802659613376767 9.31611061339699 -0.6663882875340911 -2.837817833273468 -1.0201970222276946
Ni 4.454474165714467 0.8402056138216117 8.928498187396622 -0.1849394503912944 -0.20405791638830018 0.8264983375865315
Ni 0.24881970326562053 4.007665122708124 10.860198680613202 0.61887481533416 0.9681620080083262 -0.10014086858765979
Ni 8.57153065878162 6.072789323855186 3.582117193824438 0.14009272639024903 -0.05920324983303352 -1.0467356919481714
Ni 2.27676670568213 3.7963639472929143 5.377502829214217 0.8796078158170012 -1.4248953446823138 -1.0835484899011467
Ni 5.9060823366939434 4.177397946391357 9.685237761279174 1.235352591191053 0.9354290365516794 1.7632368369782536
Ni 7.869896365022415 7.3400705449996355 13.038390458991284 -0.3891171801869105 -1.6953489148870287 -1.1313219006306838
Ni 8.542499233370938 1.8805942988623885 5.865609928190054 -1.0390761185203847 -0.9832854939133259 -0.6397704278362466
Ni 9.133339939846291 3.2563351541197663 1.8865371155924682 -3.4895737156063644 0.5422209741248468 0.366948100289039
Ni 0.6319007545720803 6.078960923346685 12.360987765208638 0.17568296479003292 -0.06156429386604236 -1.6267673091628887
P 7.252542688534257 3.1699143110160906 4.051955804798758 0.3526620226836701 0.7941088655122324 -0.08594118004851006
Ni 5.355324739023616 6.5317755138402696 10.755370050326661 0.8891630636056042 0.3424084632764619 -0.6077231695927146
P 4.451070099627228 8.733901843609523 5.950279845159968 0.9131152035458274 0.5520533868342363 -0.11197154267400072
Ni 0.8654713487802311 1.7941550055360178 4.065498268256935 0.6506690770266214 0.8746227038975839 -1.0679586058826898
P 6.207023919073118 6.806379403322241 1.2426197309790934 1.3719308766701406 1.5976922461738035 -0.9657536556771497
P 1.4405657126964817 7.819019875940778 0.15584995361633247 0.012260819645224045 0.28210683817292703 1.1103391277314296
P 7.785163717295338 2.0526426254938515 0.4485092310276924 -0.4519680540748603 1.0345833728563538 0.08117589744938278
Ni 8.47021126085168 0.6439552075698997 12.468840386994898 1.155519066702178 0.5544231726179936 -1.3129158315885132
Ni 6.336489131724375 1.3263680593253888 4.707944247610378 -0.8020263205870961 -0.4370985931621956 -0.38377674181060356
Ni 4.445571933264099 6.338103526210193 2.1646760677428136 -0.8597200757541388 -0.24765148470853474 0.8857715214255519
Ni 6.030123183872853 5.414457702761293 4.287455369789678 0.7201739658959792 1.5732814214296067 0.9874573659028284
Ni 0.26988432251657407 0.7697866488613646 1.0050057704673194 0.32717313438394624 -0.40542980130400497 1.0043844806754705
Ni 7.871953564852914 0.6759829491462598 3.0303356087945343 -1.3949985571228813 1.103125897812442 -0.6493976665133655
Ni 7.91991491874873 3.4491584315058703 8.722067870772909 -0.7545311032196101 -0.2903135423534355 1.2891722081146701
Ni 3.6783747731579863 1.2068844171521604 3.8655218395319544 0.2961255210495223 -0.2175531226612576 0.26662956847293434
Ni 8.048291568260979 5.670159339092172 7.381641664265017 4.133622201992675 0.9763990512061377 -0.8727972206530711
Ni 8.331253408623814 8.0429779041248 7.780068688298095 -0.4975575697792011 0.3267509592448631 1.3484657036686647
Ni 6.194588468976645 0.6686471406027026 6.915921142996234 0.17624295105856097 -0.5217081988834756 0.8121965762518787
Ni 3.5568708315996487 8.403384554250163 0.7676224377392337 -0.06320979988926533 -1.5346552244169762 -0.16006916951217592
Ni 8.248162830716597 4.38397586479663 12.89190860594837 -0.5091571016913425 0.4672540336996534 -0.46450321042739356
Ni 7.636833151938378 2.62559584106634 11.521669607098657 -0.8866300127711053 -0.4015865162985148 -0.4885337690140361
Ni 8.199897048146312 5.959846285627358 9.694797744168621 -1.0261640384444068 1.128890922591688 -0.7963105011492415
Ni 4.727961816723387 1.0205371679320234 12.952437329032927 0.6921139744349692 -0.9128609214431761 0.5157751212284923
Ni 1.047289990839865 8.78234290329541 9.100579724428936 0.6381467761898945 -0.92268176418834 0.4063577124349131
Ni 0.6783925482302349 8.275340008746426 11.656661583958224 0.7638449244213683 0.83743658176559 -0.8345826572565626
Ni 7.19501489417105 9.105249475793057 0.7603087694629107 -1.399820146881241 0.7695751420369262 0.4358228117735656
Ni 3.2410860450622967 7.830302187118809 9.348500901849308 0.21602408761124084 1.092044957407932 -0.11658358752471536
Ni 1.709219405359295 5.95991086140679 5.29717978471126 -1.708527875471148 0.06269789324985331 -0.6787825474333858
Ni 4.057646775989051 1.883813862722677 6.2380857914913905 0.9895366170293604 -0.3418546476555209 0.026559752766399422
Ni 8.86287812535936 7.639056403773133 1.6350513551474113 1.0846401803034287 -0.14347629815050128 0.4857106977429442
Ni 1.8445610139389301 1.78454243951189 6.292215054834167 -1.8312363449466784 -1.6732340852658603 0.4892318235223252
Ni 6.1029462128502665 5.801294296897333 8.071020397599028 -2.843261372886542 -0.42259037224369156 0.11697105277112113
P 6.949211802316072 8.181077820997348 4.261707161507583 0.6147512800840896 -0.12188417380202232 -0.31596235326979133
Ni 1.847346997565885 2.498280079359058 1.6856557034442952 2.8470943734793868 -1.16376999385706 -0.11446037053412544
P 3.718356405738188 4.139611890311868 2.109250676255709 0.05374736892478485 0.9284685460734462 0.7345916839832058
Ni 9.249096637035116 4.161143300197007 4.8829021743608525 -1.2854104270793927 -0.22297635055935794 -0.643238331780189
P 0.6351858167229363 4.814926941396566 8.916656834470931 -0.24462015408137874 -1.7925404710383777 -2.5306383684026286
P 4.647509620661564 8.819446301135184 10.831764119906703 -0.34549121596684373 0.28773909675803994 -0.5810991392472831
P 0.2870790075572381 9.162537417261229 6.401729119174117 1.1929522718479713 0.45900799164077727 -0.4226914165979301
Ni 4.955997344123018 3.3461047126425956 4.425822814891304 -0.6115263453888887 -0.0006664299394053039 0.19514004507338006
