# total energy = -381167.96330351813 ev
CRYSTAL
PRIMVEC
9.24003896603043 0.00000000000000 0.00000000000000

0.00000000000000 9.24003896603043 0.00000000000000

0.00000000000000 0.00000000000000 13.52373102423368

PRIMCOORD
 96 1
Ni 8.950650128861056 3.8827475092404784 2.2835360913768974 1.2200871803915503 -1.06823885612727 -0.4043126569804263
Ni 8.784218548060933 8.066553966161928 9.096927336796357 1.4053480186780054 -0.5459426459508082 0.15755025974506415
Ni 3.161303751428347 0.8041245499594554 2.4491610167804057 -1.0273650007310435 0.8950539751687424 -1.3758487236673078
Ni 4.770364126763328 2.2753595809477374 9.754991819734835 0.1559392065042024 2.520890287876929 1.057708388909591
Ni 0.7348085500877979 6.6497048801787235 0.6758996060375475 3.0186257779948917 -1.344609048926736 -0.6613880061060222
Ni 7.406824428212334 6.642340569169524 7.962975902021625 -0.2229411264460483 -0.6616590003792218 -0.7848672923093064
Ni 6.017612298601168 0.5329155479688462 2.4856748785307863 -0.2064433859013412 1.6592691384453362 0.8408209248567906
Ni 5.691679166181471 6.594098326033977 9.694026967027687 -0.26641231025580564 2.5168089187187044 0.6165939897197832
Ni 7.815428188736557 0.23599521371450027 4.655179649751435 -0.5409271950140878 0.4245770636564172 -1.193819504944273
Ni 6.09293709577431 2.272273407952665 0.46403290592194596 -1.7186078854149693 0.21134030898232634 0.12827259382686942
Ni 4.375555744327856 7.787477071041667 2.5739717663260286 0.4620915156621074 1.9028870765144454 -0.6325646541164267
Ni 6.160278499331455 7.41075144474798 0.7705176044493437 -0.5483047184250814 -0.1806793895633598 0.5339181106861063
Ni 8.157244948038079 6.072147008232655 1.8122201867881373 -2.356139139508052 1.01740866084928 0.9914469466781957
Ni 2.3770646892015113 3.1869725795131094 9.122878910071686 1.820140492143833 0.6525745215794503 -1.5149032386010295
Ni 7.014982098266139 4.671551150687571 3.4792100620491837 0.22415288736596237 1.0875028465632046 -1.2014703366213115
Ni 1.5077341086764107 3.5537282038257088 6.521819045684717 0.167121448373267 0.4467921663008757 1.0721487327046375
Ni 8.698803628400908 0.8441607145413375 10.189847454798878 -0.03932707973439679 1.6431580918160862 0.8341741089642344
Ni 0.6141391859804726 0.8292860999082018 3.0785823031098305 0.642998447855241 0.20675011850848263 0.19850330511865813
Ni 6.389708665402247 0.3509163496175309 9.483867826102175 -1.3525576143498512 0.6742638336274258 -0.8477161093147271
Ni 3.401443122592817 6.763154077883805 0.4008070156941571 1.0090204367855848 1.3743415429941621 1.3680793641345341
Ni 6.610730396067302 7.703679158190438 3.1523409136881666 1.3289715994997953 -1.7681317031767099 0.12412000511107656
Ni 7.268436365496175 5.912894937663582 5.3750341208714945 1.2252340146998124 0.7532725482221607 1.0117776878157478
Ni 1.042913951439554 0.9634680969137118 0.587189688503144 0.6330346517743098 -0.14330274868711448 0.38875156931737564
Ni 4.455130959398401 1.0169586821486618 7.9468280100270485 -0.5213711272590311 -0.6404599977041034 -0.9706400372351736
P 2.9760040111793074 8.319333710551724 4.222460311682784 0.5586786054602378 0.48908398509055123 -0.17882022486743399
Ni 0.3583573529496617 6.548397093597969 11.48067349813181 1.8315998989336846 -0.7287840761624933 -2.0429157824359785
P 7.275347914598911 8.271969271112381 10.699394020367015 1.3953364000782742 -2.065332973788914 2.593963610823836
Ni 3.168963743682583 6.9714430349344605 8.973549717285271 0.7111447658141753 1.6357003499864604 -0.8266178938835312
P 1.6840432910685479 2.5305047752978287 2.0111277323361074 -0.31039102982960093 0.3686645687595135 0.2993337435741748
P 0.334196499214587 0.44526269088544956 6.773739466456124 0.41790556517351257 2.005288716111824 1.817580444726141
P 3.1928030440636803 4.873584601397915 5.371598674405722 1.4547167989191205 -0.16762075660718873 -1.619388500200314
Ni 4.295472327117403 4.854152799575648 9.346804784965338 -0.4161572150238381 -1.133139156345081 1.18452393857496
Ni 1.9261507905202946 8.05036541799616 2.235486041050626 -0.2990648061835043 -0.2936060970617782 -0.31408313396920745
Ni 3.6859346805128164 7.432631856880708 6.214992465717745 -1.4059722825255656 -1.2925125853418127 0.15794440985968927
Ni 2.983469962616488 0.2452186205518689 6.138800028891199 -0.8277188402571939 2.1242068653069865 0.4087562945740767
Ni 5.207704408289571 8.919511197743113 11.655346269633446 1.4040400984998593 -0.6757573874538167 1.6480208192250263
Ni 9.196047082163838 3.9050714432407614 4.881769427862092 -1.4131379470360697 1.6978053468473213 -0.6194921372031847
Ni 1.2338501154221087 8.41128133771928 12.602466889712183 1.0156739375463604 0.08417226107354536 -0.4321916427788815
Ni 3.4549706679833965 2.5017774943347155 0.7176830619768192 0.34389353246242066 -0.27695794698213594 -1.5685714175484469
Ni 2.479167119128303 5.39609956157259 12.544193660338761 -2.1875454774646323 0.8664303978947787 0.47003313910668726
Ni 0.6951623151478084 3.410655441383496 10.561330283016506 -1.1494700322946203 -1.2342920111370226 2.4739643127493522
Ni 6.542030706790768 4.557732351426193 9.068013407047314 1.1057779907233085 -0.8803385233354387 -0.9453154424274558
Ni 3.880345099124554 9.454869811999075 9.964352621298751 -1.484265716220831 -1.521249749644348 0.7007940187074705
Ni 8.275656046636435 1.660046910026025 1.5840614500710046 -1.5353414518507236 0.04984057767121094 0.09226403694274433
Ni 1.0526529524479558 1.7119020083743646 5.271766522038479 1.769765382125391 0.0703016737390402 -1.1517781116025068
Ni 3.5231621551200227 0.10313546627663941 13.712928297576518 0.25923070490570194 -0.4425475320919088 -1.0271909370470245
Ni 4.3192099870705185 0.8225981597470242 4.226977766704613 1.2370911711487147 -0.18708914974444554 0.6867395974969335
Ni 6.302685978972335 1.73073320766765 11.777086554250138 -0.10577544116561784 0.2765859083546979 -0.9033154438465861
Ni 0.6981496197265714 5.805414805092682 3.263898675428903 -0.03383674604378689 1.2251327132352576 0.9365906609599483
Ni 4.670682587030275 3.4646911889139833 7.286423949237213 1.8742745549840754 -1.3364841058267565 1.2287466558387614
Ni 6.695729513976493 4.206185831155177 1.2126876543124856 0.16914722055404416 1.2131480300695558 -0.3161423304910813
Ni 3.1779450615005778 5.021646984850125 7.3847010030563425 -2.4835226458617488 1.4409038042954283 1.5533173196028538
Ni 2.3301437716297237 4.7272501052213896 1.6194258509813042 0.2709811605734107 0.01522787269334797 -0.5498126704291757
Ni 1.3872070411682593 3.2295783989151396 13.135680890937737 -0.5578075157091943 2.057220629094425 1.7329137605146798
Ni 1.8229303158857069 1.030523059264728 9.202195404052825 -1.2096973525167942 -1.5602389864233515 -0.2710413243873848
Ni 5.563870948014287 1.351503530830058 6.067922462444192 0.8460158387941689 0.9370568019630894 -0.9128424095004151
P 8.569369163386023 7.453089303021696 4.046246301691394 -0.2462533188094275 -0.776770888454417 -0.6192324557838949
Ni 8.619320813719437 7.930669953989675 6.294782973694834 -3.4953160174067803 -3.8967032732102953 1.156957598920917
P 8.016888757034643 4.497847659267321 6.921175375270412 -0.43371759250510467 -0.8016103160956001 0.38902359203183967
Ni 5.843262004457401 3.81235689284389 5.148159749562491 -0.2122435375228861 -1.956675840200127 1.3716066605615023
P 7.511079787204551 3.013130487509249 10.507560648606551 0.9691940488172663 0.39242721839675 -0.633768958837173
P 5.551914337668109 8.25493987940604 7.874990403537561 -0.2831363078787059 -0.7599715575088912 -0.5690458076271748
P 1.1510501267728794 5.79742217143778 8.070760031872577 0.5221113478591654 0.19044649625245266 -0.20743146084622338
Ni 7.316586208242646 0.29193625726769334 7.164223510682932 -0.5722244624654725 -0.3031749716971359 0.9069088176247995
Ni 5.556987119028273 8.125699455208208 5.147619207286407 1.0045356615413539 1.464783182016187 0.9537021238292543
Ni 5.789642058677747 4.261321143315644 11.374323422319284 -2.113533958974173 -2.0523255057856526 0.5094728331595484
Ni 2.054356330360497 3.858233686019141 3.879918209327032 -0.42479689297670714 -0.7674177293742912 -0.709738629495268
Ni 3.1153068377472994 3.745837852749503 11.398774413276051 1.552422061482094 -2.5319933397686265 -0.8573096665404331
Ni 0.9827982583079967 8.452815312608053 5.068680630896583 2.9038239649609476 0.4413851363526914 -3.6333714016520267
Ni 4.29124962933672 3.2574555962987715 2.719622499623406 0.8644359931725693 -0.5092800004224519 0.8383709206544013
Ni 4.774355823571325 5.525672627171088 2.2123471356187094 1.5074688938101717 -0.3110880558966255 -0.7840854198379593
Ni 8.277217613211786 7.341358752553391 12.953165174411499 -3.222634072092179 0.4300293450202401 0.09829250252501137
Ni 1.616470886538717 1.5382077569930224 11.828977688750218 0.745617088559432 -1.7825249957839042 -1.6822105777328575
Ni 2.0494313896228515 5.386194239863854 10.111436484630666 -0.7781091476498663 -0.06294677603586578 0.1824287681542987
Ni 3.1080534072049892 6.239225391756298 3.5199429255646844 -2.3637269791576387 -1.2081423493248482 1.1028304780592104
Ni 1.4569785749580515 7.812388215936022 7.28747916168044 0.8861726135187125 0.9113897362142885 2.2652377872407894
Ni 8.940624686646526 5.017054685513146 9.417331229933865 -0.9612493400488928 1.0367114749429502 -1.1355037999225155
Ni 5.056916213359678 5.915204947390433 4.78277534702375 -0.4306734063621422 -0.19401827276411102 -1.3472135764291184
Ni 3.586447181596819 2.7183085660907738 5.399322487143491 -0.11864844047354405 -0.7207326666129265 -0.23663816431716667
Ni 5.5286941198938075 6.501975138127181 12.293639841321758 -0.2075168214711781 -0.20806240956200295 0.19669967625101606
Ni 7.355329691381383 5.650108231137071 11.149761832748803 2.447278833038366 1.8042523601586666 0.23430257420545456
Ni 5.190074414054248 6.086542988850388 7.155256976927189 1.8591883500749142 -0.35645619961877967 1.1239456627712707
Ni 0.10580121750142489 2.681348410461166 8.431857056358284 -0.10344550748086055 -0.36450812338897864 -1.0001077076769873
Ni 8.220881095993356 2.1788658546377384 5.923217909130932 -2.126130564692261 0.4651027916846055 1.6192476037470758
Ni 1.4541696031302012 6.043253406569209 5.8300801649521015 -1.0030328517435823 -0.5228801077043899 -0.767281203796427
Ni 4.515181972257607 4.580777008461253 -0.009920105770986766 0.22910740315776026 -0.24049250506625033 0.0002969624151285208
Ni 8.784994711329153 8.386416393019463 1.7214765366902147 -1.0049012724108888 0.6411536813370184 0.105213912235193
Ni 8.282151793988339 2.931014261739167 12.75414952040831 -0.41770579045788064 0.46004337488382707 -0.6030334774265292
P 1.773995069832106 8.14682218415053 10.311114649423512 -0.38593029781849664 0.5727656796809233 0.3104293392667041
Ni 7.001232920371924 2.3144819056816774 8.369755678865525 -0.4126013793517797 0.8614026056628843 -0.4488400499688399
P 4.016626432969826 1.721428488487896 11.89325601940956 -0.3732717285142217 -0.43861965779241235 0.3760719169671782
Ni 3.547666738302453 7.307438569724319 11.440805502258042 -1.4173946654298943 -0.22977666131064298 -0.3674551218324446
P 6.431963363325796 0.24535722113547995 0.4769671123845272 0.7427055713395918 -1.185095494807714 -1.1794303261021366
P 8.671222112262313 4.854245199964722 13.718472320920958 0.49147382547896645 -0.4028640974593578 -1.01570916165967
P 6.9313597461541505 2.5862129698705547 3.3621480091313085 -0.12711611162492303 -1.2088002946238214 -0.09513467362232003
Ni 8.178607917991991 0.46615072283952247 12.723044777434325 0.751837358437531 -0.273648937213561 0.10919912213518612
