# total energy = -340854.50141340925 ev
CRYSTAL
PRIMVEC
9.40124975821761 0.00000000000000 0.00000000000000
0.00000000000000 9.40124975821761 0.00000000000000
0.00000000000000 0.00000000000000 13.75967931403573
PRIMCOORD
 96 1
Ni 1.5852198998026483 3.1911507524055036 6.501778225081868 -0.8570810954693949 1.4527954135266916 -0.730345250002026
Ni 3.779264721684906 0.8226328403994903 13.62253660202763 0.37090991315026445 -1.870639015114017 -0.22526771769669593
Ni 3.9437019778939 2.26393371117719 1.7480156978369188 0.07961806604395966 -3.3873890771157984 3.3485137402068395
Ni 8.994043845037876 1.0750610919482633 12.685501835874554 -2.604111755001431 1.5908564541988925 -1.4459634782065227
Ni 1.8268696187207192 8.341916767444081 7.3663679021822395 0.5560223987843133 -0.6268164387787398 1.8741994787717657
Ni 4.85391215865214 7.1829495230937095 10.90753187666132 1.4711597749664922 -1.147663318103185 1.7594071788195185
Ni 4.052709466644874 6.5125558175876135 1.6381310725011697 2.769049051239186 -2.6387329446197265 -1.8869341527296146
Ni 3.801207238178634 5.26946619209505 13.11362063936625 1.9681763846405587 1.4541478137895278 1.710943941111808
Ni 8.40769731067742 3.0797271425153316 4.170352003124848 1.2039619926949137 -0.5362981808825086 0.44968182914384486
Ni 3.1054583625853116 5.838693050990606 10.70990162859954 -1.950708052652466 -2.3996229217232994 -0.544332621151211
Ni 7.965669358448589 8.11375784165733 6.8331807335089225 0.5845228202168513 -0.28318310195624136 0.8073019671637387
Ni 7.298866930277798 6.047372587670671 4.049996266019299 0.0505039222868227 0.639383476810473 1.2507473284795685
Ni 3.483492008998887 7.437516558919399 9.204853704870247 -3.401027236724523 -2.697646688236799 -3.709866605796288
Ni 3.8373832465196207 4.467859246356323 8.24390498018885 1.9591476987793872 -0.7574601039409471 -0.32962776657202586
Ni 6.364871588110334 1.7464607311582285 2.0106471255427794 0.2807420966149165 0.2937189684905587 -0.8720847679670788
Ni 5.011984768903012 2.1526887250288262 11.670216709059995 -0.1497778148884969 -0.6049389219793582 1.2356233283539364
Ni 8.713031094174973 8.03101744420176 12.279687496984986 1.2065053279420577 -1.332851908390808 0.17477048027809255
Ni 5.828154250223909 8.778181753687198 1.6153170601724085 -0.915783751516926 0.09615128781229247 -0.7911271571760892
Ni 4.643784829538468 0.7745595507291061 4.44839395912399 -0.784592698491681 -1.1070571145460484 0.4746361850963374
Ni 3.462884469943938 6.582275484390306 6.922315860921232 1.591009434836989 0.7767431205402753 -1.0479793345472854
Ni 6.692805975571435 6.408154941125382 1.77858950155982 -0.4296807034315697 -0.0961281478838409 -0.3195521275035787
Ni 8.073182048518115 3.9532066412080207 11.296985220926194 -0.7437365837072676 0.4077165404556527 -0.6279374397570605
Ni 0.5950182469627758 6.207269040337904 6.548534399687654 -0.13105864121243882 0.3798290700167652 0.0597318686429939
Ni 5.001474171885023 5.707056754527376 3.8629612262216284 -0.6854298775465744 -0.12925886899953867 -0.48922565287473807
P 3.2444840412096667 2.521913400596377 4.47106977308409 -0.5180225225017724 -0.8429755093059483 1.932534467067233
P 2.637417152799435 4.14532117614775 11.925926936833259 -2.4449987787549374 -1.3936273878069676 -0.723664752658057
P 5.302032120601593 6.210465465191317 8.98582715291469 -0.2392753448296976 -2.3691070125226297 -1.4922150529748948
P 9.278243619504623 5.799301815297066 10.564915557748526 0.1429366235969474 -0.23134297735649836 0.17059063786879006
P 2.006433485486015 0.24471076577769288 9.274010236823765 -0.21611459044251813 0.9559932338562761 -0.39553439656716394
P 8.938943121314766 2.444259079157563 7.1838050368044755 2.7953691771909535 1.0655047450255584 -0.9805138447054595
P 6.286164326719808 5.930919309261157 12.231020048341849 1.3100778479190855 1.6898796642423413 0.5748904393334099
P 2.5808780378922895 0.3414148392178949 2.066181246871014 0.9546241214228913 2.1625561545091467 -0.1485179743394668
Ni 9.366239315469187 0.5432972724596726 4.896368201705127 -0.5141527551337209 1.082079618665104 0.17475093989406676
Ni 2.1621369808455344 1.022545711856591 6.272460125223275 1.1372632058157834 -0.4684405978085868 -0.5860873364904939
Ni 3.6302361135192793 4.700380351943027 5.591768290939444 -0.047695506303750114 -0.9421671266064612 0.45666648799179416
Ni 0.4885904610934982 4.065260134819306 12.7376928728561 1.2493429919328742 -0.5273805666779046 0.7719184454581222
Ni 4.148216761014959 9.15425994019045 9.875968486218275 1.5379968871956995 4.250857821279092 2.8294406649533657
Ni 7.2076278032119765 6.362587084465099 10.168498707927991 -0.03705242476760715 0.21290122571154302 0.01600331740679179
Ni 8.96851945245841 5.524822932884524 1.8093569710238402 -1.061998531644513 -0.7763445995502758 -0.5509123312512577
Ni 2.150695660120227 2.6834080656903163 8.622943620181337 0.9938329304118692 -1.9292948770840128 0.11213892148980041
Ni 8.552062899056889 9.082227565993817 10.460974402390212 1.2462224440260217 -0.3436276803955437 -2.746345181883767
Ni 1.1615713904809464 1.9748640894337708 2.53129960816593 -0.46572628420121726 0.8423705287320976 2.3277382197678556
Ni 2.871790304551206 4.137847182740503 3.1902914781949097 0.24012200910070902 -2.273615212671207 -2.548103615066928
Ni 4.274278116483852 1.4478394398528442 8.455281735370223 0.16974988713504957 0.6092257222801701 -0.8611110425643945
Ni 8.512389625876285 8.32719441061924 2.5303632437088712 -0.12974686437955074 0.2541373495431946 -0.4455739776230584
Ni 6.619739463922227 4.4835781356354625 7.939514142023054 -1.6160203550590297 -0.3134555276875376 -0.16465756021380673
Ni 8.295211359585966 2.838979943555872 0.7274094637663843 0.24114479393826854 0.03362257315045177 0.12416937029177325
Ni 1.3623068712753228 8.64505065854252 3.49147743038268 -0.5314565365194912 -0.058198719827919125 -0.8308674131885045
Ni 7.857987445886825 9.09519188914928 0.3983083812337869 -1.530241925840629 1.6834670758477783 0.48961723188620193
Ni 8.270213436982358 5.89648253209041 13.346214134574634 0.4074185495992596 -0.15360850148849675 -1.4789623017300466
Ni 0.14134966751777853 6.55915781170047 3.6985465330115996 0.7174249423959321 1.5216955789325148 1.7819552393233633
Ni 6.319482355191861 0.7015127817039924 6.65956127684602 -0.6291695123919487 -0.42536227856187386 -0.16743358029704714
Ni 3.721635061827772 8.158197548369348 3.065312206551393 -1.1432559330641083 1.5690049055414397 -2.342440044754404
Ni 2.507623501251704 8.0177804848088 0.9821438418343996 -0.6914190052504737 1.0458936556628504 -1.9693135835687956
Ni 0.7854330359804537 4.688346752494882 4.6866564078224 1.2424210680020604 -1.3483392053931296 -0.1574448445154514
Ni 5.129613203508634 4.527068316141026 11.193347725928955 1.2949031970611762 0.32998077903607037 -0.5344840104919054
P 6.364533143125855 8.57953335029711 9.959820111372883 0.5291142615395598 0.42052937594960477 -0.7049244959360763
P 6.993279313041885 2.797125580475291 6.077842977648316 -0.9975831414829205 0.3120092821593143 0.050749462638725505
P 5.602467853073769 7.804296909599046 3.4926610477034 4.016435690776637 -0.7659180049003131 1.3086292883980173
P 2.641647715105424 5.859892868768393 4.134646057262304 -0.6877559545765897 3.665901513069248 1.0051673815880817
P 1.260754573432458 0.24598839559410146 11.871685487320743 0.2191397504220871 -2.183451509900917 0.25351899923290533
P 4.381480565317604 4.100317394461599 1.2072934276341578 1.0316667134301911 3.501714721844272 -0.8800657292900262
P 3.961451537079914 3.227477180739593 10.040410443052053 -1.5238565911395758 -1.9762270228591772 -1.6912392635940292
P 7.204478384606407 4.277794183822607 2.9694627066970005 -1.0389876725716365 0.05187200627894293 -1.819076055435061
Ni 1.8726255003723786 6.084610937212941 2.000684621374655 -0.9850677826247293 -0.9562493157311401 0.8911163306772331
Ni 1.7052268505491925 6.348560420108356 13.347219128153545 -2.100063435291564 -0.989975761449308 0.015142254958077146
Ni 2.7214549226955076 7.7738650647446335 11.934250803201529 0.40816314107476803 2.304415228771199 0.2607890505317573
Ni 8.845391286855003 4.620150088122345 8.185343656499441 1.3157396741905532 -0.16990183933188158 0.34511377802276694
Ni 9.334030634446261 0.4974219949384887 8.215284756126358 0.9505764337160789 -0.42013059784928936 -0.30849766946163
Ni 2.0639503303483226 5.701105763550285 8.326614353520842 -2.7082326912827615 0.05620534354697417 0.9403437002444774
Ni 1.154003384578011 4.172979652379346 9.86523601971046 -0.4090565994233149 1.2607620324030933 2.433985972584202
Ni 0.14924295665579645 7.211294290543833 8.89685748749479 -0.362243238614202 -0.012041504545566357 0.02755374124855255
Ni 8.184474040914322 4.855096716097815 5.8446158382189894 -1.0317919261541455 -0.5391407925376263 0.8617497045896578
Ni 0.5674876277253156 1.8977362379708136 10.39532735690075 -1.8041721417400347 -0.7069878062230082 -0.6783801697886446
Ni 7.479577749490495 1.9627834837377809 8.516429342816027 -1.243890196348419 -0.26215070676597435 0.6086580227021583
Ni 6.512029347611756 4.541452227981388 -0.014306821593896681 -1.6829060611379856 -1.7396870746827717 1.4322492139442236
Ni 2.8756166131257332 2.91692570373132 13.720532407158593 -2.1376539919508284 1.5112126771233199 -1.51556735454759
Ni 7.50708580572899 8.369659854921798 4.628453271741566 -1.1172003736276372 -0.24269516914452396 -0.07859579542703239
Ni 5.914918382494951 6.156295465175526 6.253320121226026 0.22981085698268808 -0.18310496828571693 -0.21537436984238392
Ni 5.60311653929402 7.970078544496386 7.829986764170922 0.8705994416708037 1.0428702954554943 0.45713134344335465
Ni 1.111895187759071 1.0883450575890676 0.5066098361421392 1.4010208520575613 -0.49704849135326656 -0.965824618124401
Ni 5.322743073401799 2.949369415993469 3.8978690059957755 0.5787586640395646 1.625468130735491 -0.02586504069221997
Ni 6.962161176968947 1.243982744201605 4.413183459113726 -0.258838868783922 -0.13340605839869282 -0.08125225921327298
Ni 3.095267408052663 8.162164875687408 5.018264803615013 -1.2636540092389077 -0.8623893950561857 3.471209097056248
Ni 6.967566895471044 1.0466411145015886 10.938738384480207 -0.1890213337701519 -0.230280597530255 1.559520105979456
Ni 6.217666822361067 8.38684533913368 12.173352783486438 1.8789056259981833 0.768273135396051 1.5879531645091685
Ni 2.5845633277232842 1.768346840154543 11.414823303397203 2.1411555773461832 1.2585588541041874 -0.03498114406087524
Ni 4.49989870488701 2.5857666876680985 6.421009269660889 0.5748757840453905 0.024988808734853735 -0.7465714820529014
P 9.254872113076429 7.569660522859347 0.5230770648869607 1.9032588580315675 -1.6007400318611915 1.5134371955784645
P 0.8160369237019756 8.118890923921928 5.5890165451906375 -1.3679922037373666 0.03175620936567434 -1.172183414731736
P 0.8569229580769635 3.8187311673749953 1.456668153322964 0.7625627152748351 0.49480571806567686 -1.0991594569655263
P 8.379493561970829 1.1843882231845786 2.737763270322615 0.749816214242444 -0.4457387853356969 -0.02155432913200804
P 4.031406235121828 8.943042066126791 6.784539608364579 0.042396976908972143 1.4999044511993522 -0.32673116175052114
P 6.629986825952288 1.4284540632418472 13.436532879307663 -0.26499126153856295 0.40020711945248494 -0.36648015951368496
P 6.504395532961839 2.8321828401175835 10.141020735688118 -0.3465538529034032 2.6699582211825956 -0.1643695966597427
P 4.52405991627899 8.071348804852185 13.431070753308154 -1.3853283810229688 -0.37208593573623655 1.1091312234662576
