# total energy = -340889.77640257514 ev
CRYSTAL
PRIMVEC
9.08508823320098 0.00000000000000 0.00000000000000
0.00000000000000 9.08508823320098 0.00000000000000
0.00000000000000 0.00000000000000 13.29694496408587
PRIMCOORD
 96 1
Ni 6.540845742799939 2.2123643898133354 11.360724083358368 0.8253256574346689 -0.7223195514840721 -0.9148049325434245
Ni 4.995535799484019 0.2893146404901758 5.683579525740406 -0.998263455379397 0.7719017332875737 0.7936108428298912
Ni 2.757351588402884 1.9435457087813424 4.50714597617667 0.7756833118171931 -0.5228582533275188 0.7994135655545974
Ni 3.418237259868337 4.6665738331624995 4.85459518890841 0.9662843313696391 -0.9863376504760886 -1.191949798725386
Ni 3.7968946598052202 2.7387725825996996 2.327869478360986 0.20011050170477793 0.5464172715943816 1.2096024788101425
Ni 5.152090043005033 4.802477670722323 2.869520632485533 0.09781659132985734 -0.9045390318410421 -0.3273060604173847
Ni 5.119956085290674 3.219946120181146 0.22704817003869152 1.5523248737825974 -0.010715843755607352 0.3298702216001351
Ni 5.882758278565479 7.864888357833924 12.317585582137907 -0.01586139251228881 1.4798650160499738 -0.1038373436026405
Ni 2.149277535878219 6.659551507995249 0.192128724217117 -0.6216397796738068 1.5653814498562395 -0.16146707830096707
Ni 0.758617601552092 0.1469949134935766 13.373668965503704 0.4469945121196689 -0.43144525153116026 -0.2781753643290048
Ni 8.382765652601124 0.16229601939759777 6.572161134048348 -0.13351430184178298 -0.40785589424699437 0.8677840837091957
Ni 8.93959072139192 2.296619499749146 1.1836025928298934 1.0353107379406814 1.5852013127956441 -0.5782015059845138
Ni 7.159494838236538 1.1519256150626742 4.512211821475377 -0.919800843096119 -0.9257562893486057 0.784104703111669
Ni 0.9156588058120066 7.486185532454979 2.0138888228313747 0.12537598900536473 -0.1616300862413926 1.263932716821591
Ni 7.531429272748308 3.99298720809663 3.78337968228306 0.3985364166182814 0.26169176485168477 -0.5588151310381021
Ni 7.48724848779922 3.6139754897116663 12.682387313737166 1.713011365163798 2.169053332197716 1.5314359461487301
Ni 8.991094087601335 7.266153776197118 9.111412455989829 -1.777079399288301 1.604324149668024 0.6437546092949752
Ni 7.196480233163074 0.6236113707274065 0.198407428818868 -0.28297381415891265 1.195214842629903 -0.5875754910002461
Ni 2.429879576580984 6.592621661661723 9.112077484461611 -1.4823080782738278 0.7396436445848165 -0.31229493172053313
Ni 0.008264704928683088 5.069461163895027 1.1908424997856675 0.11588861834021978 -0.5166151006312846 0.9676048499532754
Ni 6.824273245998935 1.9407838419039987 6.886434329424835 -0.2872300183321053 1.1211601296063336 -0.17807820449508685
Ni 3.4755369124848086 4.862557360392962 0.2878056073048903 0.7350321139547341 -2.3889111917327503 -0.326846861392779
Ni 6.342400156609739 6.000709981422567 4.729510783138813 -0.73034499289171 0.0010567233992885027 1.131811952893225
Ni 5.6749096258685325 2.842542462445163 9.172219861242295 -0.1421084712686972 1.3725525694145393 -0.0741470156270594
P 0.3866631798458151 5.881867939901072 12.51201283372334 -0.3182442073254325 -0.6836573590271838 -0.5635801565269132
P 4.265158286752767 6.467147505599238 12.42074312702438 -0.4901054843765302 -0.06445601359154061 -0.732330655863171
P 2.788195463562694 8.735603231270208 0.923300273675605 -0.7048638179014699 -0.0005484163043022813 1.8629439604626046
P 6.720348919650462 8.130845236016038 5.61422305229195 0.08600931428228412 -0.7609287792158379 0.7124835392302568
P 4.936319193212548 1.224242918824703 12.467813878597426 1.1331304145943324 -0.6971489657557156 1.1318232657471345
P 4.394702562423969 6.5201589964850974 8.108065285330998 0.035704395380144964 -0.571977379451673 -0.7328453907160605
P 5.09258271390437 1.4191089801804506 3.7913709260505324 -0.9666201174425029 0.4365517195197901 -1.1708904069519255
P 0.32162303190205094 5.723078764630628 3.588579942072722 0.037710112956264086 -0.27363325348427714 -2.4530766706670657
Ni 0.6461369389369006 0.26145249134728776 4.638013949229546 1.0220050219707109 -0.42861035318552637 -0.2157862605688219
Ni 1.949478271514584 6.743216087184259 4.647920329634334 -0.11450716461166087 0.8102877892649399 -0.4264385423451882
Ni 6.358326316596528 5.927883912709448 8.890590297040097 -0.39190477023437664 1.0989023466493977 1.5776499828109476
Ni 9.013325298946269 2.9026403222926276 10.013104755385585 -0.8142488307952171 -0.18268433580853055 0.8592171679757913
Ni 2.518232061390749 5.380716292900943 6.83074728000155 -0.5374919440802937 0.543579030814638 1.5232518676760411
Ni 0.5916872785553722 0.39233136650625855 8.959774153808718 -0.22884103687025104 0.4919322531726238 -0.14951916191047152
Ni 1.5988029438876317 1.462190469431649 11.189060429298832 -0.326566868258515 0.07123986928259343 1.025933667601156
Ni 4.203261579399664 6.857206691493577 1.4524121887734742 1.1293367518798552 2.1051531911096455 0.7469322078264298
Ni 6.0832116692948 8.335804830597867 7.86499647038603 -0.6847210244050079 -0.2146801719888367 -0.19830173063081333
Ni 5.476009785257718 3.160565982318255 5.193268206233852 -0.16940535931143727 -0.37158277084757296 -0.916265319139035
Ni 1.1863581001453487 7.749398713936573 6.93413104358949 -0.7442939988726343 -0.8234731776069625 0.12346771623905832
Ni 5.326205762427053 4.724364080553236 6.995350003347035 1.0178871431475955 1.5314629427319237 -0.035763787863170665
Ni 1.184631933347009 7.524388329228764 11.293388133572812 -0.7056819429273912 1.2795670809247381 -0.07261283837072009
Ni 5.070460523620382 0.7214268836274387 10.407452103010534 -0.26454568936071216 -1.8970496438970617 -1.6350339200470552
Ni 8.381911654290366 7.34189615829059 4.528235191908177 0.7783292340804724 0.034311371687360266 0.6600870279064115
Ni 7.801356334566604 6.535331094133663 6.96886242808093 -0.03664773313002075 -0.2598559971945267 -0.3911905177761715
Ni 2.6262537626131763 5.350853607289665 2.3949392350560617 -1.4787784678540146 -0.18908766823171305 1.1570182769555235
Ni 2.5081203579878424 5.594397572358597 11.315980022927715 2.150748106130625 -1.163485886957738 0.40291809062574485
Ni 1.1133594147523966 3.567977687080115 3.549366883467487 0.2364237343135154 0.54469463247632 -1.1115886838678146
Ni 1.6780339999314322 0.9054716961752777 2.3954843403608006 0.10788117465471098 0.6154539625780691 -0.5960141086859025
Ni 1.6249952537803363 3.6069799716341837 8.265368140137188 -1.0815034344466599 1.0344450475062765 0.39083519131928174
Ni 3.82098831427468 3.1282957482777114 7.233670951087727 -0.42107290715790063 -0.9313970325741507 -0.21829411459234016
Ni 4.042146621495667 6.982108486986085 5.922619103974512 0.7259579195676078 0.6776348069821878 -0.13193024518411473
Ni 8.224385306309234 7.355087706665271 0.20055605222838055 -0.1291112876780809 0.2032079096831791 0.0737315253561956
P 0.5722551829502713 5.663108096020936 8.039000443220578 0.692811000501994 -0.39978802963719534 -1.4658255072377722
P 8.778239551189202 2.2077309947230543 7.919820436410146 -0.9033817783081475 -1.1204865005780766 0.3114143288877927
P 2.1772686932765617 3.491517583002071 10.38474119899743 -0.4342017312303748 0.643488243007466 0.5783197767299331
P 4.0682208252390115 6.434568378552676 3.736387970979201 0.1820446453420026 1.2449320073493721 0.05861266743688615
P 7.131331064158362 4.425991606915982 10.47763350248683 1.041938013449212 -1.661418837798487 -1.1770150317924246
P 6.698608303079791 8.008369159129616 10.18417061062759 -0.7080455580635613 0.48700884772907743 -1.5622884127532126
P 2.5127264978128863 8.983408102804516 5.7729622595761265 0.6738025777202912 -0.1820420742388413 -1.116410016515858
P 6.825690519791255 4.201053902915471 1.5433893556255567 0.6973510544641925 -0.3431486838765961 -0.2372300322648947
Ni 3.1341738004804793 1.88812666946622 0.14180369397477974 -2.1243503328633864 -0.7753552390538131 -0.07670012106621629
Ni 1.5003205854981356 1.5554943274261255 7.051663015361929 1.071800348226283 -0.9658205043593431 -1.5142108405196955
Ni 7.224753028302199 0.9687157221399271 9.115321769533649 0.39209580319926024 0.0988961975472813 0.13643456081237146
Ni 3.0496915633343606 1.7682489278657216 9.166541680984599 0.08758977139552657 -0.9573929424172802 -0.6518702964235741
Ni 6.767555039040851 2.0899064831037393 2.2886836750209882 -0.46236096727341014 0.539656041611148 -0.04690926295702889
Ni 4.461677834199556 7.420218705493159 10.178971214529222 0.30814979920390806 -0.4081322878368326 0.07688318361129985
Ni 7.498813805348097 6.3390205037203575 11.272485162153757 0.7454067723208387 0.02879275586197622 0.623913663309648
Ni 7.743802299474588 4.1823113655208655 8.140376402269396 0.8648057178071622 -0.4642101046670069 0.3804705602555061
Ni 3.409633681141875 8.55223889184445 12.169324207319653 -0.2475465836995543 0.6173583786896335 -0.5863151362305837
Ni 0.48034770304476765 5.353651814520657 10.28775333765176 -0.838258563446253 -1.849288317352383 -0.06733256380838727
Ni 8.935011836832112 2.517587020113475 5.202004427251134 0.3891619173819169 0.2738515401426703 2.089809875884356
Ni 4.035432741158966 2.667073064849708 11.189392943534724 -0.686658607747353 1.523495608255731 -0.09278957042891116
Ni 1.3464646132355786 3.7808776489343083 12.663652044413292 -0.6303103108646112 -0.5344860673744343 -0.7046468167946575
Ni 3.316566035446118 8.46774756960992 7.7971953640737635 0.8948634564244912 1.552397893112378 0.6182878324824385
Ni 5.684712436265421 8.10652445433627 3.5018963880042997 0.18020784924357994 0.03511638408715888 -0.13870921577916112
Ni 3.3921085455945184 8.760569054227249 3.6378983445189745 -0.38577011809154854 -0.4525630073463819 0.09907103256224872
Ni 3.859336472463062 4.690349509537528 9.306332119367209 0.32506662956390464 -0.8223231231629193 -0.283688323727434
Ni 5.255759986877962 4.780273714642624 11.341456427853531 -0.5528789680593252 0.026390831288702937 0.3782915503263162
Ni 7.991434554329061 8.675587137218454 2.689972030192948 0.5498782335597885 1.1886783270629657 -0.7762001035526116
Ni 4.928542357531607 0.8602615707090738 1.4339158572748416 -0.4049145522304833 -1.8369290244560816 0.10715123846722191
Ni 6.0927873524813805 5.774909194022886 0.23525382189269456 0.3536521545110813 -0.2125430710411759 0.15244404886675036
Ni 8.342618646907104 -0.022088575456861815 11.006572800904863 0.5391269085805553 0.3226027414044444 1.3344627045213533
Ni 0.33535696005494775 5.063719388018444 5.626309853915695 -0.12745575435252887 -0.6192892771637593 0.8173614082822698
Ni 7.238044512649416 6.310375219956328 2.4590436188933573 0.46100908123120604 -0.49374950888702057 -0.1498788592427354
P 8.785507621919054 1.5986666675614472 3.160365201864342 0.2612387364746662 0.48313959458165834 0.68818430036326
P 1.9749528594227157 3.4295754502069062 1.4404580294405498 -0.616295484642758 -0.23547551146763315 -0.047781638259653196
P 4.922473518472181 1.333300320126134 7.870714625032741 -0.09085404396909515 -1.0720029511553926 -0.08824154604691253
P 8.709547197703687 1.7662320382381875 12.357476388338698 0.3905014621289468 0.39720972738705784 -1.3438246053522276
P 6.433859741656516 8.132916636174045 1.32925473025613 -1.069868678421209 -1.8457311961287437 0.36368048528136077
P 2.046016420983845 3.3687962087285177 5.993319261999148 -0.9246931381914139 0.5338322358405193 -1.113678733627624
P 7.333465196243961 4.3049600590871195 5.997959016651317 -0.9935665641243597 -0.08533877057782077 -0.7849192285931643
P 2.35282894175614 8.871779621482398 9.982601571041236 1.6503720930660222 -1.0579804116240552 -0.014583811351445852
