# total energy = -340887.9037109197 ev
CRYSTAL
PRIMVEC
9.11836536241574 0.00000000000000 0.00000000000000

0.00000000000000 9.11836536241574 0.00000000000000

0.00000000000000 0.00000000000000 13.34564940639024

PRIMCOORD
 96 1
Ni 6.350722515383471 2.14690996606419 11.628611008404414 0.4496694878486707 -0.5305767050176992 0.12799285780292152
Ni 4.75828209990744 0.4239237398089756 5.9888601927435055 -1.3139843820623436 -1.6425482261462294 0.3113942742831347
Ni 2.8803456702734804 1.697958137476528 4.983719089892495 -0.2312308772586663 -1.1728066501380319 -1.0300176078625423
Ni 3.7006885131266287 4.409376974205142 5.277270267860934 -0.3211073878058405 0.8340506960124926 -1.4819920896953058
Ni 5.561053853035825 4.074942694062367 3.2741149763928914 0.04134848103979975 1.6253729999185234 -0.6792923971902688
Ni 7.306263358936702 6.024020608923414 2.7718644795856213 0.054122235765700334 -0.6039336206432954 -0.2975637961579456
Ni 5.162772779819469 4.529547909068998 11.590202630543155 -0.5307073170582924 -0.6279893760409184 -0.18875239637948138
Ni 5.6862763622159855 8.210121308582329 12.71393263189723 -1.1062292193281142 -1.0068149444938337 0.27439764245412746
Ni 1.9398774843824356 6.516348500728875 0.1116133491312714 -0.7886828094006547 0.2702154860519798 0.8198780040565364
Ni 2.4402933661130977 1.271875168790114 0.23212895819938037 1.585223167172515 0.7719063612732642 -0.47722425753848774
Ni 0.5658173560694594 8.836124434100826 4.5155667197202805 1.8496657552964597 -1.7473533329787776 0.7286570636663258
Ni 8.82961392135382 2.3187090846445004 1.2609686921841001 0.4707173096579054 0.17108094724164732 -0.040940704078419814
Ni 6.819032633273506 0.7908631681877835 4.62030390966035 -0.985112776930052 -1.0935140857542909 1.2048366819903833
Ni 0.5943842823791168 7.175752197945249 2.3309778450101817 0.9879456183931568 1.1989311151392255 -0.29717993045596564
Ni 7.951843614522177 3.830442849807156 4.074720205951684 -0.1009307114788068 0.3165282530755904 -0.8500820384437424
Ni 7.870115707307311 3.8644817070684634 12.561738910315992 0.32195816584191006 0.5602390079688222 -0.23805998436535772
Ni 7.9243973352946036 8.88789851166035 6.847065223382919 0.25151045344330875 0.057377766588520535 0.2198455182398601
Ni 7.045578416465895 0.7675548030842863 0.41032369812527864 -0.03215910123104785 0.0495011920539212 0.05203167178525878
Ni 1.751592361535197 6.832655470870183 9.18124635008501 0.5467864820083421 -0.3447836483768578 0.3347748579906041
Ni 0.1380265175826054 4.953871033273378 1.2915708376045862 -0.6468301628965053 -1.0333083627986719 -0.5556161644848302
Ni 6.483841528819804 1.674295979803586 6.965254737490577 -0.1983922334620906 1.0898831738699228 1.1745812255399513
Ni 3.7098433517792815 4.457412522035994 0.37762615238369734 -0.7955178300446171 -0.19594197214938514 0.017290668759647642
Ni 6.035227079744241 5.788511472747403 4.9816373671191885 0.5483479129581912 -1.3731842894612674 -0.4198488049428124
Ni 5.223537565458193 2.6572192740280483 9.53665378200564 -0.10861419616599359 -0.11780743262948744 -0.3481569357244649
P -0.0608450272524119 6.011683460818794 12.207918985775267 0.5450191056952742 -0.375007994479038 1.037569452067871
P 4.358332365860968 6.2690857918205225 12.663606550730176 0.16852578491996137 0.7718811644622835 0.23811269198016408
P 2.3488726366992565 8.218419020906943 1.5043615669050163 -0.03031587737472198 0.8831590235033693 -1.501841520321065
P 6.28024667081539 7.908048106505553 5.738589335158349 -0.3635884397881867 -0.04018891351405982 1.5692080226911813
P 4.5983186193461965 1.0934561170804953 12.657147100828245 0.649106874745824 -0.11019902415461022 0.8578994776056321
P 3.7270679436267526 6.546293212019026 8.024792359730299 0.5363298054513924 -2.0116884489905806 0.8125472747230781
P 4.63988012789081 0.982321482121798 3.6632603595234974 -1.0456319173610313 -0.11894026068234999 -0.25927261388723094
P 0.23357513091881338 5.771706325698758 3.729187963533866 -0.07506952744132878 -2.425055245753475 1.0019041374557778
Ni 1.5803312265012082 0.9948774709910239 2.3376105438507593 -0.1661454576132429 -0.5413380572992612 1.7776751238907709
Ni 1.9222152110057538 6.36397150000728 5.071640190745692 -0.10604155034281092 -0.0706145769937687 -1.3739985578324465
Ni 6.077253624913641 5.9222687717471665 9.169982433563474 0.16030468256174973 -0.9014493371721249 0.9194264904758359
Ni 8.92722602073295 2.5018605678887074 10.362322661967369 -1.1594397419128226 1.1383111874643235 -0.8800436178028394
Ni 2.029055095959073 5.225115042636388 7.087180045817352 0.7282374596304039 -0.10993137231552035 1.1268659217418593
Ni 0.49713144658854547 0.298858978346635 9.267271742814811 0.20583917665843907 -1.3485621200372129 0.09347194120791644
Ni 1.354040757534192 1.1478015736241314 11.467809550082038 0.25240159779901045 -0.6947817510751195 0.47637810748810855
Ni 4.14958563152314 6.933331340953787 1.6482411631042928 0.7706066686252342 -0.7193728101509224 -0.823302199246737
Ni 5.5635887585591695 8.26904418445229 8.216942757582377 -0.03505750582476543 -0.8392844336076062 -1.0844131518942872
Ni 5.160766739477254 2.530975507946397 5.0202992355327805 0.791331045656779 1.5393156060071231 0.6225592061642827
Ni 0.744816335805282 7.547808852869743 7.079706633706083 0.09037838988425725 0.06800953527075385 -0.4959282617058943
Ni 5.283582000246756 4.650430076417821 7.19528008884019 -0.10388542323175658 0.16807944141116213 -0.7107277328814147
Ni 8.278928492320293 7.131281930904424 9.58485893142906 0.3673281093362771 1.1414705590289116 0.4196498015581289
Ni 4.715963767051901 0.3882490478322437 10.45546220321988 0.17245211655756107 -0.3119660876262047 0.11996150285801274
Ni 8.014997411841176 7.181496768016136 4.784268528867793 0.7675236588245362 0.6572395311552874 0.1349651753556966
Ni 7.292704349896368 6.363561173573645 7.235089959431442 -0.5100328194280764 0.5272440411000403 -0.702224837616726
Ni 2.2455068488840455 5.306159072461864 2.344669982182317 0.16803933220184608 -0.4729351432448307 0.891290137250936
Ni 2.6665200065237715 5.509489497875713 11.49388716269431 -0.11890837900315004 -0.402778479724087 -1.3912162072623135
Ni 1.124312664889835 2.862026874602983 3.71444083150903 -0.512045478982731 0.7590924973380475 -0.5660828683441089
Ni 3.562244374418235 3.045068937464887 2.531082192819142 0.9574829310279251 -0.9338799468970045 1.223171475743829
Ni 1.1011884907632141 3.335516223922008 8.366347171251418 -0.6632152891227482 0.2767928821591814 -0.58453618995329
Ni 3.424684717133454 2.969368269641856 7.0188506644154405 0.38584673696575483 -1.016242922675953 1.8057068332170063
Ni 4.2772336258443415 6.88618939291174 5.972138022818107 -1.069984892284099 0.9948251191218093 -0.0018506800554935869
Ni 0.8769824800790628 7.870945478539772 11.379127977571839 0.4778246101266481 -0.9594984187960571 0.12341655128614873
P -0.056521098478419914 5.689586328780639 8.277838847679863 1.2805091331230336 -0.6394184438134665 -1.6589842602150653
P 8.517647293043849 1.7182100265677052 8.131263862729865 0.5031049819599916 -0.06404437997541874 -0.5925891421647536
P 2.200635373774778 3.6146840926367667 10.23212243722896 -1.2786365986906687 0.9518740694815802 0.27914004223511923
P 3.9987678712493575 5.799927665967643 3.5874302109147407 0.6508955912151307 0.1831697600853813 0.4971127689322986
P 6.829464043053022 4.011697713091451 10.279206027733776 0.38289845297070835 0.43972806036524265 1.2476002982101546
P 6.3998249119417725 7.947822415472556 10.248457988470221 -1.2535022655168864 -0.8993428323520835 0.32311516226448866
P 2.4005190571460946 8.431661109284372 5.638923779938005 0.19858866574361284 1.0415245800608772 1.6208463156927633
P 7.300473197039855 3.795537747852619 1.800781382562822 -0.7481375409884405 0.7610352228867152 -0.34900719953990217
Ni 5.529157811594611 2.8524161176907357 0.6139331455139995 -0.5178068069465405 0.022400479182387228 -0.9646480813177968
Ni 1.5720335141765927 1.2086028327236222 7.130607171880224 -0.8521093532864163 0.017141287665976928 -0.9113791946913272
Ni 7.096632143175261 0.7381918434933774 9.464014149377526 -0.2602236649465905 0.40988423753093284 -0.008443759891979007
Ni 2.5962630027202955 1.595540659641273 9.402143306041026 1.0930417741035625 -0.009822385407060503 -0.8371277922759196
Ni 6.240472361848387 1.893583544303234 2.5680763122391395 1.2201990233790663 -0.40688016059728643 -0.022832424513483256
Ni 4.2426932584974795 6.927267628101183 10.216801760033553 -0.31089882270395486 0.8548396077333859 0.5544709951367934
Ni 8.182447070224956 7.13865868834466 0.5757764345320365 -0.33141082661437765 -0.566279043515315 -1.5387702750266143
Ni 7.337247563858728 3.7170377419156786 8.159837171895157 1.3259814065232196 0.16661879770523563 1.2399155279713872
Ni 3.1567233192395223 8.441864559934091 12.29281096571172 0.747792498944196 -0.9790904819953719 0.9140528848687484
Ni 0.2732254301192072 5.017207197896213 10.309634012379098 0.47158325720262656 -0.8675809665594542 0.5520590432611912
Ni 8.674045492815065 2.1944713589050635 5.880120040484197 0.8790342027017184 1.0467588318766232 1.1279113322872383
Ni 3.4316237930444786 2.6092110812927722 11.58518479417806 1.45247608251406 0.04090496574447794 0.7045264891667093
Ni 1.482235853766907 3.659190833138359 12.582064658165223 -1.1728364749347027 -0.03734475919704536 0.021373323469453514
Ni 2.9873770408958293 8.587247774553509 7.959318850306485 0.32731814460224273 0.3198444619330169 -0.38835150566547955
Ni 5.577448673650834 8.042671650198546 3.627066832567347 -0.4686367729797929 -0.5500584678913946 -0.1596372241810799
Ni 3.0410295016848825 7.994107237186566 3.551090790115521 0.1807416102598629 0.4562527974931433 0.5587871060136441
Ni 3.8843870982823487 4.472229865472808 9.125901520716344 -1.0295496670871882 1.391742769189745 0.17260021209965112
Ni 6.9005325813585765 6.211877168606635 11.719695270142676 0.2888179316445155 -0.15085536422339182 -0.3790919347404245
Ni 0.47772391811413684 -0.06049852937512025 0.41225496787292 -0.0660189872032863 -0.17290180250047 -1.1599159102182928
Ni 4.556556506767362 0.22038450383223218 1.4857309231449565 0.22356384763171175 0.5139943751789857 -0.00447114839747617
Ni 6.019734977283228 5.329611507735393 0.7122008553504277 0.3759418191472171 0.39021529834709573 -0.24931447423325448
Ni 7.794606525153308 8.623101186488002 11.673198902356214 0.8513035695556693 1.0777532233756084 0.5951013670636461
Ni 8.956623630111588 5.1899637448216716 6.014644193996599 0.3102964132332656 -1.0652381216277331 -0.541333429313571
Ni 8.218865820801344 8.95111613753569 2.4604969278687583 0.1727735044527218 1.3334414623456905 0.6453090982662887
P 8.636787852641023 1.320886381696497 4.002013097421149 1.1518058795166484 2.64616960340343 -3.1234676516026463
P 1.9249963123892788 3.0901136615128 1.3391559381949587 -1.7247214545118745 0.9950680883705507 -0.43296863015422205
P 4.623476188910608 1.0931096192032037 8.208801881139062 -0.36728697168569646 0.9564609175213141 -0.6496221238193457
P 8.550883734168272 1.675937285538125 12.318834779969361 -0.5900982574220999 -0.45319267051058076 1.2824588006502367
P 6.61001234797992 7.869140042231778 1.729769378121458 -2.54712788141722 -0.07276761878102951 -1.299743298762297
P 1.6505608752091085 3.435079653452203 5.716755409706381 0.16734719123082792 0.1951765547382703 1.5415563224121838
P 7.061526437186503 3.8409927983341667 6.070615455053948 -1.6934997774934315 0.5770164845374772 -1.2482664710392437
P 2.6411253594643704 8.637781754446937 10.254823519210674 -1.2265236800455135 0.1695719667962886 -0.5952651463350199
