# total energy = -340876.7923581082 ev
CRYSTAL
PRIMVEC
9.18366624188210 0.00000000000000 0.00000000000000

0.00000000000000 9.18366624188210 0.00000000000000

0.00000000000000 0.00000000000000 13.44122384420348

PRIMCOORD
 96 1
Ni 7.860896829102132 1.3800203344907191 7.357336207917044 -0.5698778166101669 0.9698805333613296 0.3449227450578834
Ni 0.14041090909033468 1.3950172613766594 12.72901409210567 -1.0659523740859385 -0.5817915373286173 0.3681830011374046
Ni 1.5771477292284446 2.2772094191171974 2.7439187429873977 -0.02298540515157977 0.17707701692408212 -0.31385456289816915
Ni 6.776893606867696 2.746678434677064 5.0934844312711265 0.26362626287023627 -0.2558373629534368 1.2267777050378486
Ni 4.340301661047809 3.7659368102820587 0.6538577469274218 0.22328873959345413 1.2587650565777224 -0.6441850119641744
Ni 4.037837615127148 1.1974949689928251 3.538240664269048 0.8968303503428747 -0.43439662085000025 0.10895718132770912
Ni 5.681732230214143 0.6446024481425778 1.6347890100610247 -0.5338926567648096 0.48183835927173135 -1.3229637027428183
Ni 0.9500502672079064 0.3670720559238931 6.561884695694199 0.5067495206911143 -0.20087566200557663 0.3293475163274457
Ni 4.328647588654509 8.346354607496306 11.22205069499016 0.9687520761838412 -0.21496710710163622 0.5390610883396265
Ni 5.2397958458876195 5.824832116764492 3.1967396084806183 0.8258411636185068 0.3169797387907122 -0.6580527710852022
Ni 2.951648680339831 6.495203013865588 10.658715427316885 1.5030959615534565 -0.847161779473154 2.1443100638147654
Ni 8.708154320661338 3.567808395929778 2.1938896892547475 -0.5536955504233496 0.5879935523742713 0.3338127511876509
Ni 2.2227227276203925 1.663942558376651 5.042381002398192 -1.2194760291701128 -0.059876364640658174 -0.9991065201059824
Ni 3.7574602863900055 8.072460947088295 4.900966318593445 0.17533997962831738 0.6197065672068359 0.6195409881632491
Ni 3.2273423393208014 4.100323279874201 6.698689179072281 -1.49892434667427 1.0000076917640133 -0.01026770047459522
Ni 7.6440704703899165 6.9872730319155325 4.094532978342305 -0.8836765865697361 -0.028577040306744333 0.15424382107965048
Ni 1.9021668593082417 2.617436700405272 0.056307812501999385 2.1524810296613315 -1.5966476069593727 2.5953648620467367
Ni 2.1172391377784394 2.05775653187505 8.542354248026074 1.0122188891182244 -1.4124995421211222 0.15678869898869127
Ni 0.22374992465178067 0.046013841071227586 8.777266918930065 -1.044958802553407 1.1141934684805135 0.26188099804435544
Ni 0.9341349737031089 7.605196011413686 4.519745906539437 -0.07064902977612994 0.35527657748838165 1.0417251261074576
Ni 1.5305038886566809 4.662758548260995 1.2189305642435737 0.2859526942815785 -0.11650414043703163 3.120625039947529
Ni 2.4195195103753293 5.91972693949102 13.065635866048112 1.183493954648549 0.6361120051480528 -0.9914942549763632
Ni 5.2979009018627226 5.254517262787902 7.520700772279099 0.5024411231237476 0.8849554532821597 1.0805708953300617
Ni 6.062284989736243 2.929764003812461 2.8468511103621648 -0.26489201695653736 0.5770367962524514 -1.0081295495401994
P 5.109975540645948 5.968528941617098 9.870159011668422 -1.2857516124688952 0.49928612243453374 0.13648109777959075
P 1.7743577769618673 4.085124312332112 8.31691820226207 0.21809716809018567 0.9669918989596249 -0.42111378769816504
P 3.440632986550416 6.3368949761069615 6.065378966875174 1.5100927045862638 -1.9226622022588438 0.45755814656812815
P 3.8757183559002635 2.2181584455246712 10.992717101295726 -0.4057889844156366 -1.2052092348384533 -0.4597343282838404
P 3.672704231135663 6.107073729737914 1.3774296222589226 1.3030646498260463 -1.4668521487300739 0.5510807385083218
P 4.1648660858474935 2.4812888491596734 5.429662634136659 0.5689373070737687 0.21260117797262093 -1.6820740521549937
P 8.834741975404633 6.922996552261709 6.156322058040758 -0.5958588140549609 -0.2643921945019833 0.18205390131338323
P 8.215836343624302 1.4960100384523995 1.5745588537298858 0.7417807455324773 -0.7203919954440561 -0.35443556964432504
Ni 5.973230978705647 7.004492406019107 5.94616855118116 -2.037051096125085 0.9811815601964455 -1.1480219869941841
Ni 0.041921599417599334 9.127774396149627 2.7981271693986893 0.3561612940861802 -1.219242315892752 0.1084442462470326
Ni 9.066721383327993 8.607005421260393 11.17695522053779 -0.12053383042171499 0.1788413079133565 0.30517991794230664
Ni 0.9612451562917772 7.329998270406899 0.9560848542604179 0.0968629691673364 0.13374081603029225 -0.5595723209191008
Ni 5.85194229935316 2.8320222445674754 11.910134129069156 -1.581214046013122 0.43000131999578195 -0.82613581204079
Ni 4.106586540214807 8.048124231688575 2.488185782467292 0.8322982320977601 1.4928249186447515 1.2819021568158182
Ni 5.06039292689384 2.9500323550906424 7.277387801912419 2.2601858266391783 -1.7279335336912693 1.2368286615159474
Ni 8.594818696228154 5.638734305119243 0.41295457056862406 -0.5965825795948629 -0.5996977281850768 0.3950320030094487
Ni 2.8373028526259048 6.368872501775574 3.3390285773065163 -1.5031540684849014 -1.5361384938307223 0.8490463980903764
Ni 6.505525454661544 4.983736865217819 1.2096321022276433 -0.9690135573753441 0.4644731285204065 1.2373068867039463
Ni 4.462931155663828 0.8088927260564408 9.104399210599853 0.4600107218736787 0.6308304450341393 0.7855360362415569
Ni 2.3408705931363873 0.1720449656434942 10.414300417007578 -0.3343020321192436 -0.09044421012518616 -0.4042028708754394
Ni 6.774303813002519 2.281075742582587 9.455174850872124 -1.7520509955647632 -0.27293494186567185 0.2020311157662585
Ni 5.65941592137591 0.682193030585646 5.905576746627665 0.05203141467494264 0.6553168602112779 0.6474927361811688
Ni 2.721781515639842 0.7952761041986431 12.625892541207419 1.495407334659947 -0.8080879534001437 -0.6730513013765634
Ni 2.9856374289037406 6.0897808863048315 8.441828001192713 0.4528242314275685 -2.2746999610949534 -0.7469900576475587
Ni 7.844494801289341 8.934798018529138 5.660058778009111 0.5174658786673539 -1.4857667262463896 -0.303500987577987
Ni 7.10926885356454 2.8883456693019953 0.4496570924912572 -0.12055517057795367 -0.9342751254528942 -0.41164004387977493
Ni 0.3242495388531947 6.113392092075653 2.8606018137463156 -0.1236914022140902 -1.6304686692738757 -0.052562861698380446
Ni 5.005447052087606 4.475926043320659 5.0781348516035445 0.23352095884442364 0.4706766862279571 0.6489762627052307
Ni 0.3864394895489753 6.302336840239359 11.885899352364131 0.6417028689722691 -0.06715592902120691 -0.07188135952133427
Ni 9.014043874070337 3.652399145192727 4.722976765826088 0.30765049096998626 -0.4561291274310854 -1.2370950278034565
Ni 7.336702346724557 7.154939225520315 7.7605193576610265 1.056181924962736 -0.38239734496457367 1.037211040287188
Ni 1.6017048526166897 0.2925208905382929 1.250624314626959 1.882177868991552 1.3777513400066597 -0.6061468262445302
P 7.274427906299842 4.6663218107421605 3.7476824369990314 -1.0363348083298216 -0.28114575981123835 -1.2609114134967638
P 8.693240046771095 1.5030906450837898 10.351341793451812 0.1397299437341916 -1.1211277337065015 -0.38942931211069054
P 5.886041251911332 8.524958547531678 4.328369323568996 -0.2446795465644044 -1.0422012944129275 -1.7492505500014905
P 8.490877962305882 6.7511609742073135 10.071172933937152 -0.6503736572733896 0.3471745172065376 -1.1915407362124253
P 2.3459491605386686 8.923676598774776 8.28667547113648 0.9038052389988112 -0.07495254224749026 0.0947880889161787
P 7.17390349619972 3.8381112428580564 7.609936619900227 -1.630974919486333 -0.5759957565824467 -0.2555735677690889
P 1.1024807586058458 4.14789467073101 12.65847435211124 -2.9430533427752152 2.7743468093030152 -3.2193620862091263
P 7.8885855826606806 7.277045251163586 1.9452814169637367 -0.2538864098746531 0.1883335636745079 -1.8740040749315081
Ni 1.7427843326055523 7.333185002574334 6.849284773965744 -0.4507372669915528 0.4464057294957344 0.7474310018397192
Ni 7.366237017187009 5.156325503899677 5.820761915909716 0.42271969873270426 -0.14397714904631978 0.9985771299650736
Ni 7.146591272954902 5.067032717548179 9.684966709509366 -0.39523820548298383 -0.06160800261978421 -0.18296690004595587
Ni 3.0409414666913293 4.1082671511273166 11.674267275248171 0.9677850842848815 0.20396304268164872 -0.08751855183795895
Ni 4.344103698849878 3.7828806743999763 9.525996529418544 0.08290419299439916 0.2785849410625976 -0.29268255680624433
Ni 3.5610767686135545 0.880597873290202 6.762884842463647 -0.9649455579535574 -0.382447995696851 0.9500691550623575
Ni 6.409987775301816 8.083334407855567 9.931223044889483 -0.10432739586518161 -1.0102483956554151 -0.15739033712843217
Ni 8.282307719497195 3.2489606895287024 11.485081915030324 0.37123644325174776 1.6050579425102551 0.5360994346081412
Ni 5.635960837930294 7.288084017922251 0.7824134613349274 3.403689356937719 -0.18244650876611157 0.5398252201991607
Ni 3.6314328352842145 7.9097998515562855 0.2873468130076507 -2.17917499401275 2.101390381633103 -2.550022172245879
Ni 1.15176031137373 5.302272326968483 5.6592790847497 0.9593755200649478 0.4153637725882653 -0.20525682179240776
Ni 7.268669747599607 0.7856158057348828 3.42389667328836 -1.446182279085548 0.9038492048628692 1.6714325132807473
Ni 1.3248081333650163 7.32245848046608 9.50965235870274 -1.4795665109729486 -0.37978484704239107 -0.7777134548733445
Ni 0.9281839580129134 2.8815497563224515 6.688231738383354 -0.20533575465945927 0.5355217077278003 -0.10045942826934312
Ni 7.9569028754374775 8.623444183737938 0.0792991208050926 -0.5162510324236463 0.0995212327257899 0.6736871351883494
Ni 4.306919034452346 7.899358023099877 7.780398321492813 0.6971528224104574 0.08388018375442328 -0.5451949691515062
Ni 1.0001012479356308 4.813444143083105 10.051320602737313 -0.22161983653146347 0.7022878296441776 1.3002325796938896
Ni 8.964700035639133 5.098027590934614 7.709831948866434 0.8536846681933362 2.34456223330373 -0.5939464275235965
Ni 7.115633134233222 6.6523722770168305 11.933857375567479 0.6288319265468718 1.5813212610149476 -0.583488465415066
Ni 3.630955284642408 3.6180889683122173 3.270034448331622 0.07716523362809291 0.43380269601974325 -0.20164313629922045
Ni 4.882854292136341 5.909863682004492 12.276299757140238 -0.5351370706948718 -0.5623228870810445 -0.5068809040626561
Ni 1.5407344927907516 2.4036685025338516 10.795399604667898 -0.8039870438578927 0.4904980918292585 0.975340013814004
Ni 8.773046105949797 3.2020413389712816 8.823007086748873 1.732899619447293 -1.7959960336871454 1.4577237040662443
Ni 6.888778212043085 0.6933475115382871 11.433064711371626 0.7511701571671774 0.18001193118268996 0.2580258859643234
P 5.403843675014104 9.335288517346632 12.817725552387433 0.04222548432811437 -0.7302025537765746 1.7308491646761677
P 6.310482752148625 -0.10249614323080987 7.9880520344158805 -0.468189143919413 0.737808905368923 -0.36133821030142926
P 1.8245465126824203 7.956700834781329 12.287241177037304 0.30166650547240953 0.5543696936722388 -0.08083188384640273
P 3.612284891281039 2.035311651710177 1.5523940753837644 -0.44419149545323505 -0.8052954782566712 0.11160953134889165
P 6.8248231607058605 4.7275768642199445 12.556764330706171 -0.26811129522478344 -1.4331940943559962 0.06976919827433792
P 1.640092577284926 4.446079128207796 3.640434664882254 -0.4367543224488994 -0.820777118832038 -0.6006467223619075
P 8.922785783154485 1.5893252705944927 5.359674832480161 -1.2345375514889256 0.5568250971912668 -1.4887656609737134
P 2.2313921085024053 8.933760264249829 3.5390607656596877 0.24550872733391912 1.178517327369564 -1.4407019726972672
