# total energy = -340885.67259282083 ev
CRYSTAL
PRIMVEC
9.13591682477634 0.00000000000000 0.00000000000000

0.00000000000000 9.13591682477634 0.00000000000000

0.00000000000000 0.00000000000000 13.37133774568739

PRIMCOORD
 96 1
Ni 6.668525037630746 2.3749272885359303 11.36887299438814 -1.1075957606583375 -0.43304704880064127 2.2738921204816775
Ni 5.014723081040755 0.7294088678368261 6.401434678661672 -1.1110451526595189 -0.6887990511291234 -0.5891202097795467
Ni 2.7866008418383004 2.0120486676182825 4.714533294992511 -0.5524069135189131 -0.607066252735006 1.772995201916598
Ni 3.4646137817371505 4.652995585657739 4.8679162045238895 0.5108774268165589 0.6694995794695631 0.2450834668710424
Ni 3.5613722780649146 2.8039590840272113 2.603292322773239 1.1764154505352127 1.24114862904754 -0.2583752988839421
Ni 5.42810505081119 4.68741058477649 3.3503088433314794 -2.545172557463062 -0.31784877165922676 1.2362465637602322
Ni 5.389706791905932 3.2794561530831228 0.6170955593244093 -0.2954210387833299 -0.04646729032360384 0.17454113787610584
Ni 6.244417501370951 8.550195034576427 12.897377677308409 -0.6015589497635317 -0.20827401135217677 0.45925944552995096
Ni 2.3021597100966287 5.830076260321653 11.397367005737083 0.4310220479508125 -1.7369218532328086 0.8125981825656715
Ni 0.8060107906164887 7.627038035385451 11.250296101220608 0.23691635767921776 0.712967677955527 0.5869545695867955
Ni 0.2961188214590975 0.6598909350536273 5.12868359537773 1.97302111432737 -0.8224725042565899 0.7569535966181739
Ni 8.729496540470931 2.639284181156098 1.755362290862225 -0.06877058180649447 1.4401509852898038 -1.0363368652123506
Ni 1.489309772057709 1.4534878417299624 2.6169715312097948 -0.30335057804305177 0.05566721165531703 0.5114872924864159
Ni 1.7507248994227034 6.931538950460508 0.4445646814752731 1.489312277505803 1.7321164614243652 -0.24011712400470261
Ni 7.959192567628727 4.540751710114079 3.7115219865906863 -0.4118045944820972 -2.4240864540823024 0.3155239801807921
Ni 7.783234807334821 4.33441702598958 13.254298766788484 -0.30810531911921774 0.015483697457895915 0.05202061604166525
Ni 8.221174121844095 0.17772373303870292 7.450188609598052 -0.23330961416456594 -0.21351520514645808 -0.7916678601709075
Ni 6.974258498079111 1.3266356349967918 0.7388572331377584 -0.8756470313970403 -0.15705043729051016 1.0923144090192347
Ni 1.898132919274321 6.767037630011284 9.114732577327898 0.9812818332197357 0.08090053230080906 0.7815459412455572
Ni 0.6641528403068518 5.246811915023431 1.4468323262380565 -1.8569062389089566 -0.27035226874016016 0.937313912279218
Ni 6.731745582866147 2.1925743863829537 7.216537533818372 -1.1068689097946423 -0.3742029820792394 1.3542612273045191
Ni 3.1705651590570043 4.420449955827986 13.470686613915445 0.6262065731088827 0.5158874784366405 -0.23017235408716488
Ni 6.323543678001559 5.936582780026033 5.234852086155272 -0.009313306981125896 0.4081734254874132 0.26751325662946834
Ni 5.507295178860389 3.0926906030473855 9.391826765347949 -0.6218323553005872 1.133975793313763 -0.07405548435451763
P 0.44859453443818287 5.809748845126745 12.532513821639366 -1.9545258837366597 -0.2979790293184933 1.2796480706743187
P 3.803665931271283 6.502242213377923 12.949886359929863 1.4162988612625544 -2.091428128214069 0.6003525881602564
P 2.0949388420288018 9.05541124144314 1.192256346295493 0.05184346703385265 -1.3932993150435873 1.1523388692019831
P 6.751086319031369 8.10664626706505 5.86567161990925 -0.5959737423662703 -0.22081482413166487 0.700425065403826
P 4.810215580304562 1.3485801074903514 13.06834357258546 0.2596042861950368 0.8107739848727391 -0.8023587642258504
P 4.237676801495698 6.763593389324328 8.351001896725123 -0.9415366921113139 -0.7044483276306063 1.326967424585573
P 4.721779904310533 1.3133520117638042 3.914258946623609 0.8549249683583405 0.17843918737893139 1.6710933847737734
P 0.2917180502683616 5.9748440001771685 3.8095074365636985 1.6258198576479548 0.05950098357911044 -2.23010083432834
Ni 1.1749063264318296 7.727743247831956 2.8501137364158304 -0.2806323105099296 -0.24270571066748522 -1.0552295883517955
Ni 1.876700058129487 7.010884389097713 5.078367532822242 1.455917246985125 -0.1050521898463481 -0.08790267465025507
Ni 6.196252947255195 6.154428719496861 9.400652061113469 -0.45898279482979665 -0.07744162721793114 2.243748764129078
Ni 8.951745991907579 2.8623650010344246 10.699463347473129 0.057123998706501616 -0.07398117947315645 -0.2611675169170986
Ni 2.684077581920429 5.564275892824724 7.168922048310803 -0.7468368198991461 0.14492280078904074 -0.413847593054055
Ni 1.1649207692147354 0.03133710870114864 9.113315596610265 -0.2720286280013186 1.474670873443544 1.274737520746579
Ni 1.6471327372226732 1.42449044135754 11.459971790170624 -0.23166410814134297 0.106611563913668 0.25783665277165274
Ni 4.285284064678021 7.4123713950102745 1.8742735585898163 -0.39508959572026153 1.4506922511407596 -0.8634908556504807
Ni 5.9487792291429775 8.056937742986177 7.86451249240516 0.24597024035136997 1.0540779912458556 0.7799042918770762
Ni 7.045610009392475 0.993284297634175 5.110926113618474 -0.2006733161867834 -0.07295479509117113 -0.6930598832880064
Ni 0.9330420613217135 7.858578714351635 7.22088348950746 -0.2703340139077151 -0.8525089027176801 -1.112489341305213
Ni 5.285100542925392 5.074316667250367 7.413149775133693 -0.032931717731014255 -1.0210223463424675 -0.15789890133373452
Ni 8.42921722243666 7.789337599851764 9.453268547554833 -1.4280981678903275 -0.8907718028536207 -0.5781374855157979
Ni 4.717495159264955 0.6521409367121258 10.931028693415056 0.3313583761098874 -0.888588936269689 -0.4455780913881165
Ni 8.547326356656786 7.515113916934743 4.82440548649815 -0.598750276670143 1.1857071602497837 0.7433866565670165
Ni 7.406889844845356 6.114751432219789 7.494447559221303 1.9044523641190363 0.3482330403780389 -1.3603596268927733
Ni 2.9267458077214 5.607470508124287 2.4648594277249822 -0.9715962305008558 -1.100682578478272 -0.0826167436609674
Ni 3.815725341634105 4.710414823635268 9.805242538011067 -0.2380802960803319 0.7272930934392635 -0.7637731906431685
Ni 1.378719497480465 3.912894954224239 3.8193751404522467 -1.166296616933656 0.03215164503188011 -0.5351180445314784
Ni 0.3228907124645627 0.002002592993583797 -0.16235255278457544 1.8836025172532205 -0.14815570590404162 3.0467719014118044
Ni 1.5449475062316387 3.9337065730170484 8.544552692273335 -0.6672362373566831 -0.04908981554811546 0.07533692217010252
Ni 5.17123961008308 2.9473838440923203 5.27850989244377 0.45555551431580255 0.4151963937724656 -0.26802542037919647
Ni 4.2873031023221 7.13484964607736 6.226082629660991 0.09299165913738823 0.8032352532935327 -1.7268698683134454
Ni 8.248499649416217 7.224235457433307 0.6752803871416379 0.013548170998079895 -0.10756132942144701 0.2771996306792968
P 0.28030272204991746 5.633891579919197 8.189249573683608 -0.49504277377714745 1.5431290662159423 -0.7498501528041731
P 8.660337649223536 1.8569482057018951 8.66996233772144 0.9962091439535294 -0.18751620997953514 -0.4703861515707318
P 1.9725175550122738 3.571321291614243 10.614769743058353 0.7532306392406318 0.21669643108791714 1.462948185689977
P 4.122947956543941 6.587452910691591 3.9039088663205477 -0.9722356638570676 -1.2137810356678644 1.0868202186738831
P 6.990328575979267 4.354251101669646 10.733320142066754 0.4726140124599861 1.3012322246029977 -0.14209227331878108
P 6.372091940628859 8.042201508959485 10.807945052420267 0.4813277381839 0.28567861468458544 -1.6799832310642355
P 2.3707430385767085 -0.08805744903264957 5.874670498096659 -0.10282227207456485 0.5173118695879929 -0.00540085930059715
P 6.740808412472147 4.547923404913181 1.8707032422490655 2.1024818149250692 -0.8778270697674946 -2.0430062852672557
Ni 2.5499805930526236 1.7706503342721847 0.3082851220501356 1.4069235906952415 0.12536133371734537 -0.1111729580321053
Ni 1.5836289785620847 1.8138814932395138 7.425023726382602 -0.27470617483348175 -1.0161801877588177 -1.1759737350121038
Ni 6.872648829855394 0.8877955190770825 9.627804759172635 -0.3661736840168597 -1.0125533896395078 -1.3856729088465813
Ni 2.9780348454311603 2.0069782337157323 9.420628657097822 0.826953422846079 -0.7791468448857614 -0.386306964431625
Ni 6.501273806182121 2.381550828318541 3.101441897885679 0.4542997875318305 0.4379506567498458 -0.501796290450897
Ni 4.098125670213799 7.168113519661477 10.737451403707714 1.0737569577320216 0.5901918455771706 -0.6994470177612728
Ni 7.352028663611456 6.3919260163089255 11.838140281681621 0.8588937231981014 0.018147617443304228 -0.36974006121187936
Ni 7.691976133005859 3.8054657069087647 8.728608529344214 0.963044998496735 1.5210458611636577 -0.5137498632683475
Ni 3.5623406852607173 8.550167626825601 12.836858622712619 -0.5553626537131274 1.6702215236917815 0.5913596406330267
Ni 0.17523876363060623 5.31323916710531 10.397725937094991 -0.8970753764741454 -0.6990042737968994 -0.5795274238847891
Ni 8.763728821250853 2.746201817122846 6.218528139942038 0.7347287237817023 0.7117885700457612 -0.6641665972924239
Ni 4.0492759223274275 2.9241420713930633 11.500982007729467 -0.4636748009888273 0.15194782595662218 1.145804153407259
Ni 0.9400493096158685 3.3888587584579675 12.952601554444886 -0.7352727692106306 0.3879794670380415 -1.1207922047439536
Ni 3.2344800339799615 8.81005705606136 7.900214742220973 0.5382473341890794 0.2414034469162939 0.3505370059208673
Ni 5.530208058549752 8.06811096940567 3.9248620918259514 0.40826727075280006 3.013688231483958 1.2657569145145233
Ni 3.0858934808428864 9.012088723306398 3.5754954920648294 0.27417935579573427 -0.8810203798938118 0.2935947842078686
Ni 3.749937603738134 3.386931079983304 7.17209129789782 -0.485294436141132 -1.468346473887413 0.623983340205319
Ni 5.472121898635491 4.909294599535476 12.15599070876954 -1.2889246108802384 -0.079462771413018 -0.7607470022223349
Ni 8.410726126547 0.178565150989018 2.9808587573577876 -1.0521586627359558 -0.16690059061171256 -0.934272554349733
Ni 4.79952655748297 0.8489121429822285 1.8861475098387253 0.29958314058081953 -1.1994545917428634 -1.4762217628704317
Ni 5.8950234938590045 6.21662604203481 0.738764960376649 0.2812064378458447 -0.3256502699815166 -0.8920784374801862
Ni 8.347578668647131 0.19929363293765975 11.428495815531965 -1.926364076590463 -0.9638006457158369 -3.4913017540410647
Ni 0.19208448087909694 5.223661501493589 5.804684806366055 0.06473652094643689 -0.49786378816571025 1.5048414834896535
Ni 6.910983137342061 6.562959517371345 2.9768745839795856 1.5120233459500734 -0.19845599682049048 -1.120901476628308
P 8.73180792745714 2.2328181005104013 3.848712396934894 -0.5904281299576928 0.03359249124346473 0.6077285689093533
P 1.8525355578191354 3.5459965298523164 1.5724155541080485 0.04250393480048164 -1.1797118618982971 0.6296870754583156
P 4.961625131776571 1.3093870238111796 8.521219560404663 -0.6730934674684086 -1.2423519053270218 -0.9202888384761311
P 8.358340778804257 1.806636711104879 12.657147827739134 1.7678733073090003 2.6887118476410143 0.8494498041763822
P 6.641519267151577 8.428504620915222 1.8612630992733807 -0.08481863640829262 -0.01803757422800119 -0.6270450098497782
P 1.8794956487135959 3.6479533629198126 6.015163542415231 -0.4589863943742224 -0.5202218441459363 0.8822156857534935
P 6.932945881669504 3.9976671275247133 6.08657991873888 0.44861739243507254 1.2785106146357659 0.011239577469561288
P 2.641339762467943 8.848391363548028 10.712620895052323 0.047045017203944786 -0.3661888535255113 -0.8864271527316798
