# total energy = -340872.2642801576 ev
CRYSTAL
PRIMVEC
9.21816030941974 0.00000000000000 0.00000000000000
0.00000000000000 9.21816030941974 0.00000000000000
0.00000000000000 0.00000000000000 13.49170939875686
PRIMCOORD
 96 1
Ni 1.8852335715662567 4.884721460445558 9.83563115386682 0.16009899430884683 0.013299288212067417 1.0968760602479886
Ni 8.103177523763575 2.889598202616613 2.056811185055681 0.0977227460644704 0.1349777737611869 -0.4759353635237352
Ni 4.168018732718203 5.074209958962112 9.197068925469349 0.31078312306169703 0.05099166055651864 -0.8029244069213333
Ni 0.18129631965725912 3.565704153370487 6.060664626801347 0.558790962668386 0.828289110938367 1.0664305992739376
Ni 8.668167772964688 5.506523230193351 9.65528799196139 0.24094141967821084 0.6832974045846039 0.43143265312566986
Ni 2.9869419730162434 6.146807410892968 11.538015145803058 0.15436029205285673 -1.1100557921630558 -0.4355039949815661
Ni 5.851881597430298 2.453929521117811 1.4705693896159964 -1.0990105900924878 -0.016233945360359138 -0.6622791504617239
Ni 7.581282172916464 3.7976699335159703 0.04437530078852104 0.42564638546119593 0.7719588117777544 0.04147189399154148
Ni 7.0870966112569755 0.078697276198459 1.2929363667728293 -0.10453179856650384 -0.3837358612703391 1.4082808760540844
Ni 5.091226682461897 1.1065018446893626 3.7548100982438983 0.5329030391580306 0.5502641561442975 -1.3975089822495608
Ni 3.410986554659559 8.708497223295975 3.4978197789408503 0.10007427701578249 0.7718845068963932 -1.293624844569385
Ni 7.7292797329321905 2.9770047964546147 10.088628166225066 0.40522925525742465 0.46235531084645537 0.4071683812616665
Ni 1.131676639856161 3.6445562946582184 0.3586122377938213 -1.3738327216785435 -2.421047153035347 1.7734960528124166
Ni 6.620196803421625 3.8968573359307457 5.770255711775782 0.1787672601423115 0.8649003344034975 -0.5193432981957249
Ni 3.1334093184594 6.8357266041520965 4.589110737689263 -0.5981149570789893 -2.2124386411618864 1.3854127132066592
Ni 2.2145892129117497 5.972077186657645 7.586077459787855 -0.9568771791231263 -0.1196992503355616 -0.7293540897333504
Ni 2.9286924194977524 8.817999746835484 10.359244769752047 -0.6274113920502614 0.35615563765922537 0.19182872131195994
Ni 3.901475634128683 2.1645069492203484 5.470779814499736 -0.9368225744650963 -0.647049220885847 -0.19444147634445869
Ni 6.415830194542856 6.491880015167567 8.519622654240464 1.5737128525400705 -0.5344778398443183 -1.1391272556077154
Ni 8.554876585634059 4.845765515965555 4.166577012482359 -0.715760924429948 -1.0131750823839067 0.6353003078800349
Ni 5.10102558662239 8.074057356084367 5.3573955237523405 -0.24695291597961339 0.746642701610469 -0.058182521878003025
Ni 4.643242539101929 1.1151484788403905 7.695710881200439 -1.1300263217477118 0.5548684876855283 -0.39989755863186616
Ni 2.631084121453048 7.226871572485157 0.9620818525990242 -0.33975842724812455 2.015184377958981 -0.8632553426009069
Ni 7.9819034098073685 7.409409578304617 5.107057028759935 1.3837736349413394 1.543726333480309 -0.34925171145054046
P 8.414253553678911 1.018892451329695 5.937755211247707 1.0464161038252235 0.2725546757081177 1.2060512711237745
P 9.103154310617887 4.851222666730382 1.5520192084130662 -1.10555739007207 1.311558032009038 1.080358007988307
P 3.339389105351421 2.2175390241359807 1.9067699589511675 2.75721606316 -0.1385418369633614 -0.7054510578635076
P -0.250826135660412 0.4997763757454145 2.4847144885066945 1.293716890062559 0.6997822896135045 0.012499932239223634
P 4.779957071184971 3.5203876784382344 6.867711775982838 0.1311476013818193 -0.5868167584573507 0.3184064439349097
P 3.165341024961703 6.04243018435556 2.5623857834887254 0.8572487313955106 0.2320636575726068 1.058209754026042
P 3.111903351002739 6.868580126661972 9.348688300578827 -0.7933377916741627 1.141078980017448 0.5006596057432926
P 6.379105044801177 -0.10578299594895473 9.332984243073826 -1.3272839273847272 -1.0384994200813082 -1.8091443981436455
Ni -0.008981253361776532 0.604900273248955 9.646747366651233 0.4133850515953397 0.1251278775503006 0.865461092002974
Ni 6.7427430234682815 8.068683168760222 12.692905878177912 -0.3129886153534481 1.1683434721603556 -0.5325405136122894
Ni 4.664831469999272 6.9869597383544 12.51505807220498 0.743285869323094 1.2084925335754153 2.166840126596481
Ni 0.07550318373222112 4.2695752022724385 11.657632756393658 0.5037233322702809 -0.6697842005895175 -0.18452987365770154
Ni 8.78949719588135 2.3858441907985237 4.063405521282856 -0.1774202591961138 -1.2991678858748013 2.4062396557088688
Ni 9.06311062324895 1.4615024073655156 0.2871383118306985 -0.44441286743542174 0.02607895647523896 -0.018372846080232874
Ni 1.5729960534813805 0.8000293639158436 4.420666376809577 -0.1353472412854637 -0.15405201678381858 -0.0947441230521207
Ni 7.188892752973181 5.447932604752058 11.750549966324925 -0.7982969354516509 0.9959859721991298 -0.30279779086337527
Ni 4.0300044400644826 2.7793490081109704 13.219797471786066 -0.4477136496738806 -1.734545125470516 0.3746431549404516
Ni 2.848116482275861 3.487773828090328 8.00622275971914 -0.36771814568584416 -1.184413895359657 0.0470766417728286
Ni 6.149545204435457 6.08904641985849 4.268978787315539 -1.4841142782446313 0.3213758109758788 1.2611207012940926
Ni 7.2275629344908365 0.8427758158189843 10.978864601009914 1.3247637320660346 0.09382752477512227 2.4738025903605068
Ni 4.315785838732036 4.386572089953509 3.7407109224080806 -0.018878067851425553 -0.20430397096083525 -0.42563275861444116
Ni 1.432575821047898 2.561496231041418 10.083730557776834 -0.1072797936252862 0.6272956924080035 -0.6984661419052423
Ni 2.007706046332307 1.2655151059955774 7.070046702380919 0.5854820988063272 1.1816805555888938 -0.5113196565603001
Ni 9.270427043351951 2.0940064609612223 7.970685830811222 -0.8227455554123186 0.8284688310493409 -0.7191131287316325
Ni 3.855458579030676 3.3552074680413617 10.846551740363031 -1.8851117548088954 0.3078155557929408 -0.2810061489095806
Ni 1.9861908607155705 1.6408140571584717 12.330234884502751 0.846716207295303 0.7387923523281147 0.06779741925994776
Ni 1.0865445281254231 6.90644832825304 10.620255128664116 -1.3263303052222062 2.267269472958837 0.1769723730254178
Ni 7.407888581892122 0.3147605284976013 4.100818345766184 0.21950690395351874 -0.5695947381521094 -1.195901327173966
Ni 5.191778372567879 6.948888737241666 10.339438631013348 -0.34629005771905524 0.9331096443898834 0.08476901411727981
Ni 8.815971751618825 6.485003267751078 7.099188993644309 0.2604355238470805 -0.580495187114697 1.8448444226484162
Ni 3.3541658159528045 4.5516232461093225 0.965562629843617 0.529946784743184 1.0336986562585553 0.6921530552030208
Ni 6.798227128964056 8.640485638257294 6.988057621219419 0.6710643528535217 0.11966736865636166 1.204448702523345
P 5.589440580074475 5.399730845716105 13.626491632534854 1.2880290956491622 -1.7784950486889046 -0.568494305999079
P 9.15995661300449 2.008572553379425 11.520853697190086 -1.0658312751270418 -0.4000459112842723 0.8721523879802205
P 5.918704039819212 4.298345079868768 9.870156850614432 2.0639862299530325 -0.5064350747744891 1.4407451672303768
P 0.9221017705346076 5.949824548234851 5.409298374058697 0.2922243862229032 -0.7473736662392225 -0.37029979037009125
P 8.735589395758524 7.2194232991439735 12.412425843369906 0.652114037003264 -1.4510761168427397 1.1139556414380944
P 9.082643904449405 7.913827297648157 8.927274581821123 0.5645026683411826 -2.0220497376202466 -1.8391211470113942
P 1.8843762826792143 2.9110672974329708 4.730544045915067 -0.7379089212818969 -0.5459364753032211 -0.697601994132734
P 3.0489894084859324 8.889080979179381 12.627349089167396 0.0018118563977581696 -0.48326737840877415 0.9002571166362366
Ni 6.361977703380484 4.9903339204331125 2.374905000236664 0.07376983479329877 -1.549380446442293 -2.120892199111457
Ni 0.562298546459003 9.046905097835829 12.071612029050291 -0.004512286048056745 -0.5719737799072472 -0.2143510707841921
Ni 1.561685371068469 5.013443847742948 3.5052136651375876 0.23772445540280998 -0.6661990543414203 -0.16232119877114626
Ni 1.4312668423171455 2.59047812631949 2.564746554284118 -1.0196866582501793 0.32570914824391006 0.579123503578151
Ni 0.9416719243753667 7.724928761376449 3.2658032989149506 0.7808466011856874 0.34604400314652023 0.7392505229114559
Ni 6.8816053868489675 1.8650918918008028 7.944296082146443 0.7745142312097565 -0.1650152006635416 1.8464572756614912
Ni 1.1145400802753926 7.997565063776022 5.714345727284509 0.4121398663343289 1.356093652527568 0.9084797616563451
Ni 2.050238636921691 0.652465057423676 1.1875958425075095 -0.6792743994681398 -1.1366461410570747 -0.40252522606270036
Ni 8.023163894306304 6.6514279297581735 3.0486004021307367 0.6533260550334942 1.378352463925768 -2.740177619620474
Ni 1.2386072967345434 5.881305964392006 13.141585992623597 -1.4222571357285183 0.877151898077341 0.12432363648145042
Ni 4.997975775135886 9.281949743446603 11.433643450161698 -0.5899882142067969 -0.47473183013393716 1.071702132085522
Ni 5.8791489149342855 3.4014273226610343 12.024701734240947 0.8609706603317882 -0.27013526763334766 -0.5090820254790329
Ni 0.15464108798229967 8.015632657524437 1.148285920680598 0.28281234888038387 0.6473397555430722 -1.7397708926458295
Ni 7.805707498120007 7.609001180264162 10.52824129842027 -1.1578292028925932 0.3381067505773145 -0.06390065530870286
Ni 4.491742078257428 5.687696948321602 6.904611148949948 1.8451143884803514 0.37330772395847966 -1.0057260823050291
Ni 7.562661489563505 4.304604210560184 8.182640829064326 -0.8168710989094125 -0.7582671732232747 -2.363649074731852
Ni 1.7621803527154356 8.52145153719949 8.142556581791053 0.5465509689587684 -1.166525188004694 0.5793839563283892
Ni 6.311425313525222 1.508044897587839 5.888726583252962 -1.2046873008967123 0.12136352541186196 -1.8453504157505574
Ni 7.523401345801003 6.684078652746384 0.7992541166534752 -0.2872379887519053 -2.075506057667174 -0.4021848120041461
Ni 4.938278970485507 6.990923547186962 1.4670886123714035 0.39037959183910187 0.09211722695223491 0.9741958729072319
Ni 4.423389421295945 0.20233400458207326 1.125426727324821 0.6896683411079542 0.3834970057866557 -0.536442933990489
Ni 5.361383299801099 1.815830044356141 9.959444870923889 -0.06396416155678662 0.9639844795918688 -0.6636472344538442
Ni 2.936905800125221 4.382774208002311 5.739629296740202 -0.7909006429875798 0.9585687078929362 -0.077189401997809
Ni 4.525655689176012 7.873009284832857 7.977350560545969 -0.3344588694120821 0.7858731078660013 -0.11472030906373146
P 6.068360868648568 8.031967237178618 3.0165036905630784 -0.17278635996852823 0.22063921778574905 0.9043030045708361
P 3.1859159582507157 1.6593149044304472 9.371246981916137 0.9763720546229444 -0.9903017773301591 -0.33503685340273914
P 3.162815249100955 9.079675656905021 6.015602573087185 0.7136017119951 -1.1510209217215082 -0.8540615919167807
P 6.736686692298532 6.37244031506643 6.3173037342055105 -2.041895311591264 -0.9441047099488064 1.8244779431769222
P 0.6769484905847953 4.206163479111542 8.303472471336898 -1.3050672820783717 -0.4723736143144058 -1.2130089333885303
P 2.3510087638723682 4.090576969922056 12.339678889500329 1.8378587353592024 0.8306398705587308 -2.538567136331402
P 6.215123195214147 1.0314014945524506 13.095416837884338 -0.6923253191148271 1.1217517404437456 -0.4243451501512691
P 6.384525322925701 3.0845622882181463 3.5894151047172604 0.17223177301663886 -0.15841569306915299 0.4432586992263205
