# total energy = -381171.27714353305 ev
CRYSTAL
PRIMVEC
9.14900930494273 0.00000000000000 0.00000000000000

0.00000000000000 9.14900930494273 0.00000000000000

0.00000000000000 0.00000000000000 13.39049991382603

PRIMCOORD
 96 1
Ni 7.7133467731585075 5.351575763578155 2.22736199883505 1.2244099761366203 -0.05277266371634137 3.9395406800907953
Ni 8.550170059150009 5.34982830279902 4.695017237918883 -0.240747815610166 -0.9210262308627881 0.7118944994960063
Ni 7.176958655047845 5.002577654254123 10.840533965928936 -2.0688566706714564 -0.2512903670127027 1.5010344510387377
Ni 1.8535435421407787 1.465854272424273 10.220138729388447 -0.14634462083723185 -1.4148749843318345 -1.0394499569200357
Ni 3.0693370919717404 3.2168831651922267 3.5411716301587277 -0.05411632222842938 1.068494423781502 0.05032805883059074
Ni 4.009974186658776 1.6078468969906485 8.868487880637645 0.7370751125266919 0.16714561674298312 1.4439680450430485
Ni 0.6574633626805103 6.605721960456942 1.3794089430120398 -3.213788705886407 0.6969216802362578 1.0677691155797029
Ni 5.477338045619998 0.11261424075548078 11.101166368785549 0.8485509465111966 2.062030648888558 0.4219730503746668
Ni 0.22259814133294398 7.167672410593279 8.78364545765737 0.27807174887160496 1.3734059185537701 0.125316596522339
Ni 6.596938911514693 8.185957147335392 7.612392029873862 -0.5030286201961014 0.2063665099168188 -0.6151662561343211
Ni 6.367829420252375 7.129026995247378 1.1691445811364367 -0.6007516233708879 1.0561017065441036 0.2397288874273484
Ni 2.7813445767590883 3.0421828323252846 7.544930894789931 -0.4389456736732634 -0.6105920065000774 0.7216261249614734
Ni 3.596155346339076 8.16727487031448 11.379045569101573 -1.9264900606453659 0.11157944944190461 -0.8271930496607108
Ni 3.7929230896734216 9.039065669907316 1.744969503898733 0.6702385145181166 0.03828089785806956 -1.7570127104454125
Ni 6.1433859237406265 0.290361193724266 0.3471701372629256 0.305200486767597 0.18166952139077097 -0.8684392007946914
Ni 2.158095764213299 3.1920070088651666 13.067025893978144 0.602711061090104 0.6141547841506713 -0.8666240019628236
Ni 7.4901475419135775 7.160636822430163 3.580284559880617 -1.9319577686281566 -0.15311253568868471 -0.5745052880798492
Ni 0.7076154870416896 3.549605186945151 6.184857468063881 -1.6020119565950797 -1.4740034150628745 0.14044985261935164
Ni 5.421080787343023 4.274655026137207 12.508441364368739 1.4493776460943943 -0.8641783686358084 -0.06910636787935841
Ni 5.357943474061287 3.6126052650871654 9.881131338236225 -0.0320508577879577 -0.6654395504675764 -0.1424303733844902
Ni 7.130408495653919 7.646037511629201 9.674569580430338 0.2799550819372469 0.1717023828757301 0.10543734109990872
Ni 6.338708123603226 7.272099202912905 11.765763214028842 0.12293575499498827 -0.9744563256574701 2.08578764209884
Ni 7.760244594906396 5.6268420068338605 0.17460792787286233 -0.2893259816291856 -0.6881452195952085 -3.896600429083844
Ni 7.418611438080814 3.320010798189146 6.152278760794654 -0.08267562192336084 1.6458186693673849 -1.919569936486765
P 0.4962056691998681 2.868543784538864 8.8977866680675 0.19979836978099783 -0.21474882044324303 -0.3349841457879328
Ni 4.627376782252379 6.747632243939485 7.164734663702282 0.18260437450021455 -0.5379107767852671 -0.4401450932980032
P 8.787522807805003 3.718230577627037 1.146955488845146 0.017371658509228144 0.406141739769365 0.5596877634510425
Ni 3.7679828902811576 2.427223022218744 11.312883593340349 0.03376706914811604 -0.32496815631282744 -0.5319249915154775
P 2.5962967143570572 8.542677020521152 9.366587394765684 -0.3283188179526152 1.7762754153297668 0.22512527858156067
P 3.6646631280886264 3.9558760945801046 1.087359757069185 2.5751845304441194 0.1353313004458637 0.8588703261593338
P 8.499100289154551 6.745198607461736 11.080089796026943 0.5759476769533306 0.7798644397780762 0.3204754106487965
Ni 4.027457943459442 5.8957954336623235 13.03138043878658 -0.5608553013965825 0.46199047130786886 2.044843852696627
Ni 7.6795045877029 2.7420587307611486 12.9471537441332 0.673712074889014 -0.6638891752613211 -0.04608882393826256
Ni 0.26458934938528256 3.8446058432929746 11.507661427148715 1.2267075139215455 0.36447624170977877 0.40057941519023915
Ni 8.933019502938963 8.790111977441102 -0.13339164090949104 1.12163655502212 -1.1826053813960085 2.551396941106219
Ni 2.318285768306899 6.542740180333557 10.298833933010076 -0.454822749914836 -1.9986601550517125 -1.173756415645811
Ni 8.356915535392563 7.542013275719427 6.3341080017197235 -0.2021118484055229 -0.8264083489758863 -0.8824542841268609
Ni 2.453864937343569 3.691176957083044 9.85291762331111 -0.20284152748269582 0.21156888005336466 0.6447815078975928
Ni 1.0737277331900679 8.873679028522886 2.0476352002505323 0.01673351070459699 -0.9605248031780425 -0.2362267878113609
Ni 8.809791496477331 0.35538594762765535 9.123911752491315 -0.18889252150177147 0.4188658722042528 0.3845897246302022
Ni 0.41129645845159724 3.411125781955675 3.3354534110116707 -0.3220437835771809 -0.027359365849559333 -0.45269464782823976
Ni 0.6666791597633526 5.919308387601473 12.59327006383504 0.7684515699554443 -0.6619207386810406 -1.790791606668071
Ni 2.058517946830539 7.498436544352827 13.276372610219468 1.8276493989263685 1.5918471002469359 0.5469188938211483
Ni 7.848642322906416 2.521210794910134 10.56025681027149 0.29265633155399917 0.12961085302231873 -0.19918619011829566
Ni 8.045913261753078 0.3851495047307052 11.534175256143135 -1.9526782890049597 0.07087991484001341 -2.359700888717381
Ni 1.4997696499543987 5.0710762869943595 8.294745272395406 -0.6978753023987787 0.34210507310343014 -2.637988353144218
Ni 2.3067854635981404 7.526249532669951 7.525983296498889 -1.5750169160634746 -1.9553283250332971 2.9207343675630404
Ni 4.138380532392609 0.5688625266737001 3.9837677643773373 -0.2561667212683975 1.3981710413135922 0.9184106476168119
Ni 1.096618554495807 8.31733692109655 11.249024423223672 -1.002218326262087 0.6692396409399571 -0.653549741008526
Ni 4.182680035495082 5.758715827098019 4.681305617658727 0.8910119438888848 0.009696144241841367 -0.1387017595799934
Ni 0.5562378087201472 1.738833263351267 1.3049323475854855 -1.4526203214014082 0.9883089152698461 -1.2498662114261958
Ni 6.485375891929487 5.7426318687225235 5.9474168889194665 -0.5277852583154911 0.1004116057505432 0.10745848529499559
Ni 2.7938238254645347 0.7650172863839511 13.146055951340696 -0.4293348900563767 -1.1007172883709495 -1.0713306076787161
Ni 5.046968647449746 2.0767610714043374 2.436963972436258 0.29796823068521583 1.4065320116837776 -0.6702773381758522
Ni 1.6796025770469685 4.668272853889731 1.409711376763734 -0.3302021510182571 -0.7248338332654936 0.7845613310331133
Ni 4.675958021714201 7.56290961299453 9.368194875702303 -0.03934276346368063 1.2269790224153774 -1.0575502660651723
P 7.967917957344036 8.87349604833659 1.786975350365975 0.37361728477909845 -0.4370610550560408 0.3289356256010077
Ni 6.172260197138273 0.12285289707972248 2.779974970064656 0.32565232686404555 -0.2672283783991979 0.21155653875819047
P 4.493993375451272 7.943700529687644 13.142481433401388 1.4822252887520344 1.6381644952562369 2.812733379501014
Ni 3.659018189341368 5.0964830858616805 8.405578201037287 2.4405559124922354 0.2664166811311799 0.5086153702552595
P 5.998666894398427 2.255733991621312 11.699346895808667 -0.39679655110903916 -0.7841957201635785 -1.0340516687225996
P 2.534037705969545 8.554186474239225 3.5558201089727244 -1.3437952947761889 -0.7449038645424912 -0.49458845984854816
P 1.2358481782491 6.422988797411568 5.952652866950352 -1.457527014674406 -1.4968093572137962 0.06318511729891699
Ni 2.726816481242619 1.9930110401362575 1.7304143449797478 0.2662894115246962 -0.04135259480485782 0.036798142664955985
Ni 6.198188489536541 4.142113328193065 3.979442112773279 0.015637449426940814 -0.17332449186018536 0.40563960332196586
Ni 0.852461687613365 1.6585324085948832 12.188783213016482 -1.8014395733002202 -1.1451420943432278 -0.06374741756029022
Ni 5.264952943385214 8.086617204194818 5.441189394916119 1.786327143138814 0.783228985374935 0.6967473594419226
Ni 4.746981781025332 5.778148322882747 10.729285672264162 -0.5820928706191201 -0.5536405288156981 -0.14568770397952327
Ni 1.2600381588775469 1.2203589054790693 4.0456178120484765 0.3608234754485399 0.16207951507398538 -1.106368830229772
Ni 2.9418090511321333 1.8821341962496654 5.517300918307235 -0.7108933119250015 -0.8263774957379509 1.3427889649988616
Ni 1.7170037271260499 5.156024838482684 3.7694659446910936 0.6432252191540664 1.3609178133890882 0.5566785443110736
Ni 2.625829716425373 4.556426215015766 5.885165199739407 0.10036763988648521 1.746776120319069 0.4550451503382873
Ni 4.65876703321161 2.190574747280994 -0.011209366212546618 0.07573775715294698 -0.16771948696858213 2.2187679258140243
Ni 2.722013251352326 6.8523975496037615 2.220439858387439 1.0630051185321563 -0.8442057821686235 0.2895059588504756
Ni 8.885709975771906 5.124863312756325 9.577273525970702 0.6447200585320381 -1.2581199667945557 -0.04595281258103054
Ni 4.750458404564974 7.619532831644098 3.337421362915294 0.06476583152247556 -1.8847255751140701 -0.5716451929232349
Ni 1.4929078929682658 0.9114050950251776 7.767922443523413 0.7344019365699029 0.9248209220185297 1.0762236741049593
Ni 5.126455240377108 5.541866008317592 2.4009296843488146 -0.8682394260790597 -1.1431841992859086 -0.8997511235340956
Ni 7.615141307172974 2.1170624574362242 2.5878750512827438 0.076105682015327 -1.0432929848152097 0.5587058591537475
Ni 5.303451974582077 3.3638345528072477 7.29882711872529 -1.3650290073439846 -0.34450236969101317 -0.7491086466524582
Ni 2.8193495614529493 7.808679450219179 5.505504185696676 1.5285007747798063 0.12559041900901596 -2.868222413707254
Ni 7.933005337798591 0.020839613417351195 4.444762556328097 0.3250856557272982 0.5651793826932332 0.3706219495962004
Ni 8.460143807491946 5.3553634534345 7.277616055529756 -0.5292479589039466 -0.31365195996905987 -0.2731717404668263
Ni 3.740837779644016 0.08904364805764871 7.2278701471821565 1.0161439352042436 0.12145428535345534 -1.04968783259796
Ni 0.7484950904622746 9.09282524864134 5.9584515090541 0.7294001124799374 -0.02538861527643369 -0.6204778981552217
Ni 7.3307809486583135 3.227578357081279 8.412059359235922 1.6948346942547716 0.6094260112164342 0.5173252393244316
Ni 6.549080443788744 3.70518409034407 1.375405336535864 -2.5748996522138494 -0.1269153084680266 -0.7161360483811796
Ni 6.5357228901890725 1.0659419262631358 9.268864081571044 -0.5851877074943599 -0.49226598236295865 -0.9425877590836476
P 2.8184987035866684 4.838435278136511 11.656939407832501 -0.681694321763542 -0.6374626056386764 -0.47858205711796287
Ni 7.911898573309247 1.1838360602942128 6.729797165181129 0.18150265679560354 -1.1380630760092594 0.4713539148006398
P 5.7533545076395205 0.9520642073212751 7.184806675238117 -0.4072557987691502 0.7980678501599803 -0.20502182296346624
Ni 5.983195919647026 1.7634349493988821 4.6684768767974525 0.6488813889985793 0.31288602833731277 1.3604275040162312
P 4.306585068646012 3.4428728442781833 5.239581825654221 2.8324550262996575 0.6491287291226949 -0.07648311995940377
P 6.122297457269911 5.207250141636495 8.418928435429507 -0.11257420925500612 0.5585068557690639 -0.30232239388885357
P 8.522091749562753 2.0415099385142446 4.663736775071432 -0.7456507700108449 1.1553144068905392 1.0125487616538174
Ni 0.5924870985264897 7.23227356536539 3.993475778161318 1.1865527960795306 1.4793744495668006 0.02941779104048482
