# total energy = -381164.94754707033 ev
CRYSTAL
PRIMVEC
9.34441778789494 0.00000000000000 0.00000000000000
0.00000000000000 9.34441778789494 0.00000000000000
0.00000000000000 0.00000000000000 13.67649998081450
PRIMCOORD
 96 1
Ni 4.129877457838476 2.251911179161318 3.857634394362649 0.12269484262877578 0.5169881676999871 1.503237115117011
Ni 1.6914143272236684 4.263904438388336 9.96951140005891 0.7272370433903476 0.7794998573498059 0.608465704185694
Ni 0.20286637000902236 0.5355220272206719 11.156987831293762 1.6738519213555174 1.3431165235416094 0.3767247200598286
Ni 8.94579401705247 7.705799156006255 6.157256300519119 0.1748617544403182 -2.9196858716938685 2.265464044318982
Ni 3.5718568765447443 8.836174655075869 1.4428023612248362 0.014155979785407878 1.2406930295673602 -0.41242860121934133
Ni 4.565775846508202 7.474468755776712 8.631895409137185 0.4535958194862704 0.10807503583307194 -0.6715531195644822
Ni 6.55153932574474 3.536749899906257 7.221629375289924 0.6987445923776096 -1.1030017135297518 0.3292791249833555
Ni 2.5141155348908777 5.123646917121546 12.316727227991478 0.590774200443202 -0.8715672049007119 0.7093534782417074
Ni 5.35382795399561 0.5613004718447323 5.26186954113978 0.48837281795613957 0.19066915378622 0.7169778275561846
Ni 7.99692448397327 5.340970035482286 6.759788080247711 0.41372803675705516 0.010965240762252084 0.32419913935728684
Ni 3.1278101557939006 1.7244281543367308 6.057910191168642 -0.38091767509525365 -1.5787105628649778 -1.1170808173306372
Ni 2.420045283674574 8.926908949236026 10.613824873863537 -0.24268668450409173 0.7306321851148255 -0.5788897903007901
Ni 9.305058837606085 7.618896073031027 4.0259647316439136 -1.3789371327846445 1.065195698425572 -1.915823324960139
Ni 5.831701466184123 7.60319745159034 4.100692973026838 0.46948189458890754 -0.5750102527407258 -0.6027380576732974
Ni 4.96973501608015 0.4586585864334635 10.30289031518693 0.42814446929270134 -0.11408653213447449 0.6685662690220163
Ni 4.504625978229718 3.5441506785854378 6.164531864003475 -0.11642520756998014 0.6177008496307168 -0.5060458097558704
Ni 8.113832491618762 9.27649295323455 13.235309634991184 0.3245765773013636 0.5357595347702192 -3.2464576568743375
Ni 7.650872669798901 5.809667329662017 4.408947552757497 -0.2037972065277458 0.024999350257815012 0.2490193115903389
Ni 1.959234677885283 7.489503923573179 7.21064688137371 0.534729293733492 0.23025540071927442 -0.7158591405707091
Ni 4.987545475881309 5.399428711513794 10.658724800067404 0.5524053708570165 -1.3053040806795262 -0.07725753623158307
Ni 1.0914560000812457 0.513799059802122 13.465949482765689 0.028870660287763184 0.10101247255933571 0.44791059617603507
Ni 5.317524891914022 5.488359533091778 1.4131104745416332 -0.4187568574302143 -0.7370350033173758 0.36201903841853783
Ni 6.313097823779267 0.5992201181580094 0.7760800397553802 -2.242143624425487 -0.029537347337484615 0.14805183333632568
Ni 7.779134144736318 6.96443175846984 8.619517793684606 0.23015229948250684 0.41029561403673853 -0.8558860467200292
P 6.691686899772963 6.189331013670998 11.872117973305677 0.5083600597113439 0.30520305787075824 -0.34341633571568597
Ni 8.622346348869186 3.5168462905796725 8.882585573593405 0.9893334998796187 -1.848064729357927 -1.6667641612708004
P 0.9729033749514908 2.329357711602037 9.760726275990045 -0.22446579062069083 -1.5811096592247738 0.5212243172685217
Ni 3.579164211048683 2.8707265408676124 11.62094937467222 0.15376096790596097 1.0011333207280244 1.3910002345967658
P 6.481512260818249 1.4294716151847868 12.155262234265257 -0.3906436441337659 -0.3060466368179761 -0.3147570201077805
P 7.644742731903014 1.9400692775431116 1.799882456961287 -0.33986641358089853 1.7924265711683325 2.355891028052988
P 3.487093665182562 9.13252351243892 7.017576264255326 1.8678951338202927 -0.40911239236191477 -0.7728211597780497
Ni 0.838567094181579 5.156212212193445 0.4855434100923914 -0.1883255932547079 0.05705200781798561 -0.8910188858674202
Ni 5.556340170580465 5.840298330306404 6.995310386178619 0.23335383713894006 -0.1378124149965046 0.1147143955264605
Ni 6.1853970138933025 8.961670182426118 7.982808806861186 0.9908882459612484 0.2461268205338922 -0.47981747218696075
Ni 8.724378043816124 3.1354912669988075 3.3760847883201084 -0.13645204431386823 -0.5231971247241763 0.288137103527407
Ni 2.516087206988487 6.0373907847272115 1.6986487752709178 2.135442586121806 -0.4840585068515018 1.0103751510412664
Ni 6.730587709926282 4.223919675802207 2.8665393073750103 -0.15633258528787916 0.20113225810107294 -1.2776922324995286
Ni 1.3394101190863728 9.42281718724628 5.523268408078751 0.4873975985270639 -0.3359835335867246 0.5991261719523231
Ni 6.897871472444835 4.886691177542423 9.250004332878648 -2.126794166418189 0.7349477817710439 -0.6484697553824574
Ni 6.104782723911873 7.6063652091310505 1.653283497074344 0.8906028813759242 0.7224342226850655 -0.34281983978226765
Ni 8.028461893117505 7.068238892746379 -0.26109143560242526 -0.5200639784118333 -2.351732011579292 2.6571484710124365
Ni 8.824905287541663 9.61428430231751 7.243087895692539 -1.0938257034574388 -0.9646072007775324 3.202834263757432
Ni 3.985169808058435 7.280609469819284 10.92377546537484 0.4033711190027634 1.6461526556680361 2.3212317861079055
Ni 2.1077548500152052 7.101841418163468 4.344449579680086 1.6177265391168592 0.18467591231726257 -1.0594441406537753
Ni 2.259377368763168 3.1401167536732957 7.55220403071893 -0.43240478723095205 0.9248998548855814 1.3032870502494973
Ni 0.823008639003756 5.617592827451714 8.155693613243754 -0.6645795164601265 -0.28557448500655336 -0.21897982780545514
Ni 4.648810340628404 7.810138922081674 5.957824938391999 -0.6410976312881023 -1.1884998925035726 1.3570277343060628
Ni 3.3433111127374184 -0.29458369689272773 4.221142514914009 0.5708754046367459 0.8967123367077718 -0.9802119971943247
Ni 9.219903160707885 0.8188699964822798 3.956502069535886 -1.8424653808932785 -0.2979936846065126 -0.13376704128253739
Ni 4.729676929882987 1.5622090661163046 8.049399929464021 0.8907237232245048 0.3151012908210767 -1.3395275206387705
Ni 2.0749279112526273 0.6235324236725199 8.112913000934379 -2.836319137240754 0.38207364307656777 1.2060715828387487
Ni 4.556001585777869 4.274921506649389 8.590729512175994 -1.5382403706650734 0.3732768707205443 -1.0228416589393932
Ni 7.994317391484013 4.39543645945923 1.1892219684283776 0.826121413863087 1.2108273523561792 -1.9379198997488627
Ni 2.724654606129035 2.218953418553401 0.2097924522779728 0.6135271778690015 0.37272382643055163 0.76963864828501
Ni 1.1399441826144134 7.377118614009407 13.230919627638308 0.2058180936125165 0.1342439809189559 0.3887536261999047
Ni 0.2443060584036723 5.315076654522677 2.958049188189678 1.3698297711667378 -0.6060429536768144 0.4352597401812439
P 4.28560217587957 4.419498334584091 13.541813070877806 -1.2579829269960594 0.09680974733189779 -0.6686192337471388
Ni 3.1155876576722235 3.7941138473582714 2.1552936397279123 0.5150156173546485 -1.0581051101273777 -1.5872476538017117
P 7.710377920593122 9.161930394387635 5.531720433729408 -2.3459020351610755 1.5464151931663819 -2.3704627552195756
Ni 7.986542836103863 0.22819347926666303 9.654692367017486 -1.6899673388601413 0.0015858564298811399 -0.7030761298734279
P 7.02012448691418 1.7363422866801088 8.424819379033503 -0.24305203826331043 0.23445452640228653 0.057709438896326425
P 9.216866225012513 3.974479794410729 5.370241423376899 -0.5080960074166798 -1.3756697748872824 -0.11828154405242855
P 5.73158537682965 3.8973696610008814 4.438202120700566 -2.1807850188123474 -0.6137050982077625 3.5664576705486124
Ni 0.8469247412152398 5.808480588636441 5.612165589753648 0.16934288150461804 -0.7315045604174499 0.8644138816853822
Ni 8.789162890511529 7.736252612717682 11.487562486722767 -0.9618453217616788 -0.04858073712218085 -1.6998154352988144
Ni 2.320433792866409 4.561580203039828 4.047149460613069 -0.90193913232435 0.6408713742099091 0.8357872190876251
Ni 6.45652528835849 7.778517413179721 10.327685727087445 -0.45378762378210236 -0.5443634743891463 -0.3778878871299943
Ni 7.254230179148416 2.006115620604285 5.176309250962782 0.5002893668880675 0.785792375226737 0.07376674946950522
Ni 8.605376886645207 4.642456136711935 12.404735755559821 -0.1762555494640513 -0.012038162111456686 2.4830706459259946
Ni 6.697657982570938 0.24615064642295295 3.240099217857172 0.5570917205890922 0.7033841480321499 0.28158079046612794
Ni 3.859590180950468 6.960750057965298 13.642417873268794 0.20473411651971837 -0.6583026823124791 -0.7547033671314164
Ni 8.115523831190645 2.3480465466504734 13.512231448321389 -0.09169505181315177 0.4869309433032904 -1.507745801620642
Ni 2.6146801562865125 6.616454994285483 9.330682164899242 -0.4195729255736064 -0.9355601628129049 -1.3745947966555487
Ni 0.22236162828979855 2.1088107691954416 6.676183576658532 1.0458039241625214 3.1299257485231644 -1.3904345919012826
Ni 0.9794631560534919 7.528227189793538 1.8937303110405141 -1.1210534288251404 1.4785005316022795 0.1473802611905978
Ni 5.946535013139239 8.21096771178301 12.615326221094364 -0.23017672496253908 -0.14333077371157252 0.16804241752563964
Ni 8.217368637787098 2.625603780372323 11.14362531423413 -1.1082997287038976 -0.3638134113147993 -0.8377867660161571
Ni 8.563018642007926 0.12034768773615721 1.643122377458509 1.6076580991372633 -1.6929397912249036 1.7240555387931018
Ni 5.553508812070627 2.9922133130999717 10.13667929180016 1.1256755009781838 -1.368536763386927 0.7432889546468876
Ni 8.740702741230933 5.185563027637015 10.412780665271736 1.211072635597766 2.0890017781607635 -1.326349845606232
Ni 0.41103102475427633 8.135305963089415 9.199784629778243 1.1355665348396506 -0.552276558588636 -0.209238175037659
Ni 5.697011031990044 2.9809252567307163 0.8682234720781901 -0.34140341905071525 -0.2223862823838428 0.5364982127084567
Ni 0.9575131192891037 2.6782315398687198 12.353503117599791 0.416424866862928 0.8083170386918144 -0.7242144545139398
Ni 4.119776142494796 5.697431530778633 4.687428949372491 1.5371322252025592 0.2306796327408866 0.6379819684772561
Ni 3.2145543836712167 2.0785722340870723 9.559490506839 -1.0141379605178082 0.5437134995099733 0.9749322368526243
Ni 1.516542897675451 0.6088252449311531 2.2980623228716786 0.7817462301818214 0.452677164326743 0.11256418195267709
Ni 6.197890500123181 4.14255783241884 12.440664106498687 0.13963301314501114 -0.3603257098765149 -0.15545043979324197
Ni 0.6120313145837123 3.033777282247694 1.2877158669006459 0.8187094376697319 -1.2500644434799308 0.30675626129049105
P 2.88534120987549 4.992825071782493 6.701785411791385 -0.27893229709968737 1.3259729218827874 -0.3191173539590052
Ni 1.5096186842900052 2.492081398368771 4.266234001677124 0.36765592498934097 -0.9299939815790371 0.5338533188864418
P 4.117159705588016 1.6512987427922001 1.9055052115627813 -0.19045729488573007 -0.7879940108637462 -1.6599121713459735
Ni 1.3581176429698574 6.635816627395663 11.101228757485 -0.36553013689558983 -0.190901067291368 -0.5174126568319154
P 2.8242474081021514 8.66211618985226 12.749260691910735 -0.2854775544173729 -0.4082847542542969 -0.24132425693892634
P 4.077530030867806 7.251473575978771 2.783249710656397 0.30138908344130677 -0.7517707668656538 0.7234238402918445
P 8.276724377900932 6.643796759961345 2.0830127012945807 -1.6209404180684666 0.8613324145465812 -0.5700320827998441
Ni 4.34942454756998 0.752229348466566 12.88241490386383 0.7864845161977552 0.7308556139795414 -0.1585560753017592
