# total energy = -340870.2540088338 ev
CRYSTAL
PRIMVEC
9.22104122267471 0.00000000000000 0.00000000000000
0.00000000000000 9.22104122267471 0.00000000000000
0.00000000000000 0.00000000000000 13.49592590651168
PRIMCOORD
 96 1
Ni 6.855097017062536 0.24732675946088453 4.779636192838223 -1.3935885641492323 1.529755987343146 0.8921008060776894
Ni 3.911925177351659 3.5948873485624513 7.480346294275731 -0.7581026226209524 -0.08491685254905376 -0.992177139976001
Ni 8.17102254520747 8.074413699525875 12.592238721831661 1.887062707887679 1.4185948563855826 0.6132962928051179
Ni 4.481822390151619 4.404900466826636 4.978201165828855 0.515128745893745 0.09970815192561538 0.5431416861669033
Ni 0.22952277365941276 5.575815905519556 13.05962931117987 0.6677324602668112 1.7822324042441497 -0.011681807213302463
Ni 6.291654532904088 7.0500113799543485 5.27571897310204 -0.4615862938909147 0.31308991681800274 -0.15058154173671487
Ni 0.026743784969965087 3.103627172697934 0.10779212410505735 1.1983675293262717 1.818556949706797 0.9603815927319589
Ni 5.069147370283659 4.81687813289156 0.332929370704609 0.538832260158272 -0.4195600700578 -1.4016787973565346
Ni 4.009031959242741 6.069326015367685 11.710846447937367 -2.0261095095119175 0.6375029719583085 1.1179030561216166
Ni 0.7943179845203031 5.113786429360169 1.7232272043611274 -0.6621788774384337 0.699159311317525 1.803962853942706
Ni 6.71165450456632 0.4895865569381827 11.20620654170309 1.5350151788595563 0.8336547461256547 -1.6189912647618954
Ni 5.250147182432555 7.966988572849292 11.20437155456072 -1.3614765141060359 -0.7362050512169128 -0.7153418346146583
Ni 1.7802510434925143 0.36698451901722323 5.986927715842426 -0.9057983581694401 -0.3405685818542457 -0.8318464892723223
Ni 7.6749766491073155 3.1935415426741875 5.6834448172003915 0.604868473752739 -0.6808646267733951 -0.7307658824792124
Ni 2.500285244494029 4.524036315467103 0.11582088443100591 -0.9596650262809087 -1.738947882523902 -3.5194067398073967
Ni 4.360704017714115 2.2619951051312603 13.240231696465267 -0.15347351857252922 -0.16301436818342893 0.9022744041765816
Ni 1.5022643229844506 7.440743767747783 12.119381899428184 -1.3110330127435035 -1.6076082197359347 0.9479528800503029
Ni 0.8552515450002626 1.9026142564537376 9.797974705568178 -1.7087399914819539 -0.746742717523443 0.4333134150881505
Ni 7.07322073994104 1.1973337209185346 7.198793797245277 1.0490206313276065 -1.3875570132431716 1.4608097991907358
Ni 5.414586005095517 8.890429715426665 8.86617561150414 -2.0602753567603487 0.6297768069586445 -0.6430676105302796
Ni 6.743669958628216 2.7533106072412767 1.1444897796345723 -1.2767761484431623 0.24742394207876098 0.17402640302321642
Ni 2.993666259769329 5.877878763860457 8.339928962194447 2.496048289132585 1.077706429298073 1.3249506512658602
Ni 4.073219625062113 8.11981810499845 1.7255084898838557 1.3785928620713483 -1.6391122038814867 1.5064432807591346
Ni 5.850058883415543 2.075730078619074 9.409939472242803 -0.9565691609644041 0.0016437062510100725 -0.5425300207248335
P 7.865234386336323 4.501675291244725 12.37759870821139 -1.4739190828791844 -1.4998270609941977 -0.3715922839292697
P 3.578713642795007 7.089458992994899 5.591686239040849 -0.5929107871702305 0.23685285143113402 1.0628372254957243
P 0.6679141114294935 0.4423711390296183 12.39491397884429 -0.44946662780924523 0.051375526258498616 -0.448780143265182
P 0.7718140341637194 3.066180525536251 2.3516383765045714 -1.517939197213876 -0.030349558826134826 -0.16633751901939095
P 2.4967351437411978 4.5799988127890074 11.385972578577366 1.1258909594230997 -0.023661091062365705 -0.3195135609561594
P 4.7688826149214645 4.33498653459815 9.37351359431057 -0.030253142457586608 -0.434607965529858 -1.4913308505977285
P 7.317117272181006 0.2202685369956687 1.5294931347066203 0.44974636383319316 -0.12087938668659182 -0.7960027401008356
P 4.717263227871206 0.42569580863631934 4.235574492477959 0.5853525152069984 0.680722444768576 -1.347608240764376
Ni 2.4700217882062567 8.109527423335697 3.95151295021414 0.26179640875034915 1.174944265306325 -0.7228594831479421
Ni 0.2533527096997813 8.549850569177773 10.056300322634199 0.10116622452838062 0.28599151793931393 0.4586302965863843
Ni 2.4615937568086266 5.728829858487042 4.211430118942339 -0.15566692667942222 0.9631056765313414 0.20895509657960143
Ni 4.59399635290017 6.693221643774345 3.6806227427953724 -0.12171088144895167 1.1167404032720831 -0.1755184141877106
Ni 5.509774810475977 6.279215348707804 8.80389116852992 0.10532318411954765 0.31025990356837535 0.6442606023971162
Ni 6.257103292590169 3.9613960618683857 7.409722341896679 0.4361524271988424 1.3890577661584143 1.204286723024184
Ni 3.2412235452531246 9.209311752399161 0.0614121325035229 -1.22241762829694 1.2053493599607434 -2.129608495938532
Ni 6.101433679838746 2.356003617274416 3.553530980052196 -1.1576307137285418 0.21755003733746403 0.7820205668891307
Ni 7.891246942761613 3.907674277489178 3.251195178900168 0.09843776985362403 -0.10906953853585732 -0.8727815369237872
Ni 7.753982527679415 6.226406447379325 3.5095207959661883 -0.45512074077122905 0.3758813982229269 -0.36031902500829555
Ni 0.6449168353838799 2.9735182853668967 6.352167613918258 -1.1745542289567577 -1.286067343937101 2.0913214274328755
Ni 0.3865358920723613 0.9004014497435432 1.0225120061836563 0.7692717518638945 -1.6706580970085678 0.26967838260158716
Ni 3.2916903021888273 5.438920332074015 1.8316131635012038 0.2245475517012197 3.940116092978292 2.9559463966877995
Ni 1.1758579166241345 1.9250767121261976 4.169296416682827 -0.924417515932524 -0.6682374249276879 -0.6099661999906204
Ni 1.9490053133043719 2.3797201345115124 12.056058245142683 0.926706569077017 -1.4246847713334045 0.7187557453922138
Ni 5.605775067457085 2.2162679632266102 6.0548388379838585 -2.7647056866688255 0.7636276662042397 -1.8555841776634234
Ni 7.910279171213157 1.4685429763530116 13.036739921312979 -0.7041899317628969 -1.8615460516738134 -0.7460804013490957
Ni 8.260374431687818 8.196546386464188 6.436233999745301 0.4419875458233808 0.6640583538493338 0.5809158195918834
Ni 8.290942182325834 5.913462760757017 6.384855281862963 -0.807378328927629 -1.3435780365590602 -0.04906153341334131
Ni 8.197385501187584 1.6691375004493534 2.7203739711918273 0.6382789308923845 0.12172219430286133 1.693504405479122
Ni 4.875588500406565 9.106570914508133 6.279937356211562 -0.42624699515967235 -1.2566978896360486 0.5384131703429824
Ni 5.833295031029446 0.09525611897915054 13.416029919433196 -0.40144382007306345 -0.14776232712036488 0.7450154504196911
Ni 2.256268838722148 9.126534468092236 11.044498991359578 1.319457746472089 0.38194714480103253 0.00016455060232229725
Ni 0.14986957801497863 0.9552537337391074 7.698588968582056 0.9609999430422482 -0.6456767660183524 0.2514052953240122
P 7.911736095677955 1.0512263275974656 9.29513013600033 -0.20372135898448784 0.13247069106861703 0.6453924020087143
P 6.008052198477909 6.926836715392477 1.6639395996847535 0.03970786011258323 -0.8579082193563805 0.687104694145836
P 6.319723381453747 7.571488906902055 7.273885343948346 0.09149424865625533 0.3054318860521127 0.6883071990943694
P 0.44156153163715445 7.1434574086016 8.34995592208699 -0.35307494185137256 0.7458860259501026 -1.3950157835140617
P 2.3026230114091164 3.717813045019578 5.54426150350348 2.1573671541090396 2.175284143598776 -0.33792548780444387
P 6.720515924887023 4.936392044209602 5.035289552246657 -0.5392570064005165 -0.4420703353451741 -0.3093559036968673
P 4.326088230113781 1.4403173701077738 7.715647894277479 -0.23565651713018768 -0.2612073690160985 0.397170132398374
P 2.2480897754292615 0.4564701105908625 2.354229489002092 -0.05656915464429612 -0.27732175807945786 0.6012583878039773
Ni 1.1941155776386956 5.284495559846312 7.3065324393130195 -1.0025507699008411 -0.7859695242345496 -1.3033670115578133
Ni 7.438263307741259 7.981530154374526 9.159185251873275 0.8663128984803081 -0.5673915598532034 -0.04588030747188228
Ni 4.250106852962275 1.3178527256964692 2.2644543567436766 1.423964091117296 0.1267535860791817 0.3914465996510355
Ni 5.6478967823634045 4.92010768595116 2.789580649582021 0.5127360772918524 -1.2267625355291971 -0.08711951662732739
Ni 8.076230244586414 5.55871087461955 9.145459732469147 -1.2251617667009804 -0.07189910013314714 -0.08758668607173303
Ni 1.0388055854830145 5.722015509249789 9.864415071683437 1.5022873496092322 0.6899262227550311 0.37069754002914224
Ni 6.316579006501239 3.014487370158661 12.247633669118649 0.23070225844870593 -0.5513913277702052 -0.21800435126606327
Ni 8.434301705453803 8.528374764883372 3.6764926385688965 1.6359065524599956 0.0760588879377916 -0.6862796271413792
Ni 3.253293887812751 1.817494827754035 5.243140113440149 1.9566683840009593 0.3683231262596947 0.5728482120924006
Ni 1.172695099589794 7.210964649150894 5.715686186764741 -0.15123845859442342 -0.1817029457318677 0.6530707444895785
Ni 7.398797252618875 5.151740233772256 1.0540470440138061 0.8232029546647112 0.006934522336304186 -0.27068368393764997
Ni 7.6409878922893 3.262505707688279 10.22010012716165 1.5429627158414072 0.39291367111486525 -0.2060852312309741
Ni 0.4323165160143268 4.6627576550141 4.571946999860767 -0.21309508688990395 0.25805725342289104 0.25036965497064617
Ni 2.3415358040765137 3.4815976398630095 9.32034046186589 0.2933271323687787 1.8645642696748466 -0.052963696681224914
Ni 2.7300090368454204 3.6707304101002105 3.384481636931012 -0.24486492310233313 -1.4756172965172134 -1.0016434275952233
Ni 2.796262215830077 8.543737019050171 7.659423519393548 0.4368332553159509 -0.6417113536127013 0.8552818374771269
Ni 6.218301152413768 6.7179985807168325 12.987979056946818 -0.45564113205107337 -0.1646508753455874 0.876646162085516
Ni 8.460618556229335 7.495267782686722 1.417800510293907 -1.0202469016290234 -0.0809421841720219 -0.24551566931245458
Ni 5.859851628868808 5.002488465498678 11.105418720278163 1.9188225167977795 0.3293649998289424 -0.32342292331289463
Ni 2.428942050923495 2.1811173552531224 1.175571142251633 -0.9666057192647999 1.8296072939836876 -0.9356853755368595
Ni 4.138956425755448 3.011453647697151 10.974076979776598 0.4555706838244541 1.3229853000093732 0.7526415995063812
Ni 1.6376384246787778 7.781359798160341 1.6099826787621763 0.04424277186845929 -0.5531975277410085 -1.3101552381242403
Ni 0.5682494127881906 3.9823370457896323 11.270285399239649 -2.7522296656890024 -0.43165556776975345 -0.2605203702514029
Ni 3.250380038883154 1.2836057797327929 9.780659434935277 1.2923956001479742 0.3177639252549043 -3.0807071207066685
P 0.560044530580738 6.889758909867452 3.171434097077011 0.7897367045864656 -1.4237409193628963 1.983024248286669
P 4.596808770379686 0.7903971979226309 11.482171087938177 -0.6543822642121504 1.2656535561674396 1.1758950592553683
P 2.9020275551416996 6.860260799975745 0.0714483134369815 1.2582009565441363 -0.4981347824389098 0.012935477114745464
P 7.228503068973971 6.994906439437672 11.154409188563145 -0.051651405627704594 -0.6143437602330258 -2.998843967382274
P 0.1335879860688119 3.832624225470233 8.487816938516481 -0.06796736917890875 -0.8565524766594345 1.0616277785686554
P 4.176135662730554 3.580087577891557 1.7767516584647234 1.3333026227749813 -2.685555047179588 -0.3210631648314664
P 3.47742050832786 7.805177746847518 9.615050462180019 0.47261195557745705 -0.8191964046084795 0.3282128885023702
P 8.948061221154445 0.8900720397089418 5.513072254707698 -0.82488394191156 0.361235623285294 -0.09176061494376456
