# total energy = -340861.8116847448 ev
CRYSTAL
PRIMVEC
9.32781901249065 0.00000000000000 0.00000000000000
0.00000000000000 9.32781901249065 0.00000000000000
0.00000000000000 0.00000000000000 13.65220599517746
PRIMCOORD
 96 1
Ni 5.346575159721687 4.129033624429212 1.4983974961352728 0.07082386479109737 -0.5319537878708839 -2.9006152282156625
Ni 5.987536230125144 7.619643345174748 3.6897950311040955 -1.6055379674704673 1.1618144127925862 0.2061623643258127
Ni 7.989929768980411 3.8211689641852176 1.7557688075280995 1.7121667577753157 0.11311414091887616 3.1430769411931423
Ni 5.043262475063181 3.9028713292534545 3.55137579646617 0.6327662286042716 1.6161478817758297 4.073863593876803
Ni 1.40157007284599 5.796763679562799 5.1039725838708785 -0.6220591265994125 1.3078607856631088 -1.6726278191404291
Ni 5.00493446752061 8.330348516915711 11.865377310895056 1.5151467220704036 1.37943618390825 -0.670670974069845
Ni 0.6225973934871606 2.8735558499847205 10.981301567387426 1.4597163090162408 0.17943291875076842 1.9885544340762784
Ni 0.6851674693681087 7.518604411687006 11.010326008436213 0.4697114941012104 0.42982674209113064 0.3292991795880135
Ni 0.9833293324727062 3.9983228992663857 2.9325076649443345 0.25461814583435505 1.5966429789736825 -0.9123639272020997
Ni 3.4113978833029672 7.267406250791058 4.450140989055828 -0.056279648428335334 -0.9966225773418642 -0.9179105680519418
Ni 1.442006167442497 2.536532428100892 8.843298332923638 0.2936300083211782 -0.6403556109157552 -2.1557517299928035
Ni 1.5700491364220246 2.335480621195906 4.178612847035754 0.2433518288919164 -1.858673615222025 1.4705208558309126
Ni 3.1927164988230334 7.468868481724244 7.829430654407216 -0.03229434125733148 0.12073283380639853 1.0833664557973277
Ni 5.775057845162321 4.878449244284478 9.981168169305581 1.1033048465924675 0.31815704692826496 0.23152166902620772
Ni 5.823319979751093 2.693827436908481 8.67978540008882 -0.7947305582566313 0.4167578247223145 -0.17694049134621784
Ni 4.178862832580203 0.8919941289062427 8.180333870699258 -0.624673681404124 -1.0893640681416594 1.1834571878733424
Ni 2.8015637443109394 7.879618983582881 12.268718726262804 -2.4305185828608917 -0.2942956669296351 0.43034379093686526
Ni 8.20852720309094 1.73938635932975 4.893441847478241 0.044018057452162904 0.12252283582728575 -2.2516554205706636
Ni 7.04292296300339 5.356080207102043 0.3725605460346414 -0.8077956189707056 1.0625842289446539 0.23014535750397136
Ni 1.8436620459489779 5.504233953463362 11.669263651274822 0.3010347854256816 -1.1290899259763716 1.5989076066381431
Ni 9.0626569170501 9.220819413008202 6.185732791688494 -0.2128994259393301 -1.2337657063199075 0.7544678540818426
Ni 7.339519618109535 6.439562330274333 8.036152842374536 0.791896688352262 -1.5914406088371367 1.8137883246735602
Ni 1.6366217793598035 -0.07475034169966065 7.9526828556393925 -0.342102759110585 0.19006905830837587 -0.3777634457369881
Ni 4.610003946385313 2.106650569836849 -0.04849719562310489 -0.4193564386874262 0.04406150909558863 -0.30366373840809635
P 2.273431970387148 2.8501989916526207 12.450142936801017 1.6009806871170882 1.9442486701803678 -1.0324575847626023
P 4.6666144788204225 0.327370062184192 2.1646117704374896 0.8840357696813678 -1.3512011003219568 -1.4904178518651559
P 0.4016092394123675 8.694954299058333 12.997500278100322 0.060110849248967445 -0.9088417729814542 -0.33160597334431924
P 8.185189000396486 1.2510750439601661 10.008718814980378 -0.2838932406493885 1.6524935102843994 -0.3724008958734941
P 6.067848750188794 0.9464471368476568 12.416121583208895 0.754640632214281 -0.47705765005363643 0.92648056910914
P 3.1693130013968203 8.327662105094767 10.1772827617077 0.43326944922409244 0.6264796242646115 -0.911496951216114
P 8.654126436071271 4.396760680279027 12.881770962748671 -0.029318289348143053 -1.2684000085643252 -0.05639766206343835
P 5.049036394914448 1.7504025133593866 6.535610880691919 0.8366631939346751 -1.127233075273291 -0.5544846219835483
Ni 0.9484432900757197 0.4478658929542541 10.255100090236272 -2.093274951614821 -0.7902910344280389 0.4989966162185729
Ni 8.18654153412578 3.613345160814935 9.962273739498274 -1.5111874803123395 0.33668878718386536 -1.030436954788148
Ni 3.6332787096390953 9.029076769288295 5.961017241212141 1.2093618235542463 1.0311632914312112 0.7670991696926079
Ni 8.563310792013233 6.523736567330591 12.833128253151932 0.970605327342496 1.4197338550860323 -0.4197467321473094
Ni 2.8687426954721955 7.421361900460112 1.7210786493263903 -0.12563618464528686 0.782347096990614 -0.5171763724513933
Ni 5.2250056970051295 1.1348131101537384 10.404045768415642 -0.22158615508005064 -0.6685966080393194 0.06337717870506504
Ni 7.66016339014066 8.80439759730535 -0.35628536775275316 -1.971616263560043 -0.29309984684932106 1.391574619042997
Ni 2.8395466225570702 3.5408120416494357 0.8004098725772127 0.4339785594759752 0.4142057477244221 0.1295990259477768
Ni 0.4111991699440096 3.7634577491290266 5.714759093164707 -0.3601794141066378 -0.19669042027963546 -0.44555495145966495
Ni 4.0762661533490645 6.215181648493714 11.180419717450459 1.1079436309160597 -0.03011970220351587 0.30269726072976905
Ni 2.6641836286898655 2.094169948252045 6.63022108144704 -1.4023172022714818 -0.504635302561589 1.6745551180701288
Ni 7.305249211754847 7.447824922460179 6.132311440508873 -1.4686719755476318 0.881564939543372 -2.6343196460433793
Ni 3.0827415149031214 9.649162181166497 3.5558121070982573 -1.3521662924487035 -3.804386785763061 0.04059849024765266
Ni 6.6010268740956795 2.8648529950231194 11.49948522253678 -0.4936384372304531 0.17804580859525465 -0.9622124752931105
Ni 7.627217534058801 8.621143268714121 10.861394321985076 -0.3733547751463312 0.004980226823410777 -0.2961977690483544
Ni 6.538502504526963 1.328953003311086 1.364960249530564 -1.3009131507006821 -1.6448339368566123 0.7960788447544096
Ni 0.46058064279150873 2.9717497987315324 0.43466143262880647 0.28404673550811727 -0.7869629984960705 -0.37625806483605523
Ni 2.7510722610235363 1.5683701290339345 10.216941848996274 3.391739383664694 -0.5830107544476991 1.5496249583529313
Ni 8.274260342334673 6.086513715653065 10.404973886388502 -2.8497850329376724 0.6581653854036665 -0.15843060546748844
Ni 7.653633916964755 1.8637355120554795 7.154807351436314 -1.753925843989973 0.2797956735412471 1.369688617603183
Ni 0.6139999428782562 8.194712703414485 1.5571842087017242 0.21852705653875268 -0.5530813138781184 -0.5139185276357279
Ni 0.5595142875709628 -0.2376364451095904 3.932600020623357 1.1104427431888295 -0.05355093664326262 0.1395761917651467
Ni 4.781906319469288 5.477472441260969 7.818113211829605 0.5104560230084241 -0.31517379593022493 -0.6005752456940238
Ni 9.501689365579235 4.096582142744957 8.044671006523448 -0.794509957605393 2.2237422391001638 -0.8426613204996392
P 3.6382597648904293 3.7220142500996656 8.542730825344659 -0.07604757508388194 -1.144211097888526 0.7852552717763444
P 0.2727584813227918 1.879574148416464 2.5378355243904265 -2.113458368541231 0.1259048649256412 -0.06029159780120584
P 9.009740200868789 8.27612590609922 9.107577826936572 0.6792659148277076 -0.6128373508908284 -1.2526005796382231
P 1.7482571150301605 8.131227568507029 5.632381394013705 -0.963084593485419 -0.34116559200829627 0.3680621592888242
P 6.4976373302646095 6.805464679233314 11.367563746490765 -1.6140321209844073 -1.4983399349257098 1.1183833381921449
P 7.103059410953489 3.509535865136843 3.778521243745843 0.5428655496873812 -0.7429552254565528 -0.7580244610848493
P 0.1545656890200602 5.965345349145885 2.821651202145675 -0.21987482881589876 1.0565506211560642 -0.5275970535640848
P 5.183384969418137 7.564366690831289 7.178958007150228 1.4061430037754752 0.44803040958335105 -1.334192224468786
Ni 5.596812555278895 7.346739349878322 9.353959102192466 -1.0047696319290307 0.8814618383066045 0.785874136307266
Ni 3.65559085226305 5.4260015369971795 2.439212495977769 -0.8837611758637426 0.2543836612260458 0.14856579685826674
Ni 7.313252480304745 3.8795611100154677 5.843840248379204 1.013105662598552 1.4861647330157566 0.1532025242993297
Ni 1.1998466629857678 5.318321196507657 0.7446145915072089 -1.8804773413606777 0.8253284856481463 0.8258092819393068
Ni 7.494044264726775 5.861881182764233 3.884776293519253 0.645595776268772 -1.2319031991898717 0.12135966875712002
Ni 7.652477267430736 7.422471910900016 1.6021405642997233 -0.6157149295489396 -2.1419816727919048 -0.29664951187379235
Ni 1.9778613753515035 1.1089937076524394 1.7400831473958076 0.852278531874429 -0.22085621889256157 -1.266006568631484
Ni 3.911490233845651 3.561361226515895 10.86798815711086 -0.35487805649838233 0.07843330170723911 -0.14655365152424438
Ni 7.172579644639249 8.9588849326473 8.081368511335807 -0.05810050368715801 0.32104028201333096 0.6104035446383551
Ni 2.833026477199986 5.624236342617702 9.343242371147038 -0.849401210326634 -0.12753854387432229 -0.46296671917820914
Ni 8.028602905819422 0.031171704941777945 2.570259955400096 0.6216228103929423 2.5494310756290997 -2.20303174602569
Ni 8.474575251552663 1.3769632867916448 12.249168550792257 0.17635787936987046 0.13960781633403052 -0.10891578656681243
Ni 5.146390839967215 6.951445043808939 0.19095444302938752 -0.6099980816698205 -0.5291535994179274 0.26027225879633886
Ni 5.584210672049395 0.6877689980377663 4.112263138967838 1.6536178536968296 -0.41577360643217426 0.3084467616190365
Ni 1.7785258871098988 0.9687126403774982 12.94084403935298 0.20955673471934233 -1.4159594756452647 0.11078652122696404
Ni 3.7556690204120526 9.09714186323771 0.27806694301480384 0.6906985821446814 0.924617547758472 0.7096357853688166
Ni 5.089938880452091 3.7339725138303974 5.919678213753594 -2.0594487470939953 -0.3761325950017845 0.9009531142619969
Ni 0.9180933659722236 6.652292566345369 7.274727655785013 0.5574136227048851 1.0100000270900347 1.3101495816972855
Ni 3.7307730719742027 1.9041063119202275 4.749301861556339 1.6137040482210274 2.504949705387273 3.0355297528390817
Ni 4.09700189459198 2.2367176755009077 2.7106184435712657 -0.9551139165751164 0.3745387681521034 -4.317671536469532
Ni 5.380854893895196 4.648322626109062 12.487986830546687 -0.3478489175657429 0.3398517582928792 0.4314280251399796
Ni 2.4652305810199926 4.418466514679506 6.823781717055496 0.6333557825591544 0.8357797628884573 0.08863363927900865
Ni 5.2956266133119705 5.847329785400785 5.2095858797092855 0.145425194346756 1.2134768741638844 0.32294778344868896
Ni 6.862942698818937 3.017885190628724 13.769615145060683 0.43594391073246214 0.4364918128161321 -2.879656109465492
P 8.678481371017403 5.810830030347467 6.216627460411237 -0.42037022466392127 -1.3473770985901763 -1.222915650979281
P 7.620063097021772 8.7348400523443 4.374699455981403 0.5928285118690693 0.6434280791934919 3.4282181953170188
P 0.7178008435194074 5.400695164531129 9.89715250516931 2.0429330088271587 -2.0425257460864112 -1.8220675339632169
P 3.0614461045308436 4.63667218039948 4.473486654005341 0.766267674930248 -0.3220993194054646 0.28276169814810653
P 0.33444427997934567 1.858483950058286 6.7251446969146045 2.521696071607676 0.29909180276669783 0.4207594896825399
P 7.2579291868671705 4.202919277324007 7.998377041706269 -0.7596622537985884 0.13622501590472666 1.0810802308663123
P 3.060420044460344 5.825866474289698 0.02489035174655583 1.806815750010469 0.6856772176706901 -0.25131684937526394
P 5.829914747658759 6.165100589234512 2.2284494968964457 -0.18621446044897608 -0.8297425555554419 -0.9987704769228024
