# total energy = -340861.53067496046 ev
CRYSTAL
PRIMVEC
9.38985501152884 0.00000000000000 0.00000000000000
0.00000000000000 9.38985501152884 0.00000000000000
0.00000000000000 0.00000000000000 13.74300195046531
PRIMCOORD
 96 1
Ni 1.5560773469443163 7.690572773597496 13.915338508317847 -0.476926780902727 -0.37647172350875807 -2.7672917022284467
Ni 2.9950162553080815 8.706348485723096 6.724203660452199 0.45098872088072656 -0.7940134775849487 1.0418796494074507
Ni 5.006548509134132 0.8905929849412844 0.5449965622167348 -0.375843603006456 -0.4658584389037074 0.6867899911188946
Ni 1.0144235730349704 2.6570096522151676 7.631502136061112 1.1704664320406293 -2.7403876787487516 -1.0761974488527142
Ni 1.5093534294792403 2.5909895831442373 4.5043236744988215 0.4627638591387837 0.7645812883667606 0.9771544413149236
Ni 6.437233735132182 5.995647643784192 3.438513182107063 -0.6543346988036667 -1.0540481664491848 -0.04253067427335901
Ni 5.336010344362652 4.673161714600868 12.091477526358254 1.091033228313966 -0.060254059695051064 0.174935287990731
Ni 2.2546637640598144 4.606521915113399 6.00169283230188 -1.1808950835731211 0.6753964045699723 -0.38681784262977253
Ni 4.045797346113304 2.2700255665061295 3.994238592413749 -2.0464595339231786 -1.9134016028925238 3.0631919946410404
Ni 0.410761076023561 1.5637019090386979 10.965898730218766 0.8674943203829188 -0.004389901537579536 0.6515306536959683
Ni 8.11921025518175 2.9581986346528235 6.471153646597382 0.2283057331920713 0.13064649337568468 0.34017803128404644
Ni 2.76658925768491 0.9240114781603771 9.425857377295122 -1.3101853200312275 0.47180848583955526 0.36834549485719786
Ni 5.09728267602823 7.144064444758598 1.189936860911519 1.106630825641907 -0.18176876597279662 1.539165196472188
Ni 1.0899461751594892 7.140327282549777 6.402370143259978 -0.3108671981350711 -0.8255801966476362 -0.9942543342200038
Ni 1.814899304542257 4.257829657262596 10.473444978484212 -0.5620004707446192 -0.0985087323008755 -0.08580645424285867
Ni 8.039311980722278 7.998935605099323 12.704717675261621 -0.5554667833911594 1.089837408233652 -1.8650970022498652
Ni 3.212738818463772 5.444237810741765 12.275001299361302 -0.10091657041141976 -0.11978846761525822 2.083762641249011
Ni 5.760891884028493 1.411886736696385 9.983054177848345 -0.11946168040345877 -0.7882164112871973 -1.9176284964896781
Ni 4.54237042714688 4.307886973180265 6.925071434249006 0.38817872753304117 1.5229165958238093 1.9086355489624487
Ni 9.143098801851124 6.413965674947603 4.590053048786632 -1.1269086020543366 -0.873062815609632 -0.5538055936386527
Ni 8.434765715457342 2.592867554103445 9.23954387843217 -1.7988815827650568 -1.9501712063123895 -0.27167638686822243
Ni 8.849093058332437 8.726696301066106 0.9213297356306291 2.603874699289961 0.8770333702216058 0.6690241824950413
Ni 5.940097262810842 3.247809926126967 0.3276139118046608 0.2811480738040836 0.3531965550309014 -1.8256724777056559
Ni 3.928189414792951 6.609593909768221 5.98077599175823 -0.2047423440498345 -0.12306585281494935 -1.816247327737014
P 1.0874109143645594 5.058558914849376 12.978904252262314 -0.8651461318657164 0.4305885599578197 -0.7057845299435264
P 0.3026049725408981 0.8445498319489211 8.779112348508539 0.6260165685852638 0.01609124913490777 0.7156647651717158
P 0.5261530016120494 6.367551622690797 9.469931477736756 0.11697259543301788 -0.001764290989274381 -0.6804409089724152
P 2.813632430213051 3.828938649598849 8.115270272109333 -1.2821962910174691 0.7129154845613529 0.42537024898167386
P 0.15872704445767483 8.645173581726919 4.563735163764301 -1.6804182617191255 -1.0480189295359692 0.9829692482244878
P 4.125864637959104 7.483742442005207 13.20883832158025 -1.6608035728119912 0.8035137037659001 -1.7078115661304138
P 7.065584038373329 9.324088253044723 10.879963718110924 0.13395087515856932 -1.575093534937681 -0.6316827657321057
P 4.069112355571862 6.600363682503717 3.6558995884610557 0.5683348976030792 0.3816738365349879 -0.25121966167576737
Ni 4.547497287865515 8.848698684431003 2.720523569041036 0.15543244207111293 0.690651788067146 0.504229582482738
Ni 5.835240754303507 8.242799524007179 9.315487146051552 1.53493058956555 -0.9275200661172478 2.0485634676400593
Ni 5.764046875239961 9.726856684665897 4.975846500907533 -4.2097661934451045 -2.7700034447326556 -0.18687806217490396
Ni 2.294232612170311 3.2029170303471184 2.2555285696865295 0.7662769309016286 -1.2364905614502384 0.7208910465676617
Ni 7.83120462887773 9.099445366904353 8.250625028994195 0.6665045013969811 -0.008063493734424823 0.36954979957794415
Ni 1.9656722030022096 5.156598388774789 1.1436195241591116 0.11887058378667915 1.394428029331392 0.33357261015238676
Ni 5.421908736036791 7.123247136675787 11.416160108412813 -0.06799539420336677 -0.9458044662487325 0.16365482998090525
Ni 7.626928337789963 3.71136827769768 3.5686725323332777 -0.6237005188575774 0.7042076723747098 0.7096136738816294
Ni 2.483860729776261 8.520006817295759 11.293214983626394 0.2714694130637389 2.045884121035683 0.743047785170359
Ni 7.352378373408661 8.013226964098891 3.652724878554516 1.353860906542307 2.278675915023566 -1.3693178645273256
Ni 7.74123104022211 6.835288459645747 9.94388627653764 -0.3621915594406601 -0.0838570438259717 -0.3732354759596475
Ni 8.952869733538229 1.7946453877472068 3.508643190622218 -0.20294000073377308 -0.9170492484929109 -0.4686468002821219
Ni 6.363664222805238 3.696851562183008 10.13403459209929 0.03563857513921604 -0.620146482957732 1.0012155960291853
Ni 3.1425684335729938 6.551113894098507 10.383538996783125 3.5476744764038384 -0.06390322641186413 -3.569879037525336
Ni 4.596446600917252 4.936706769161215 2.3268830152670876 -0.8742938598032556 0.6110118676463155 -1.8941296420367897
Ni 1.5212034262318381 0.35893846740423746 3.515995446927515 1.3889407809645757 0.6209985465453821 -0.8828489484621183
Ni 3.8994752388266725 3.2381947148158257 9.82752437894872 0.9186680150432565 0.020270834433894123 0.39478620554722976
Ni 2.705611540639451 6.221914974804276 8.021130404880713 -0.23497363213055014 -0.4213140766344292 0.31022107991063996
Ni 5.089705063207829 2.7449268626704546 2.315325042998647 0.6181189110047419 -0.26207588766398093 -1.1968302667461388
Ni 4.774985300009084 2.241733934005673 11.896725364990107 -0.1619324479731598 1.0976530476233288 1.4987009178095545
Ni 7.454173789252489 6.687088381399907 0.681919424852534 -0.5493005066794476 -0.42340669749739984 1.3558036320909748
Ni 1.0456636199413827 1.0658048584788802 1.2716192077822377 -0.8854994987110878 0.26626421471371564 -0.4373688161044467
Ni 4.861822677162826 9.346116852396223 11.963461879981976 -0.6039174226933792 -0.9548377800955944 -0.2563963207807004
Ni 0.3807651848776235 6.9762959091178205 2.3031895946602496 -0.4745042875041635 -0.6122010028584102 0.30703779708665185
P 7.871440156678744 3.2048043911611215 11.89113182848811 -0.9809432189333945 -2.040345707715957 -0.3616261738554933
P 0.5228627964915182 -0.196100544516858 12.699357946144044 0.9506810776147434 1.2113906810588169 0.07764860102241465
P 4.03543094641848 8.816125278143554 8.692613006127454 -2.1496114214230206 -0.06768917581685761 -0.2228547373798291
P 3.770007920898926 4.107648319654794 0.2508753234840553 1.1288760101933526 -0.3561947184272769 0.7229353306912002
P 1.5181047741491462 4.941213899463311 3.675263347021441 0.21214326449959592 -0.15843137679843683 -0.16778839253330458
P 6.959628916854857 8.929479605241303 1.4088913730164496 -3.836948521749166 -0.652375775305083 0.36773357230481185
P 6.86188052842812 7.559725147014732 5.596960982042854 -0.868268479544782 -0.5524601353543518 2.104971928336775
P 8.117416792915707 5.218693498540977 2.1380126589431776 0.588532969817509 0.5550024421602313 -0.40074730822667115
Ni 5.707519949367823 2.7967682509993703 5.842768600893489 0.774899382463317 -1.3253072632743306 -0.9224465082490823
Ni 7.0460155809783895 1.6523609180228709 1.7887476199498167 1.4048718503725353 -0.12266398939084035 -3.676677520638829e-05
Ni 2.2495087337767905 7.61861831629547 4.368419611108392 0.25612712627971373 -0.497239267207834 0.17525230501051756
Ni 1.3669656713521479 6.569978112383744 11.461237045346664 -4.0570596349455865 -0.37328252714749904 1.4228718864943817
Ni 2.7853877469865744 0.8855337311771802 13.063904973817953 -0.47475497006238887 -0.41136390740025286 0.5723645875877627
Ni 6.816555699327654 5.1705235434373105 5.8355393516860214 -0.03277256644533065 0.3517171422718975 -1.0564997133134708
Ni 9.295993807494982 8.464400097193632 10.733985279509827 0.30948265908271855 0.7849146006074741 -1.5124480921923178
Ni 1.5572416889390246 3.0344818150158215 13.580229614414991 0.8136428217801019 0.1253497637531196 -0.6131890778032923
Ni 8.737212938437665 1.887867866162254 13.44141187908135 1.0709770809940393 0.04797755632054318 -0.23999551082517376
Ni 8.302096457044147 4.59266248943445 13.445575340697914 -0.11221759724653577 0.6518402145165871 -0.2830679165346157
Ni 0.052896808007990105 4.315765061354139 8.434409839960571 0.41504109914152393 5.056109847892337 -1.229521586331573
Ni 2.693395339549808 7.4432909475438835 1.9268517263189573 1.9257611528991414 -0.15221470646476368 1.9936555027482699
Ni 7.796696912502296 0.783677281277178 5.433034774984614 1.9108035031480448 -0.902647471245284 0.7313091565771921
Ni 3.24443896825519 2.3844972863246063 6.523775331859849 0.21104771744257203 -0.6159815529467649 -0.27927348248919004
Ni 0.2229621021318786 0.3385652994532778 6.614850350483041 1.7201487475395278 0.07337697023025426 0.05955780495897484
Ni 5.622053491014301 -0.16828591664003964 7.323411610348369 0.2885991307654901 0.9433907146009172 -1.8987619986024782
Ni 1.1671589511472946 8.233315770663182 8.296773348360274 -0.02331502057685662 0.3824991606497606 2.6065018525001626
Ni 6.981338261143292 4.665809458295572 8.131940081328738 -0.3768093093538349 -0.8932745146708164 0.19361229557494397
Ni 9.14332415836623 3.2989001260722 1.549248105551159 0.16874381446803843 0.34155948501260525 1.2111520826854496
Ni 4.388076333138414 4.540389167784917 4.626113847145328 0.14847323714446042 0.5493107910920928 -0.033047674483588245
Ni 6.8985385215518455 0.8809148616030099 12.754247281339753 -1.0006535528781282 0.48756060646748933 0.48932618300834435
Ni 5.374752885251098 6.445355959530753 7.674202500746086 1.0178334070915245 0.43975634250001683 1.4698531403399266
Ni 8.078768150575224 6.632317358374628 7.433025958280857 0.4301846396511817 0.8786721913766093 -0.858683149849192
Ni 8.621210672287436 4.588371325792661 10.492712960525678 -0.02673278800915396 1.2300175521313848 1.3550888654121374
P 2.617938466408862 2.223536395410955 11.39058496090485 -0.2192917026189191 0.3681734880557079 -0.7261952323893945
P 2.8316609514214406 0.7397430896720043 5.284198064583604 -0.1571198570758649 0.6698109400623947 -1.8414132854796803
P 6.146833695855171 2.388863568804763 7.915185612202517 0.6146597488115478 0.32021110124381624 0.8742894889278813
P 7.305025335672251 6.1587869810105245 12.005405422370389 0.0030701542848914866 -1.5742903223100952 0.8229808113515762
P 9.218743472087992 4.888762170572654 6.1852579206660305 -0.28624400026975216 0.10955701969523714 0.7690331534905273
P 5.174025959276233 5.523722931590211 9.842215745762598 -0.33232536800884704 0.43313729452160243 -0.6135053234921305
P 3.01733594015826 1.0012589966109278 1.8598682581459538 2.3042547919339347 0.03788777618470894 -0.2249087916953804
P 6.635021636555887 1.8696703275675357 4.068010925604287 0.3571370277358882 1.9268312460348687 -2.4081163039062914
