# total energy = -340890.7664921785 ev
CRYSTAL
PRIMVEC
9.08930457636241 0.00000000000000 0.00000000000000

0.00000000000000 9.08930457636241 0.00000000000000

0.00000000000000 0.00000000000000 13.30311600849217

PRIMCOORD
 96 1
Ni 6.526684072473046 2.2595465298433344 11.520152471732626 -0.8934238957644871 -1.0999454432019313 0.7340558660843939
Ni 4.410648569282392 0.4343524056531107 5.960234988591502 2.1337230323275382 -1.5549337721603542 1.323019495681418
Ni 2.872147465579438 1.6710322506801358 4.968460996154285 -1.7471977812375201 1.16652081712932 -1.7531910227064775
Ni 3.471178069895411 4.3178649503026865 5.087643590737894 0.20082989636930576 0.5066027107006049 -0.58398031744982
Ni 5.098854338744317 4.260529618354805 3.0073426876666276 0.3700663342030465 0.19124996599035451 -1.5042251900618933
Ni 7.325788444518374 5.8823251072781755 2.66962958390576 0.38883153062569165 0.612318759383197 -0.8994402771618961
Ni 5.554092147972228 4.670093673137867 11.671448487575757 -1.9243408755128468 -0.5334447705941135 -0.3884612917704665
Ni 5.576742694455127 7.7860253711482095 12.334489608966834 0.3202838634632807 0.6201822212916739 0.35298675301294047
Ni 2.077106012586219 6.546362416427891 0.33551349210402104 -1.3861807017209353 1.4221082688554798 0.11646531677929618
Ni 2.8272008554839605 1.6642425403178867 0.5127849219675475 0.7170253929646683 -0.12159003960037124 -0.5100893836976248
Ni 0.5017332367875491 -0.13012884383294876 4.67682975660435 0.3760472343768298 0.27562868664775114 0.5224142238115648
Ni 8.685157537753849 2.3822248708865432 1.291207490855899 -0.5131302274064775 0.012168002821101625 2.2984263581776156
Ni 6.982694472572164 0.46362178357615585 4.821447860528948 -0.6603060858957531 0.7155760621126515 -0.2952420900033044
Ni 1.0851266018703045 7.510337680388665 2.314954929265384 -0.9394772384791239 -0.2188150200928167 0.6312492777391129
Ni 7.697041081393967 3.8014197654664943 3.772896619431991 0.49511116512123765 -1.1723446228999486 0.3841842616616674
Ni 7.792451509335773 4.1450954528922015 12.630842742135496 0.4564903674252461 -1.0051270152684495 1.0374905192008197
Ni 7.765801668931336 8.835294667290169 6.949613949327979 0.8581049087482189 -0.658462347818795 -0.11971262007200027
Ni 7.054854459942842 0.38622453902913556 0.4485553526571944 -0.1016958717796055 1.0130593827416488 -0.20051853577647402
Ni 1.6610249265719208 6.723312993847258 9.227878992584989 1.2411697120934626 0.008424219507953233 -0.20942663689938126
Ni 0.4205548416238011 5.098745267091912 1.3111894175766068 -1.1032505963157646 -0.7851277450595446 0.11661546920391529
Ni 6.360776999859747 1.8175336584696031 6.981847349405147 0.07153863146993486 0.005245307559339353 0.697955777927727
Ni 3.1248483055945004 4.493406685545148 0.4184970231150819 1.3086837957850366 -1.3853232388166463 -0.35693802435120464
Ni 6.006057807627972 5.5330049618404775 4.725519342238215 0.15052754857032785 0.5079533111912284 0.9396559301488333
Ni 5.176522444561478 3.0408631332421816 9.05261084540398 0.4177862659868289 -0.3325606239481047 0.8713185792250154
P 0.18578174554247412 5.754247719440888 12.532625537005117 1.1172726216264692 0.3962512201285305 -0.6082430466519266
P 4.080906785451501 6.086116400493689 12.563515537896823 0.4124635682223348 0.6382429354481267 0.34478981902444494
P 2.6200192517395053 8.735948570557394 1.3074737099513223 -0.3247149026514408 -0.297494633482907 -0.26363860416541046
P 6.367057709177437 7.459682987150627 5.838790975081349 -1.3545414775490994 2.263170620299115 -0.6394397839697051
P 4.897471711186094 1.2329005122711707 12.668330669067304 -0.07895729253150917 0.019770240648391755 -0.8726977189607293
P 3.873897878490022 6.379610038508448 8.161062794362277 0.26041778323526765 -0.13587868830890146 1.1478728630108297
P 4.746089346951476 1.02903650462072 3.8594068005374997 0.4431681963950432 0.04309785963073868 -0.8502316766477294
P 0.4347986904975369 5.667135826386276 3.460752637786308 -0.8301932699396154 0.03404654806174782 0.6677753976896047
Ni 1.53299298525647 1.043679373956173 2.7368768022660017 -0.790684927432348 0.4428149268206825 -0.3944781873885077
Ni 2.0148260990626157 6.392853154971363 4.8262106560173255 0.32729243357062987 0.47986220938196716 -0.8807095335216122
Ni 5.975290512345223 5.668526489954447 9.327399603961615 -0.12248966859650517 -0.42322929137927107 -0.30603146730932457
Ni 8.516896335309463 2.3015845625413296 10.30899630229895 1.1445283720186288 -0.36259522263698196 0.38107914037378243
Ni 2.5074027706307143 5.047408876026338 7.200724161078792 -1.338147095351476 0.17781415220042282 0.26430117745007387
Ni 0.4401359300219181 8.938540075596446 9.023968629482265 0.5323042292317671 -0.11335299640255961 0.6302169798198566
Ni 1.5374285657876314 1.152269293230324 11.82795994626475 0.3147590769903095 0.7811885579061385 -2.2605776627609586
Ni 4.0827428249336615 6.9780225701274565 1.4850669011894455 1.0512204671924026 -0.14052595727292572 -0.19056348144629115
Ni 5.499865358117906 7.872628263158263 8.057098422080559 -0.13810654919815568 0.4575923422401732 -0.40731364859027913
Ni 5.32681409227204 2.8236014909545752 5.030506405625215 -0.13224186288726258 -0.32058802496726074 -0.30245583414292426
Ni 1.210022733179094 7.382778382900305 6.857795614472063 -1.7624369667847775 -0.28381996420929184 -0.3094068115394607
Ni 5.030639109468975 4.604314377432918 7.228872827773371 0.1081717093119363 -0.02403647212391344 -0.504907325276053
Ni 7.9231466168307945 7.119415788862595 8.630502641663835 0.983103974030139 0.7030097954118666 1.806464023098005
Ni 4.574128797629665 0.35406476231734174 10.408809589276197 -0.9104800799158255 0.08185518290459451 0.8132563849749607
Ni 8.163322395427945 7.161662875561034 4.6481220976911946 0.046433351761874866 -0.9532853480068099 0.5759127099503372
Ni 7.217598454636377 5.939069634442194 6.860722370478281 0.67767517330182 -2.055421885322789 0.7789226446900972
Ni 2.5061757145411505 5.206480791755553 2.562898427374688 0.2088720499474919 0.4958087054088945 0.92228992806656
Ni 2.23244222422054 5.568180569741287 11.537086754699034 -1.1845043981909344 -0.9767137542330793 -0.808954158055181
Ni 1.3798472959746277 3.50200899030873 4.003798580783355 -1.3445393720310652 -0.2829542737748869 -0.22076623028191658
Ni 3.37432244255923 2.71207572636984 2.775296382895441 2.0433418142298034 -0.6168261603352474 0.745243250159781
Ni 0.9371890839908299 3.049797919435074 8.580842318323562 0.807868638300486 0.6749364342144182 -1.1599745313703702
Ni 3.4706599795464848 2.6008499088292196 7.062783969072729 0.43160363148589537 0.8648422274720525 0.6202331291342673
Ni 4.140550800708635 6.825485864238212 5.97634487165181 0.47042883188320916 0.6022521191758144 -0.08942168239794276
Ni 0.8270930669830446 7.737733897045626 11.394105634490957 -0.633552986171625 -1.6038101861460832 0.7659519434620421
P 9.33335218939165 5.561018197899985 7.905217055036186 0.06774394031419301 -0.07763728816850499 -0.10252093878406215
P 8.370649428042276 1.3852008962468696 8.153758629372847 -0.028534617104583118 1.3872358824583269 -0.3521686279870193
P 1.8064537964460667 3.499627592564541 10.565094724286448 0.3021064212233055 -0.440304501694003 0.3232560587177271
P 4.166737086590348 6.147160168623361 3.672670678036477 -0.6502399599090026 -0.692601198484033 0.435505794753779
P 7.195202408675758 4.07596220387578 10.474354380928474 -0.5247025056251093 -0.23921209569192994 -1.9439617350675682
P 6.4486523944812 7.682625444667693 10.186009833837696 -0.8891445516628429 0.4858389957906923 0.6301622153225211
P 2.455784611129759 8.707235458061618 5.509431850964315 -0.5705239348345981 -1.3319715626683835 0.9183144883585797
P 7.105454617354677 3.9836148715056976 1.5198943887329932 -0.8893672091966102 -0.02163660443316919 0.5178672278708307
Ni 5.328522881493062 3.18342887224068 0.4446687661098078 -0.23550327938177507 -0.46679174935125417 0.03958521849178989
Ni 1.377711309448351 1.0937796196278162 6.989031535576929 -0.36145673815716456 0.10712089944991873 0.07496951152835475
Ni 6.678920831318175 0.617171037971899 9.46660320927471 0.9816289321465095 0.6596270575508576 -1.1804716228824574
Ni 2.6866620313593326 1.7147881619035192 9.417728201831755 0.43333424102375695 -0.588832760446115 0.19745969434549218
Ni 6.196587805771837 1.9960930427619523 2.5361995047266683 1.3578080641155132 0.20708050526470786 0.4139455520845
Ni 4.062455497586218 6.9617163580928185 10.522671305083286 0.334284805728063 0.45659835375802005 -1.1515801366590876
Ni 8.143634962168735 7.306691816043025 0.26237367772256637 0.03305024558674953 -0.5918113834584646 0.5284424322835157
Ni 7.775363617125561 3.5212964941757887 8.179819482854295 -1.284669178037994 1.4114376765155112 -0.11894900243309839
Ni 3.029092484086743 8.305388222686252 12.328968765494237 1.1362535336043462 0.6635636736011024 0.7591786292939506
Ni 0.08739275255955764 5.049254004812866 10.09201006593367 0.3240736695230161 -0.8908054843050336 -0.09350510843869703
Ni 8.690911067418245 2.3033478875885534 5.854807238306676 -0.7859373854450336 0.6228582254619401 -0.1448541523346344
Ni 3.7105449004038875 2.986454557300517 11.67348358282356 -0.2555563413779083 -0.3453660032428891 -0.11173808650695594
Ni 1.035280856720941 3.2587428482267526 12.927076805416947 0.5005889004063573 0.8315832083086065 -1.7812394442032615
Ni 2.9016331689464216 8.554253376258384 7.864522421523652 1.6051291620678227 0.12343866277333579 1.054159238105752
Ni 5.532568675230855 7.963621289177643 3.73860085619392 0.5504875850090133 -0.22338027086599596 -0.35917231299836205
Ni 3.1823017984991555 8.144716589388423 3.396564879276044 -0.49477820726185107 1.0474178056168606 0.9456062341949973
Ni 3.5431108246569107 4.746643794517871 9.73065749937476 0.17315274216901147 -0.7558855603649757 -0.8222711868790612
Ni 7.454429369226423 6.138125400082431 11.343527291409602 0.11258577921923191 1.3303137153499864 0.23701225982713378
Ni 0.58141189673072 0.030254658516442566 0.32738674506936644 0.4631963186905119 -0.9476330348170389 1.477687548782681
Ni 4.867449738861451 0.3842730653815119 1.338001047598779 -1.2594191452219534 -0.7299796391324912 0.858838958700766
Ni 6.065983591320486 5.685868882686939 0.4380226667565594 -0.10152566475032838 0.3993699682631703 0.6730860112692408
Ni 7.950141850801182 -0.28989790920712183 11.531898579766274 -1.0022669201118353 0.8366559948458236 -0.470600581574383
Ni 0.16676873866730305 5.097109192305827 5.66475897329427 -0.27690986735301987 -0.8210555693044053 0.5653105089544587
Ni 7.920065342650337 8.429629924080608 2.685513143287327 0.28988751055961043 1.263187096904818 -0.3219825913219423
P 8.553135391821227 1.512369353647443 3.7189525069434866 -0.19115432095275467 0.6530717729308431 -1.1343180071445305
P 1.7640249236602845 3.23360183234726 1.6594306625859256 -1.2654812922556335 -0.15825165668746294 -0.159367515459461
P 4.581691098863121 1.1171118639382493 8.187415414513909 0.6765811689066928 -0.7753899489464904 0.7638012156676265
P 8.623259375013665 1.5682776648096846 12.625654567202735 -1.2014225141025117 0.7674596383558202 -1.8248821205938768
P 6.266629985224973 7.666382857763622 1.5402344340457657 0.2515654750509603 -0.41735200666288763 -0.5720306012871116
P 1.5639238880178274 3.329903012117046 6.2251400375803145 0.3684367690194235 -0.988474237203117 -0.46792252052158767
P 6.926213535234792 3.9615733084153972 6.010454304150354 0.4528599697615104 -1.0861108513116844 0.07359679955054421
P 2.2881414813823384 8.721251165395739 10.287112893104638 1.1812887194671138 0.581239007259257 -0.973360264379814
