# total energy = -340857.4448134268 ev
CRYSTAL
PRIMVEC
9.38698333010642 0.00000000000000 0.00000000000000

0.00000000000000 9.38698333010642 0.00000000000000

0.00000000000000 0.00000000000000 13.73879895442909

PRIMCOORD
 96 1
Ni 4.493426961331843 5.576055927088769 9.288211762925078 -1.1655594816573152 0.17581794770600043 -1.7760136770279478
Ni 8.016915693590207 4.39961344842769 1.7499937402082875 0.20822773149527363 0.32602667948432884 0.5158057173561117
Ni 4.431810801765818 3.344995241376587 13.296725931621065 -0.3980545918858564 0.7142365173656215 -0.7316544557317528
Ni 2.6635377886259453 8.72899348645425 7.498678170900214 2.6044580825972568 2.3928331524949757 -0.880155203680039
Ni 6.4192604921919685 8.977016363976118 1.0343169778778176 -0.053866411001152394 0.4275885967892314 -0.15064890463954056
Ni 3.040641075988218 5.538489219199794 0.9495187239083399 -0.13239715751820422 -1.114548794937403 0.8219474849910553
Ni 6.050295719507293 7.716335095561 8.65795748896554 -0.3307675366034239 0.10819767745386528 -0.44881073939280125
Ni 4.648387284627997 0.6498646211486587 2.440945188051111 0.772654038072566 2.1654483884552773 0.29270621095532817
Ni 6.741693987763788 5.2495109327524885 8.291530017915644 0.30735944209212873 0.39552488348546716 -0.059190908537859355
Ni 3.6173867280138414 2.054097273137727 7.073447819233399 0.453057173373981 0.6953466224396541 0.25158372988340544
Ni 9.463956745043763 4.058969204903693 12.442928155660118 1.529781955485075 -1.2027782567994574 1.2560659124790043
Ni 5.992115195895131 8.36288235674765 3.4303304308011495 -0.44512583434204633 0.34219917547913326 0.678649107179315
Ni 0.39874873256996585 2.6409527063718534 10.563350863296868 2.1804389483268385 2.0841855877190425 -0.754164978129443
Ni 4.807168110200716 8.602954459261529 12.519371055633597 2.1550598461321013 -0.6785133529323992 2.7280037032621016
Ni 2.1378573267342613 1.039767999184946 5.479376568128018 2.4189151942940086 1.119323333507911 -0.18992996162735032
Ni 5.390991547770639 4.642210649497826 1.279814756843429 1.5492398070993705 -1.6954317044088218 1.4258664503463314
Ni 0.07026438744661385 6.373752396278487 9.298748651881944 0.9417220686492427 -0.7536625845717279 -2.29484378303268
Ni 3.587949147818982 3.7281061981663814 10.49086457686042 -0.09675395439329788 -0.426454226074472 0.14198402987569098
Ni 7.521611510241432 4.171237527330517 6.101345890467663 -1.0332888224146461 -1.1082560199501559 0.613558545327569
Ni 4.227662685031825 6.186829394231218 3.019499711793427 -0.5719174727480151 -1.1404747707745455 -1.2581389929579494
Ni 8.624751034903259 7.5892259522515 10.791002109269346 -1.6721359671056748 3.207705475806805 0.9159159062194162
Ni 5.7858362339110645 1.6579571832769935 5.823753076283862 0.6298881357255282 -0.4301360458014334 1.3891819504411043
Ni 5.182516031652135 1.885338084125233 11.345939921273064 -0.567470749830571 -0.3171260345605893 0.884218060895503
Ni 7.457977149227099 2.493239134322648 10.656458475043289 -0.22679263898165458 0.7052114310488758 0.3457123308387143
P 7.878147916797921 2.9922417891627413 4.274703675347673 2.0374295625104266 -2.349538346362083 -0.18025052955605733
P 0.07038735693020845 6.228376183115927 2.786063267901915 0.5272424984381436 -1.513024276410762 -0.17344199127465612
P 5.285153309027962 3.9744112577113166 6.6109455109588975 1.2395044085758977 -1.6978182023631276 1.2164727235674146
P 3.744345679587653 3.9200700103426813 2.2956159098059534 -0.37656505455351275 -0.766681365428899 1.5307949701306216
P 2.443966858033485 2.620151150979057 8.832921474058647 -0.05559419232553651 0.42147837012643535 0.3242307639261706
P 2.1987037536548857 3.3368567266989904 4.791117307147403 2.5872664013093183 -0.6451507183115534 -0.6447856216626507
P 8.66319073225592 4.298468701425263 9.419608880288473 -0.10325884539135119 0.21611844709726005 0.7057099679518491
P 3.5262766663520733 7.743275738150046 0.8476812175250522 0.02031300052573921 0.13082338527318116 -0.07879505592203204
Ni 0.33794642447169965 1.6091260952114133 13.317059076538184 2.85553787626105 -0.49153038974851476 -1.2990838108014273
Ni 3.823553046196143 0.8486677894888531 9.176267291428333 -0.39089278403009453 -0.20576152934296824 0.9885004624553622
Ni 8.198366084268342 5.57068657253792 4.540054924374549 0.08335310760635968 1.7977428411749234 -2.1190764860589573
Ni 2.311065945916514 6.7325510658537775 12.935010726278382 -0.48428476392969505 2.6249387190491116 -1.4155339580720718
Ni 0.5025030609799724 1.9375297122768331 7.839454770891286 0.6518615546728257 -0.20508815742502742 0.16924337981227627
Ni 7.65354556305991 0.7603334588422698 12.376817508403626 0.17728604761109468 -3.557927778700731 -1.6035795581925159
Ni 8.430609442559483 9.148403908363154 8.490591328301553 0.9674454415572756 -1.4100765345019264 0.794686078171941
Ni 2.2560300617703213 1.812091452026863 3.1529169080018256 -0.2843619527556909 -0.2917448754833234 0.56638497296556
Ni 4.260075938990004 2.412511076390317 4.59014668432156 -2.3065818974052146 1.3265871584280184 -1.9870549667126167
Ni 7.905417103808785 7.567466924543693 13.587039985817645 -0.075533868672257 1.2003963868308423 1.4577969805063409
Ni 5.617330493452543 2.468326080165392 9.107409074107098 -1.4201848265805217 -0.4752661053708524 -0.7719122748105351
Ni 0.8655183635347051 4.027504036277045 2.7169440924399226 0.7687945551171598 -0.063794982968774 -0.25149039883865076
Ni 2.3576629319137345 0.3105148426466239 1.0026255829492892 0.17507258489954367 -0.3494034065370563 -1.2112942646902687
Ni 1.0210879020587438 7.904262504840683 5.02356436298007 2.129723167139526 -2.0354315582437916 -2.1527836485034153
Ni 0.2095024521112723 4.71292279605646 7.459700599394119 -1.0214167535674086 0.19605535779879785 -0.7792442896955741
Ni 6.306569755508523 4.046916318114727 3.8013058953473493 -3.2675075355661014 1.8065131311683853 -0.7212183480000933
Ni 4.822177896786041 5.5413897970952695 12.894261830989516 -0.35818500938442827 1.2404613731725282 -1.8761900268392333
Ni 7.330060725338275 0.7907482240174496 3.859832798649941 -2.176375319780426 0.5955744500453227 0.3001901780371991
Ni 8.246755984110338 8.360526223894041 5.239538201502802 -2.2275137903274542 -1.011136454687323 1.282569358086172
Ni 5.539512400399167 6.7930220134351815 0.9189556443941682 0.521704856449366 2.3255548389632916 0.509760025382664
Ni 4.330149770671963 1.224851152470036 13.812027205878355 1.0345743739952893 -1.6559171912539674 -0.28488105848395456
Ni 0.04319514318388552 0.8716621442226947 4.574965115938542 1.1032842777671772 -0.38809388112871873 -0.9290169623777483
Ni 3.1403214535676858 8.509262977142622 2.9699983931073395 -0.9645858606212936 -1.242790278416021 1.5557516400759592
Ni 7.731570169749857 2.384171773262677 13.60220841242379 -2.0589314411379447 4.1131847600739295 2.6933208071679355
P 6.73315183279653 0.5620043331678409 7.949035599947641 -4.858996995363302 0.6373301938258702 1.3305479428479794
P 4.341949208906956 0.06766794781590654 4.811341563056148 0.405789755746585 1.1604275597473885 -0.27067648484879836
P 0.8524826595753298 9.219069120004384 6.532496612615632 -2.968157079821378 0.7900223541476846 2.5059966585945483
P 5.884662395993806 4.046512677825065 11.601605680744758 0.02535699070754988 -0.28163632629441177 -0.3904130161801985
P 2.3831016571458994 4.685644222062116 12.681804356478581 0.29292398339308906 -2.2624075168808457 -0.5228891065654542
P 0.41165114136391806 3.3044716336912527 0.7410967135956736 -0.7547702158136098 0.5930848508542496 0.9251525943263358
P 6.1858156000153235 1.6921821250469098 1.2164375991764609 -0.1642220153382849 0.5801480881879235 0.07825281026531684
P 4.013630074692861 7.110414698877971 7.572043078990438 1.8016815141076972 -1.2567220580057648 0.42738985051486394
Ni 5.70002981791578 8.503771591806528 6.404766989698071 -0.5717984306716475 1.1466212499919155 -0.5831912458896215
Ni 2.6047752720379926 2.5825281211891986 1.0438410113171366 -0.8007441114405628 2.044458701443066 -1.0830646082861928
Ni 7.147145965237181 5.036717404232952 13.427450940967255 -0.9221832272853666 -0.3803944556019319 0.7999596678660545
Ni 1.1667457247257187 9.033572939446152 9.020730607346476 0.8395366588277283 -0.5273034335830661 2.231724485974692
Ni 7.449566412028568 3.035581491892226 8.051815559472372 1.9892437468338193 -0.9875481258444218 0.5164271529901945
Ni 2.457155569823592 4.858918550128733 7.980442569276709 1.8337256870274352 -3.0822742080834726 1.769049587005289
Ni 0.08557643490001138 6.2195805795946955 0.004955388579357868 1.5903404337944222 -2.35749539642563 0.6679108948262046
Ni 8.154575806331792 5.556080426242256 11.60752698992426 0.5182099559222301 0.06965838372808648 -2.2756659245526487
Ni 6.213394557481043 6.236054735602979 10.478239084079142 0.5603842752974348 -0.801140318437717 -0.03368016586126457
Ni 8.7295473184796 0.06646547523205404 0.9750869895125357 0.655823110423735 0.6110213807280122 -0.7120515938991608
Ni 6.513064618112642 9.408010323499962 10.432048554466629 -0.05041907588250027 -0.2567493332447449 -0.928358245747827
Ni 1.8658694803866684 6.675393723440991 7.189856740073473 -1.5718693715734284 1.0860833405078585 -1.9608052889874683
Ni 1.3147127453288974 7.605653173342382 1.5665664508091581 -0.4129191677025147 -0.8510474876808053 -0.2677742236003388
Ni 7.842026804364943 1.2577713035361624 6.448649260072729 3.1721561179472855 0.2697650287781225 -1.6104217779253296
Ni 4.018351727383554 7.046404858524417 11.074996846186853 -1.30338449505931 -0.10761686524973078 -1.0194650291576766
Ni 8.749175500937335 1.932329323428634 2.4862279963610603 0.6510611702587176 1.212904289489866 -0.9794648346156553
Ni 4.00597029617277 5.0558574635497 5.448313162394335 -2.485027255431733 0.05928989600956885 -1.0133938832629321
Ni 0.41300943787354694 8.791754858004898 12.45363025552624 0.9559811496714182 -0.40656314357749984 -0.37482544615458674
Ni 0.30450529582240543 3.0804700468959947 5.438806025525281 -1.7987913370440958 -0.8623775679816438 1.6950262414402872
Ni 8.41991766837519 8.150511242484734 2.7728060311323994 -0.11404205204978424 -0.7860224889596721 0.9699417256165681
Ni 6.011095676492709 6.1480048305558554 6.0849693590875775 -0.11685175358443746 0.34710766852434416 -0.25173928162466325
Ni 1.170425422250076 5.137036096689094 4.756111368351909 0.8277869744909679 3.234380928215462 0.7773403878046419
Ni 2.5922530360750007 2.0333426526623337 12.262661463598873 -0.14174645994358814 -0.2416513012610419 -0.43646995843926123
Ni 1.5280694928572645 5.163713903740686 10.6843068389349 0.4227286975937687 -0.6897889258462185 0.1542463921828118
P 2.9665026804592 6.748508937770633 4.509115426822809 -2.6893816200145295 0.20592607994529052 1.4111484274098665
P 0.9715058553147237 0.12276296995802652 2.594709609651848 -1.4171411546581916 0.19852593082647746 0.8845114237662057
P 6.223898591995727 6.355982836549893 3.295786796575091 2.787022090777839 -1.9231720520157265 0.024405939648190225
P 1.7279840800415505 7.323827768307221 10.81720211886178 -0.7584065270146164 0.7809111358750357 -0.42679823967745206
P 6.618273928962126 7.310582734616231 12.16397516756999 -1.713797094289887 0.6307170593847267 -1.3471271873628994
P 9.266248098977396 0.7239053920494793 10.494244829611748 -1.6230183836434178 -2.6111486072435546 0.8197286229628656
P 3.537756947148729 0.2225531752442165 11.345074441396163 -0.9874385968497511 1.8100224298732246 -1.6079900285553856
P 8.105003146571253 6.489324936890448 6.543844536945214 0.5300617130544937 -0.426864059918381 0.774077400782654
