# total energy = -340875.776952802 ev
CRYSTAL
PRIMVEC
9.21435990969883 0.00000000000000 0.00000000000000
0.00000000000000 9.21435990969883 0.00000000000000
0.00000000000000 0.00000000000000 13.48614712961745
PRIMCOORD
 96 1
Ni 1.8751683428278172 4.993169569764703 1.4925788990178184 0.35137312866891746 0.2892164526345148 1.5256075123924113
Ni 1.007313841123987 2.7982721474165673 7.061913188610931 -0.6797058305786036 -0.12920976092915812 -0.3134316164281376
Ni 6.960149796172463 3.5368860350003364 4.511385697099344 0.6930961358425806 0.5029969956272176 0.4685961495498446
Ni 7.508735936358685 3.7879589177568898 7.4124449523564 -0.1965541518120873 0.26411502958119676 -1.4467952300791986
Ni 0.8103891452258779 0.2751278911140201 6.037114177848115 1.4764500768311541 0.1301636402019952 -0.2656900873778005
Ni 2.8026766115224695 1.2182305427643827 7.561844743403016 0.9541129861144277 0.6389607874507577 1.222425855827056
Ni 3.9563329190270933 2.9814812683740155 9.517794459389908 -0.47083815150648584 -0.4208939583778751 -1.5566417559903964
Ni 6.465320232542383 8.769131390731038 5.1068397582651945 -0.09424430059756671 -0.236660790024986 -0.09951634762978344
Ni 3.4778219870529825 8.18953892896247 13.0603353471555 -0.8341247437835376 -0.32111818643911794 -0.6485306905273799
Ni 8.770651760139978 0.0911917571482964 0.9369769450863376 0.976825340110279 0.5895971494159652 -0.9926476518545162
Ni 0.6200177021983083 7.727447986604925 3.1432301447652566 -0.06659568564236273 0.06321545631622016 -0.5649287001350077
Ni 7.601773329825835 8.32304579178762 2.679184836640218 -0.6765857968923832 -0.9368176893690898 0.4210487387881845
Ni 3.399140566550259 5.425977275870034 4.6898752228370375 0.7477487901904541 3.0826727290734715 -1.6384915395783521
Ni 7.865866103338958 5.940166209973966 3.877469975631302 0.0787660024563095 0.04125026489903864 0.2688404600813241
Ni 7.385401727033359 6.08505280746604 8.377568081664265 -0.6830006992797916 -0.712817782641224 -0.09542340850733243
Ni 0.5578797437368765 6.505881845500925 7.581602174231209 1.2768342553746075 -2.8993062795962516 0.32613800825121253
Ni 3.3393117267184067 8.249717914476381 4.605937009923398 0.04272633522393287 1.177119932801405 0.1201057417453609
Ni -0.008772992207593743 4.288952888263222 8.935988708336321 -0.4844757968945785 -0.25746178593073726 -0.218157846124792
Ni 1.3646467240254527 2.475142969036253 1.3780010960519893 0.2522712428687333 -0.758505771596642 0.44444577755588616
Ni 4.290897118234657 5.354999060372613 10.264225810043651 -0.16331570147393165 0.7531802456186706 -0.4166560090371276
Ni 2.8663201964167557 8.09245643143153 7.148548444712431 -0.34523539120229574 0.4284342326189783 -1.0039029130533614
Ni 0.8662364600783146 8.549074043916887 8.420062867362176 -0.7496187535196573 0.7625349473606932 0.6645818304529716
Ni 7.911827331289254 7.144022351053813 13.265581531618547 -0.21078186537569504 0.05150948073320161 0.6549733608289301
Ni 5.354584414170175 7.419835790555865 1.0127788780721267 0.5575138957281753 -0.7639462258859231 1.3873623807338622
P 8.418976494311787 2.260291735652718 2.1944256471133614 -0.4685146455796318 -0.3316072588958998 -0.7744689797941178
P 2.6025222824253675 1.4339387116329572 5.473258921616097 -0.06258219360759544 0.013355338260983451 -2.173524223484876
P 2.2913809864755534 9.019946271406074 1.6115270729573496 -1.2513895900492578 1.450137149968238 -1.1821952904417834
P 2.0643483691003803 0.18278065321492837 11.398356888593446 0.7841165301862109 -0.4921693088840944 -0.5776608029896955
P 3.0225404567754834 3.6054224450833976 0.14544498771135825 1.9098668502663882 -0.1219350816446158 0.2232856542696606
P 8.535381504876362 9.140847889677094 4.5676237008180784 -0.2117599130182482 -0.6603526228629724 0.006238267600227966
P 7.252595155572328 6.25614504495223 1.7756265325984142 -1.3921171218100281 0.07748816418515042 0.3850283548295175
P 5.584519554962418 2.795093193197872 6.037774847464 1.0582331510648098 -0.04386713369659542 0.982419803478921
Ni 5.528311958631862 1.7331750543927584 4.005978969563061 -0.010818687882058786 -0.6859929491388961 -0.9569499413425906
Ni 3.93158314792154 1.0107139399839828 10.902079748998853 -0.46076842597530965 0.8139117591707724 -0.7554667276600021
Ni 7.723384453821027 1.624335033432673 6.110208931849983 -1.3285337406314282 -0.20363574124921704 -0.5058054116102902
Ni 5.268688149745021 2.9618915388988083 0.39150710147044326 -1.0613801813342236 -0.025254146581098442 0.5947714945280531
Ni 6.88494218941017 3.91084162343956 2.1708921715349616 -0.6002410022830565 0.21231964217646015 -0.25440577271323284
Ni 7.829091592362689 4.696817321701863 11.4019707606067 0.2407071921802177 -0.4999378970859196 -0.38287994102794703
Ni 2.9473052069330268 7.282173251346275 2.448355902922719 1.2164336427993632 -2.1195320855391366 0.21459763957735944
Ni 0.5878300996570138 0.8638342764121874 3.068004109282854 0.8567769339654147 -0.3301730975525346 -0.35071209804615083
Ni 3.0727495047107616 1.3488809539727344 2.9119423359170584 0.7867655377732836 -0.24654796723171085 0.7307908221798769
Ni 3.6099006240697333 5.882244742673332 0.09973623322654625 0.39912957011759004 -0.8694326750562122 -0.371658875501147
Ni 4.55367223826003 6.8672321893860175 8.230986963358225 1.8869716908357697 0.548823567043029 0.5745361413177846
Ni 8.331043856314656 7.844203142851558 6.569372472018312 -1.1292017689638874 0.3095546499712346 -0.7067378949957313
Ni 8.706768601884285 5.0713718435446085 0.8088494256608229 -0.03158214568165529 -0.3776498029772593 0.3567806728377339
Ni 1.0600568380741673 3.8825719667933067 13.09995801682452 -1.9965431087087098 0.8793483915080276 -1.7990440764848499
Ni 1.543589596277811 1.321615662572388 9.503310406820725 -0.20378717922541678 1.309250466921784 1.3512466088479116
Ni 6.929512048992284 7.020033922164641 10.896793470635766 -0.3964373679974076 -0.5808476853581094 -0.18410255631229583
Ni 2.357669092705392 3.5558031161915875 3.658751475333024 -0.14363442099492038 -0.5214361761690116 -0.3554501269517685
Ni 0.4171036722649761 8.40728347140302 12.063062394182563 -1.114972512738383 -0.9328263088215096 -0.15986039593547954
Ni 0.16905954965823491 2.530272485240468 4.608054469863851 0.09194933391580294 -1.5170609083739808 1.6442484966667876
Ni 6.339700861923619 2.284645289275941 8.825321479777491 -0.7088078901508825 -0.3385646640503395 -1.3935355994241097
Ni 8.377134085305713 0.7490113714689167 9.85002558263175 0.5147276538005845 0.5559285535189266 0.2952757714547173
Ni 0.6808905290242999 1.671871916952236 12.295549912709815 -1.2736815686782388 -0.36961947647361504 -0.2495096209631961
Ni 1.8947027861426988 4.96615306608582 9.8780906804848 1.0673238005121684 1.2455387876954356 -1.4164251024277736
Ni 2.844039873805726 1.3796661309137814 13.05604698398628 0.5953852168526521 1.0136525362409574 0.8278520234009485
P 2.602227422903633 3.7641766544570268 8.025336268488799 0.42627219197065297 0.2016886448251752 0.6935897876495474
P 2.483528036685565 7.18202237191729 9.132994490602908 -0.10234918909288825 -1.1475933840971977 0.45974769802027915
P 6.163660513088331 4.420193018515042 9.508704493196449 0.6765312895053639 -0.3639237116404184 0.2230442276828159
P 4.569438008312749 3.6154937406226266 3.5473424907898305 0.1308074444335812 0.9602710352960238 -0.6626481037653684
P 7.764987289465693 8.05436426696751 9.098483026455947 0.4991398266646565 -0.6005356507053399 0.2732244480816327
P 5.073426645836693 6.412927381274263 12.023844234919922 0.3289664788389431 0.11118992731296978 0.965626643180982
P 8.992966625167407 1.197562733162836 7.707440846619264 -0.34235652699260394 -0.25378382285851775 2.174072382678862
P 0.20881029893200806 3.0619410603671975 10.693287878786954 -0.6016772205089509 0.3969729287859034 -0.21158199267948724
Ni 5.992347130960841 5.4581353924591545 5.6506961674356 -0.22508645492382526 0.38031603695551275 0.2658127289985939
Ni 2.961274176775178 5.670213103466379 7.104381252664685 -1.0161634755882691 -0.25869874366163187 -0.318894953535554
Ni 0.06796972693972823 3.9752776432985066 3.0083411279319776 -0.10060212449479448 2.211695849458591 -0.7313433522492372
Ni 4.655094699376493 0.749616754924477 6.030614368265889 -0.4265609268556654 0.14225733814173566 0.9100399070546135
Ni 3.4890911493992562 3.5898409622317633 5.802576464208804 -0.3512610285710854 -2.6586232557857503 1.4556400820643383
Ni 1.0131833884785058 4.537593179965469 5.503588909170466 -0.5224522761383519 1.705785022618688 0.16424232705325909
Ni 4.638278492277598 5.2685038625439375 2.0226662899592487 0.6008783787567393 -1.2564014414415523 1.132445986932798
Ni 6.608004597981506 1.1961990078748157 1.6754516958332888 0.5805239834701035 0.5862757983522161 -0.20752144945686843
Ni 6.542223281554649 9.203385751364877 7.774359215076808 -0.4309647123503158 0.1435112651534948 -0.7501322028209663
Ni 4.9970396009874625 3.5371348227217996 11.494647872595731 0.03294277347460778 -0.0031807117208267803 1.5135048155916062
Ni 4.9898892575854115 4.342608106858767 7.630637312695584 0.08448002212195128 -0.31203525030124324 0.2862051766120168
Ni 6.902937834596001 2.387588119801345 10.950252423362155 1.3822921652998064 -0.23688807554444366 2.0962420046629444
Ni 1.4005919425968454 7.067524733883933 5.309267269987665 -0.43285061651911905 0.282388631079404 1.1941925720129756
Ni 7.815334552801783 2.7677726156372 13.432391855987554 0.009979222699898944 -0.24240000650160834 0.13579821277995321
Ni 6.036880133102738 0.08533695276986444 10.221110897914093 1.3861745310733482 -0.41065094049362827 0.6898105231127732
Ni 0.06309717334307287 6.625604025685009 10.079614263485954 0.2717332082480869 0.014975647473225823 0.5404070608445597
Ni 6.162213858559823 8.58524040712958 12.639635310161372 -0.4386795644960703 0.12697238695820712 -0.7623559985806676
Ni 2.325916407958655 3.30012305340794 11.286947904050253 1.4683413316810905 -1.3681397850588244 0.3591049500955364
Ni 2.3247185411516105 6.500537516669495 11.756306212182537 -1.318332117508078 -0.05568855181155571 -1.168384095590304
Ni 1.2166548871951164 7.163575223088803 0.6644005102713224 -0.10818405060711046 0.5537816823792527 -0.24283478004618178
Ni 5.333971890728952 7.072251700591732 3.6962290419814288 -0.03551156264304852 -1.1999749830227078 -0.11543610418383345
Ni 6.3225897953029895 4.98535579243875 13.422762849730926 -0.1653170481746766 1.260009984728417 -0.3625862237759175
Ni 4.515994719998449 0.48524939348173934 0.866105616165545 0.6238002776602354 0.26231911402303854 2.204725845898661
Ni 4.104960546701168 7.838453382177745 10.637252590989412 -0.43615371275042303 -0.3374955993558768 -0.6102238245273813
P 8.193353674024905 5.542944362397914 6.164490726929213 0.23730202315341067 0.13397118687354348 0.20353752510845594
P 5.5573556215226665 8.990340532551963 2.922339819802206 -1.3496916056559658 0.8619669628067864 -0.21123309398050072
P 1.3969338416553323 5.79740812965441 3.6175918504069653 0.5326574988061278 -1.2282488902667361 -0.9089556728514991
P 0.24703054300078034 5.891975106890555 12.377464652155554 0.5051438667668914 1.052797324761219 -0.7999015609346094
P 4.646341057325013 0.6649331002824546 8.791619036443286 -0.9518406451404833 0.729121404897254 -1.5478143875067538
P 5.298441318359998 1.2963867447440176 12.480283088820228 0.03667987191953683 1.3756535769373663 0.11869112078602138
P 4.683391999102909 7.249895348076449 5.979271954043947 0.2769718309392068 -0.029503151665439507 0.09413091494815401
P 7.928956826629993 0.6561988083870884 12.450937194919645 -0.04985831828302381 -0.029251183555633494 -0.42197947813257003
