# total energy = -340853.3853142819 ev
CRYSTAL
PRIMVEC
9.41731901354840 0.00000000000000 0.00000000000000

0.00000000000000 9.41731901354840 0.00000000000000

0.00000000000000 0.00000000000000 13.78319829352133

PRIMCOORD
 96 1
Ni 8.60709062765148 1.5719389030285496 3.2287146668396476 1.6228178375968374 2.295346176590395 -0.22036333841654307
Ni 3.8851149918789125 5.656136020536647 7.435028986224345 0.06962830182109944 -0.8042109869432408 -0.2679529152700482
Ni 2.1067672889667075 4.157567450562827 4.27892467478861 0.05419268399231958 0.3573254895976104 -0.4364007957642226
Ni 0.8678370315867531 7.540955933116002 9.871071895551124 -2.295319694227834 0.45633070191893027 -0.24895323423909382
Ni 9.044675776633776 5.451648353747994 1.2617455963469284 1.063813987586697 0.6105130736330261 0.09922504164160975
Ni 5.364745333156408 3.1954376280920935 7.579863586949351 -0.505253395761562 0.7551198858435447 -2.2111448620511274
Ni 4.263502873041668 4.2468059662895135 0.4425518430720215 0.5567466785448476 1.073997355877602 0.6746186458636833
Ni 8.38164942588057 1.616642916763731 10.515160959339914 0.05338124383461774 -0.15065687505934056 0.23307435822530825
Ni 2.357013709228975 7.540070705121247 7.421397416837011 -0.07654431221464236 1.1845020841980891 1.061530590869159
Ni 7.436819218583953 9.19914806171871 3.314224865937356 -0.4687319037967605 -1.0448456740143102 -0.4120588765847484
Ni 7.079789817124461 4.53436380479884 0.8474202837928045 -0.6834460143473262 -2.0203826343304687 -0.4321885574550879
Ni 5.086218703657413 3.426312622979752 2.808905649377582 1.7536227109272575 -0.8202469573601808 -0.578075779039927
Ni 6.546129178753853 5.061648918143385 6.902212139644483 -0.5594162549572107 0.5911305553413561 -0.9710778961035404
Ni 7.981017837019795 4.2704528545324125 10.592002516212379 -0.028965019773782377 -0.6925767730040009 0.5827425883879771
Ni 4.850766891690484 7.97735449989256 6.965904293867183 -1.7425196590355605 -0.04458395725796193 0.17992451367520626
Ni 6.160508796527559 9.31127066284175 10.448091754490411 -0.5577535225428072 -0.32682346435401133 1.2816663866559281
Ni 7.110094749966216 9.108120255364325 0.8047748960113854 0.4808371717007267 1.4176108952057587 -0.37963289484555907
Ni 7.610418078747075 2.866650766592958 6.24384359491475 -3.98662760627627 1.740937659260421 1.6939916295281858
Ni 3.2602758700484293 5.353708235179237 12.309954126584485 2.736743911348577 -0.5502708410125168 -0.5991752800227035
Ni 5.499121059296562 3.5584658618139215 5.006016105600603 -0.9389105673423764 -0.3502693540817774 1.4378128240749304
Ni 4.515246647039746 1.2167270441540357 6.905865117720716 -0.8748417618869256 1.0438887094176796 -2.056991286692438
Ni 1.700796080180117 6.870056703600923 3.6293227124026894 1.6940811039181984 -4.160716229995989 -1.010678026993666
Ni 4.022626685277085 9.078691133198232 0.6667622012374578 -1.6171755517093955 -0.6671632180269026 -1.287292474593454
Ni 3.1285652452116377 3.1853610966624237 2.0882236459403867 -3.600145806829677 0.7823542960794655 -0.19233831395852682
P 9.267781483269586 8.514038097692069 11.765062393463387 -1.8333323082437587 -0.006734233400040016 -1.1667177636314743
P 8.249938801043779 0.7239818320474354 7.530960390630533 -0.120487807675128 -0.4955495382102369 1.6606061120892046
P 3.269730858417952 3.3737733997590698 8.300007861466327 0.5167426273480842 -0.017935244322182017 -0.1392586605247279
P 1.7219002922678655 5.1282576160892335 2.1358997655813665 -0.0733430316685253 -1.0038664033884712 1.9921789182027432
P 8.201194757417635 4.623413974143664 12.804040364929952 -0.08430004490066127 0.24760726173416067 -0.06776013826410911
P 6.485943092429534 1.7526101698306267 1.6136124234795557 1.284035401108737 0.4143422733022864 1.4237226645304513
P 0.8355582286630732 2.9450122787670563 1.6468574433421925 -0.25343518126984743 -1.0480037600273178 -0.14377300345531366
P 5.162668500055602 0.041149917509426974 12.535267252815729 0.1757647258705618 1.2991439746154014 -0.6647744060797519
Ni 3.3105266847294765 8.020937852655656 11.840084524287054 1.2207068162534205 1.6288509311647947 1.244390018802973
Ni 4.575093709876712 1.8235037479638576 0.502429041330086 0.25783948098513015 1.437430243924531 -0.2163840420538209
Ni 0.7137000030615346 5.203247728027984 10.03737986727233 0.1230383420111236 -0.7049193537297537 -0.17912387215078185
Ni 2.533955717670165 1.102080601514031 2.502739188340192 -0.3609643719017783 -2.125742071004591 -1.065188242226404
Ni 7.054928094718546 1.9538111922557702 13.344658518646577 -0.020664213217570865 0.4134750402059847 -0.5210304560901606
Ni 1.1377439889197891 0.8572707995642391 11.762498999206233 1.754840128274126 0.014679713499361815 -1.5725491712492723
Ni 3.0775516276840458 2.916920415912191 12.7303140572135 -0.9102211698274839 -0.4692312120306822 -0.08774840846057791
Ni 2.8777914550801538 6.424212565773938 9.63948683480384 0.9332654532414572 -0.8079588840214471 -0.25229618256939773
Ni 0.5095909125004264 2.67542268508746 13.010609259238189 -1.1434323107409727 -0.27482933067490734 1.1329468378286165
Ni 0.02506231130259932 7.259340422954454 5.287661751183251 -0.3056928530229832 2.150725994643438 -2.3297596210732587
Ni 0.9954671320604831 8.778109142383078 3.8101305303316173 -1.2016942797066594 3.8586180363027998 -1.7444292173534475
Ni 9.194119213322969 7.955478067639174 7.3906752967594285 1.2106538028927925 0.32162135132778163 0.3479563896778846
Ni 9.238663132633567 2.7842398072088046 8.382238008323892 -0.5859541533467392 0.7211666688265516 0.4564548862016204
Ni 1.3622999626959438 8.19035542314142 13.258858266120798 0.44316793928472714 0.036267981193098826 0.9595927782820763
Ni 2.9120987485364984 9.292925725248294 5.805979693287298 -0.13738046966540857 0.2012839531875888 0.24115867789533954
Ni 4.421732668444769 6.315913396202715 3.2222082410781905 -2.563052780177592 0.14061311767009332 2.350285251830436
Ni 6.179531781095721 7.661459948231946 12.786356523136833 -1.6950192994617517 -0.09797419995364416 -0.5756591991786343
Ni 7.49786228094575 6.634670812867647 10.610678001706003 -0.5208427655593869 1.2428075048072016 1.7944777972704062
Ni 4.87676810970667 6.684714446528645 10.98766270232388 1.6903445196939018 -0.44143681552623326 -1.0387673290307142
Ni 7.4005625400753265 3.7783602626389676 3.2353849539533255 -0.4590946378173126 -1.4008979533264518 -1.0282157787671131
Ni 7.0025018793269815 7.463818672424013 6.700770975582464 1.8991510065107806 -0.32387672302086157 -1.7840918260503917
Ni 8.904329470188566 5.554344218458792 6.3182460661420885 -2.033231979489311 -3.3419731108748447 0.3860267141870448
Ni 2.8816619732274384 3.644653166154428 10.496856516218559 -0.28397268773707224 0.5982674234964535 -1.4680615956571426
Ni 4.907364979440313 0.39536730748770427 2.4873023188827013 1.2119498959963966 1.9247057150514337 2.3654041097497456
P 0.7502213082366784 9.282039304376614 5.834386094599875 0.7131707951052686 -0.7096758945781327 0.7054770260054367
P 7.234158511699371 3.725604441079143 8.608943956049012 -0.6564342616451727 -0.5651238468649493 -0.5436955017878443
P 4.138977662672949 5.387346898979968 5.320534786941708 -0.021029566976789586 -0.34055186968369733 -0.599440360758632
P 3.7625768358388485 1.7817002685093661 4.45314507801188 0.9335804133787149 0.07358625802758295 -0.08757357344561048
P 3.7155655789258453 9.365618011328317 8.336505623343738 0.08212823406032307 -0.31953078734734003 -0.8975415174772864
P 0.8792743656253834 5.8841952370154536 7.952230034283946 0.19709588324817023 1.8103741567856886 1.2196454648684414
P 2.553101127386538 0.9484558751474798 13.531585710522233 -1.16948812728776 0.20386611209246824 -0.35928209910334896
P 5.570080558663445 5.3411832007853475 1.948240848012172 0.6659386015911821 0.5221072340941073 -1.135529253843812
Ni 6.139508174949835 0.3356247768926718 8.159598458983194 1.0343216345545347 -0.9635026548594439 1.0350243170485143
Ni 5.3797094531954235 2.1257808562157767 9.437741491335114 1.0757421064828507 0.0756829926556116 2.1926696860650754
Ni 2.4820380375096303 9.04062632942372 9.914255012252761 1.1925288111573074 0.02549325917509803 0.4075553322874401
Ni 6.7682554842039755 0.5237178328720603 5.920889820861911 0.03912139148149391 -0.1155122088374075 -1.0616596602478556
Ni 5.716905980644742 5.29852274529338 12.808767859114713 1.1597858123983316 0.011156016616819496 -1.1798239619961295
Ni 6.530986129652069 5.644628056604819 4.281846868903214 -0.718902041162091 1.3421374474577918 0.7939008632664843
Ni 9.014841709746676 0.5747823039227553 13.464144521568551 -0.40591111181579775 -0.9942576766541135 0.3861807232664059
Ni 1.8027950632780214 5.875898578894389 0.23307676409163666 2.0096469930805196 3.399791050324577 2.469991444144533
Ni 0.9747678646937401 4.757055149394551 12.572206686958609 -1.7385771294480445 -0.7814227854041317 -3.2721393779111585
Ni 5.287645741740792 4.881344926785942 9.266788897837166 0.1136828689381526 0.4000181433701304 1.3637599108235738
Ni 1.7778674196384543 5.844218717465033 5.899305325500412 1.8873691833845043 1.2581500487015427 -1.7243391314717917
Ni 9.414201960529876 1.8142559406143846 6.117397251451028 1.269741610193884 -0.7330009424573182 -0.7056240931062622
Ni 0.8279085403637076 0.786158739628047 8.945626297875846 -0.9692884083032857 -0.6022616322575112 0.3727094282528484
Ni 8.209152392051347 7.312651866340773 13.35372739693328 2.387674491112172 -0.8333783525358163 0.565513111883568
Ni 3.578788436416939 8.412971429184386 3.838413564764074 0.4279215546486178 0.20197146617291667 -0.7615029065517531
Ni 8.253818736510155 8.671505090248624 9.290840730801072 -1.2504110281860725 0.8065884860364817 1.5045864300560539
Ni 5.913878626797061 7.756904477241019 2.0714909533756782 0.6849097433770461 -1.7055729066078817 1.4477149136799905
Ni 4.307123895081137 6.9764441573962355 0.6700733306306093 -0.6796533800741134 -3.5295970500768377 -0.8437699801827856
Ni 1.9781643794306554 1.733766114325234 7.174761596715057 1.9583781676032141 0.023971937434565167 0.3905461993239532
Ni 8.047174503649172 5.784258646798948 8.593934632878351 1.716665674086934 -0.2174057984501159 -0.47449014643677634
Ni 1.6386323568462355 1.7271080697263772 4.503825322443574 -0.34661967314433206 0.5863632158596999 0.11997204438097403
Ni 8.824950887552406 5.464484159671957 3.7361838573483874 1.8811226882541603 0.8761892770537555 0.10978867609006897
Ni 1.5825239696892497 4.108343123662933 7.167097782437052 0.035405633192803536 -2.578422063544811 0.1937025412959051
Ni 3.850044895576023 1.3445671508435428 10.871263696600641 -0.14163590250765284 -0.7415328911877292 1.4277294716969993
P 8.873233482542984 3.488306834569957 4.751220178484435 1.607709006979857 0.5523536916834746 -1.106327178358559
P 1.8192094504573812 6.598856748356399 11.58862421159368 -1.6686917173108164 -0.005341209707255317 -0.3090607410539516
P 0.6867617617955798 3.0884380485557266 10.675734725465299 -0.4338659451575108 -1.2309043256117123 0.1301250736545759
P 6.269448343797115 8.128257621041191 4.686755804096098 -1.3421143075293402 -0.6716243391220498 0.08768490221249414
P 4.8692530890703365 3.6483635898771287 11.481583195853304 -0.10554378477078598 0.17127789374380178 -0.10112662953969681
P 1.963106086200709 8.19002581697316 1.7006397526831707 0.6759453350949068 0.19099619810833557 0.7057112535034298
P 8.37297607499578 7.598184981245073 2.0722490475626767 -0.5925495471760698 -0.3747282584550901 -0.5758255495531696
P 6.413542743241399 7.127865231094991 8.662450337940562 -1.7944700839609224 0.7142840827741053 1.8588883023359921
