# total energy = -381171.3044168228 ev
CRYSTAL
PRIMVEC
9.16386720792298 0.00000000000000 0.00000000000000
0.00000000000000 9.16386720792298 0.00000000000000
0.00000000000000 0.00000000000000 13.41224595668388
PRIMCOORD
 96 1
Ni 0.3492743768870298 2.4712291840464657 3.5958629317103443 1.1698627370183594 -0.4558596758197826 0.06980467949796365
Ni 7.9455492303060264 3.935111121687157 2.975010024493526 -0.7101708319366802 2.139490273828619 -1.0027371748800342
Ni 3.3516935276473143 5.8402424203678605 2.579108059418426 -0.8541644360432322 2.2964800330845225 -0.44961138091722563
Ni 4.433002344798328 1.487799630571563 4.281014111896305 0.20595384785943238 -0.47341208288124914 0.9412515567707274
Ni 4.908964434122687 4.380135995940779 2.891934987993594 1.7526176667015108 -1.481878704045893 1.5919018647442713
Ni 1.473623128286483 7.838625229877897 3.327162772012582 0.9994829296087946 -0.3153584011372053 0.7206745596814814
Ni 4.480315390239743 2.297665542624733 12.973115180604662 0.9681866905986743 0.4564500011056139 -0.1823542061626214
Ni 7.424253490817289 7.547901548562983 1.4980805729850288 1.2392478124804012 0.8776710038056046 -2.072389623525379
Ni 3.7103764468071896 4.250705538103368 0.9503773178951824 -0.5274666986338077 -0.9602736063991849 -0.9067506947803803
Ni 5.718967804181207 8.798512808969882 0.07643398206813029 -0.30136825750570034 0.4588056458219841 0.9804649937453953
Ni 5.146290262292699 2.3676133396137558 6.9392943168494305 -0.5633402726019654 0.3106676805297553 1.2889590636625996
Ni 0.9549024354312993 -0.21640563614246877 6.780829062735324 0.9133113787170334 1.5228556606788872 -1.873154068226387
Ni 0.5018921674535537 2.2030944349440427 8.1943720460435 -0.6691578798594282 1.079346021784025 -0.4353769824853986
Ni 5.758775642530521 4.376901150881546 8.576446652167109 1.0442892872902079 0.015649276501482724 0.4708396941683826
Ni 6.933198512505517 6.416603836799744 7.554916488769336 -0.21795447186473432 1.4266868893650977 0.5787987732488806
Ni 4.644605198233873 6.522034126903072 11.91568006982281 -0.926558730645243 2.5223576164510755 0.29677112505332115
Ni 6.9456522077902125 8.508164846202925 10.250898675429815 -0.5894318274826946 3.2921926970176076 -0.3766802399751384
Ni 0.7652864481448121 2.8590806919415774 11.936603927397163 -0.6662432773157945 0.36352699042263203 0.7995773448259712
Ni 4.292373641458417 6.256941781652391 5.064678695356392 -0.5906417886303956 -0.4665909461943577 -0.8600998276910606
Ni 6.337483008920375 8.595120780387235 3.662428345381058 -0.04973927620665627 2.1572319140827556 -0.8499876789577232
Ni 3.530159837926525 0.5085689609667465 0.7563260189694071 2.0226776010122327 0.03263938330157604 0.07761543379163408
Ni 2.970174251865319 8.749586922932362 5.071666143961676 -1.1271199467341944 -0.8202227889904649 0.48008332425383776
Ni 8.156006600363655 3.4900862474335343 10.131570464598918 0.18653687678540135 1.1143922147548806 0.09282170921842724
Ni 8.2883969872496 6.5517158921916145 3.3571652726469408 0.08477929852992495 -0.896728791768004 -0.5428987169181617
P 2.570033998291932 2.4570251901603157 0.8962747633761873 0.04096718644098106 0.172036112066065 0.6800441877546288
Ni 8.456471472324361 4.1360747255086245 5.175410282532711 -1.1592759626414486 0.5074673726937454 0.11740479787443005
P 2.139863752483116 5.81784592936286 10.836262674825411 -1.03108898654985 -0.9384374843607001 1.0758462361608825
Ni 8.483733976718746 5.5211840622168324 9.104848970532432 -0.5742859729801916 -1.8519980029740621 -0.12220144793212503
P 2.4349860899692244 6.577732110670828 6.286373373371197 0.7163656478934823 0.8115183192379315 -0.38644683244359895
P 7.616300652025063 3.449811051866031 7.717928853700415 0.6440207184721682 0.45047372891752097 -0.16369339652832451
P 1.37204166233295 1.0734095637769088 4.840988701317084 -0.1300803364595695 -0.06597913510428637 0.5877773225984071
Ni 3.071911503558248 3.999725548068605 11.97924156788328 -1.9651285989531706 0.2202106148887627 -0.013717606696408634
Ni 2.1176597026856046 7.638000689136291 12.29473701453564 1.7347199604854835 -0.5494925680855955 -1.305533680191829
Ni 4.22326892023554 6.162013283157792 7.5596248836459194 1.001334638105553 -0.25559773613880493 -0.24753012863932206
Ni 7.638779617833274 2.704293814050633 12.480013910786582 -1.1849376290736109 0.9322928049155428 -0.8303305668484281
Ni 2.5502125539204843 1.0136794785188912 3.0208669314649357 -1.104427133122369 -0.13746660162131163 -1.2075823630563203
Ni 6.726809899406242 6.878591028913537 5.144843287689716 0.881910495808249 0.10374067012377618 1.4548808353008107
Ni 3.976944174648625 8.151772893798881 3.0928234481054706 0.424968642667881 0.6861477295492053 -0.5369178167443786
Ni 9.447397069024342 -0.05483016556064694 1.9056518063276284 -1.0274359631782952 1.0331636096906915 -0.45417560324914036
Ni 2.7565003644825024 3.861103731606802 7.685525419905945 0.9383302693588743 -0.40672975106235115 0.004049230368709156
Ni 0.18508995336366796 5.026747616973455 7.064860371963106 -0.255617790743463 -0.24196420451577036 0.008930469720410427
Ni 2.8718826141731593 1.5830855198800728 6.419020348533794 -0.07931236187808277 0.2918135239377297 0.8014313673155745
Ni 3.869030476581976 3.7445026876020435 5.303764902381585 -0.20206428299703907 0.12631675565207923 0.434787942751148
Ni 8.679290898996454 1.8335431694945066 5.948009496562135 -0.2223222619151268 -0.04582991384992107 0.22833041578241967
Ni 1.2974844402311962 5.490714204364284 3.5472440352181054 -1.011937867542696 -1.3518760149017943 -0.12477049421088189
Ni 4.14240695762174 0.6968424417343169 9.539714781803998 -0.4182665480573571 -1.302354768243215 0.22465810913715503
Ni 6.645645529180673 1.9764994950583412 9.180695548724367 -1.8868323370444278 1.587616092884724 0.8822449963295323
Ni 1.4893574879655278 0.8939792146868449 -0.13895354844804733 -1.1835019250683487 -0.24824283843563053 -0.14677913727148914
Ni 9.28492170670083 7.3312127489294925 8.032674696030268 -1.6946927693602682 0.8812489509648501 -2.0010772491336377
Ni 8.441955906959418 1.3217045407738384 10.574857869664918 1.2907146129011255 -1.1793022851647044 1.780589212213772
Ni 3.2405358206544097 7.414035779086284 10.019899581052705 0.3885492234985824 1.286213125486346 -0.6497967017239971
Ni 7.151738413277717 7.445422023641164 12.27573207071597 -2.101305792339097 -1.381505664842769 0.009011202359674803
Ni -0.0035482493114305635 7.3994652305192 12.892789304211727 1.0898821454286585 -0.6651711272975384 1.8870683643146338
Ni 1.8901025567624545 6.032225434506472 8.28888817052205 0.7390324933633788 -0.36706997057888396 1.369219134165932
Ni 7.258149237152541 1.779494681790949 3.6197769590944073 0.6991665104063765 -1.6062704747611174 -2.3400095809360413
Ni 4.642974029903722 2.074058023388635 2.0406465642216003 0.3938793774622442 0.4489084413129301 0.20087694755715726
P 7.9749469157168456 8.805541494976772 6.526787424728069 -0.7316320871342497 -1.2226282016458492 -0.047008764649370656
Ni 1.4481017586265288 3.5060680315222097 5.838484790672787 0.26355324354045584 -0.5520397599874814 -1.5248109846330449
P 0.6878820125589119 -0.13123390686760025 11.513339571777124 -0.6390759728723832 0.7340013586973746 -1.018548430880678
Ni 5.948486017647348 4.714937877637875 6.3247324043441235 0.19055011170985245 0.6367298412377099 -0.8341823364943504
P 4.052839321335784 7.171587349250235 0.5489926111800278 1.4031564103433254 -0.014345984309026906 -0.316259572795236
P 0.869676639340993 6.453332615829222 1.5436424034382872 -2.073217004522681 -0.40448492089223237 1.399446565591906
P 6.571729777770551 5.132480314688552 4.0283947060510705 -0.2245616927686068 -0.6003911547076758 0.8871007817599368
Ni 9.08899822974219 7.325476168172893 10.172652080464474 0.6706617180984644 1.9386976584551516 2.8138808628418954
Ni 6.258829538259196 3.50882635549623 0.9306493449673733 -0.7853066938395701 -0.26794545907088047 -0.005376948041197191
Ni 8.385598124765984 4.941001313236224 0.7092961370190125 -1.0774961130594798 1.4064443370659776 -1.04044651650535
Ni 5.797850371517969 6.722768634048956 2.684138804919537 -1.6628069763952655 -2.411578294312963 0.6130162996708539
Ni 6.099057516707565 2.8952229834815624 5.012222887741488 -0.011737343041586235 3.217051435798079 -1.1118180262698012
Ni 5.050784440175629 8.349098442412089 5.874201878782889 -0.4409912433483824 -0.40690072942257666 0.774807336970143
Ni 5.719710077410096 0.282505525368398 7.991539013349274 0.8128938594292193 -1.219344388688255 -1.713806350261268
Ni 1.0031593591761168 3.8389088456763147 1.5312354438754103 1.187678939264174 -0.4684241427483546 0.5812541767679086
Ni 2.287429503159682 8.020454679354666 1.1812536164541803 -1.3686581194561398 -1.3947864411120754 0.5874117117288722
Ni 2.794466265560129 1.7277463247102456 11.31599202988306 -1.0915217379146105 -0.16042526730001402 -0.95188203990138
Ni 8.17187841804805 2.4987391128504806 1.3328743782885664 1.5391507982944848 -2.1842161559810833 -0.5495709867320148
Ni 2.549030415074476 3.553692648442418 3.4025529896267557 0.8608030244056724 -0.7762808361918759 -0.4243034982800564
Ni 1.8320861146377982 5.490530927023817 13.373846503601055 -0.01421922892317551 -0.09536838689968091 -0.9519352617368186
Ni 5.101332330676279 4.489882467412092 11.487454396596345 3.007175884286737 -2.137551404934693 0.16779173496741426
Ni 6.501259640361199 6.429323284228116 10.220211633928814 -0.5415023507912675 -3.1128443675608457 -0.394738640138746
Ni 5.604877659740839 5.61293269885434 0.5914488070990821 0.719943852163044 1.3399008448177894 -0.5365282946154437
Ni 8.102810352293268 0.5207514057875519 8.521873074883114 1.2843825000355105 -2.3775628565994666 -2.1111973404211963
Ni 8.657856614028903 -0.42443549782562057 4.299362006450402 -0.05229880940371638 1.418463730124357 0.7491940072774129
Ni 3.2343685381477134 8.534547619363071 7.692553189526132 1.1540031442782834 -1.0041546240528512 -1.2715256986775005
Ni -0.0020774486541872647 5.3299983045092505 11.462185949666233 0.196585519270655 -0.7368578543095632 0.5616117199466327
Ni 0.6186343350104714 6.870398531794686 5.2462533893299135 -0.5295978860441977 -0.5968173213134883 2.0256670226578595
Ni 1.6690609202928868 3.701322546188147 9.916799662333409 -0.5212451432041282 0.6357505080435761 -0.13421904121829142
Ni 3.9207971613967265 -0.1825918832131102 11.826180246152827 1.619389528641579 0.024556606293441578 0.4308729239674579
Ni 8.155090213661323 0.3934103096314591 13.11504332028848 -0.0037440404234645197 0.44207702021339346 -0.4829346776597037
Ni 3.8173829220385294 5.030761390729669 9.643847468336824 -0.9391766765195696 1.6564656075582698 0.0413137711471224
P 5.1555549318532785 7.628021237947893 8.933601954694195 0.14898977176956277 -0.3482800915658905 -0.03327290312051689
Ni 4.404832617568633 2.9246848159615446 9.899753036896623 -0.2787523198783973 -0.78738208831136 -0.28298152746839655
P 6.992983580965674 5.1460520017500935 12.181577918984841 0.8459286783970013 0.03355675290952285 0.48656687509565233
Ni 1.621821185787658 9.242218086372148 9.040390329890378 -1.8462323041348785 -0.5561054454164229 2.2283828231959686
P 5.480698097707792 1.4432540729711911 11.261484432441632 0.7287123423842934 -0.19808781484779434 -0.5409819595114231
P 7.315203473239748 0.5444308381758178 1.712904525679272 -1.042108220478489 -0.28373768890813067 0.5596635950813265
P 2.4789176684790335 1.9620480767625612 8.79697144653656 1.828588622911186 0.8397590592511794 0.09992875257685371
Ni 6.4470278753171755 0.8547761915610703 5.583262846592928 0.8688179242903488 -1.1449109521690282 1.2163079158547763
