# total energy = -381165.5452496068 ev
CRYSTAL
PRIMVEC
9.29546307223608 0.00000000000000 0.00000000000000

0.00000000000000 9.29546307223608 0.00000000000000

0.00000000000000 0.00000000000000 13.60484980602864

PRIMCOORD
 96 1
Ni 7.1034346576775205 5.222748735267197 10.445817234455108 0.602421297763827 -0.5585464507577477 -1.342837815958926
Ni 7.332586406906522 5.412078721811748 4.222129345460888 0.07358111582126038 0.9002054374626949 0.31779554982378816
Ni 4.283999945934205 5.42991671494701 9.166022562299732 -0.48208852760932464 -0.7361472013957838 -0.9168641290652983
Ni 2.002410007926866 2.7847905218448696 3.9907104328521616 -1.092010504625571 -1.2616701460396595 -0.6330796460796322
Ni 9.183926553220955 1.451821154676329 8.786637543111329 1.1022812904239596 1.8517342077897143 -0.7530069532656
Ni 3.402845844181245 4.6503341353352665 3.9400864128344733 0.4872567020738254 -0.3357567622878992 2.301543563650359
Ni 2.715901846948872 0.4849368585055021 9.618206857588927 0.8321822753451862 0.5463100565925559 0.7647178139446249
Ni 2.013406540432866 8.729685172011575 2.853903217394624 0.5690692046659426 2.1560479210769836 1.8055209424584453
Ni 6.836785011466944 5.789186352611335 1.6935320037099433 0.5205712570655551 1.5258713075767594 -1.2750974751891588
Ni 3.1907140873600923 3.8794428134522727 1.8637830528339001 -1.4168526768834953 1.2057653644522395 -1.9618836096533117
Ni 5.6331898957088065 4.47961366533933 2.9825914636495385 -1.9300371545666761 -1.2937600845956685 0.4190404501089041
Ni 1.3489668586671248 0.8321567877272839 6.456603371115597 -0.4161533583690961 -1.4637922788578273 -0.5522912138766553
Ni 6.400000509417554 5.112114136884769 8.114055035922718 -0.1298581931464344 -0.6530969697418236 -0.3852744094020526
Ni 5.327666624020552 1.8193172769288275 12.000851490005166 -2.093551088094343 1.2824477449066427 2.830674794470783
Ni 6.247471260143715 2.9420511616897604 4.683850785594678 0.060645638706514904 -0.9438938794895809 -1.6959837202575503
Ni 9.188248943428299 0.8660712837950274 2.4243701058844818 -1.7693691751282365 1.5297004515148624 -1.3444756086726652
Ni 4.126228055634682 6.462122087386782 2.8398903072062938 0.719767988706812 1.3464808120281522 -1.209625618738594
Ni 8.760527517620117 2.5052573641775586 4.015675257324997 -0.3874382498225908 -0.10724996882861529 1.544737805463959
Ni 6.663387448181296 1.9534601007615275 2.3533127995145624 -0.2912525092279371 0.03667318705131748 0.30084606645364315
Ni 6.306311539740484 7.472455235831104 3.299693163815791 0.7581704997444103 0.600193951095205 0.6246929646778338
Ni 0.07115769736828376 9.160371850456622 4.36410917398996 1.8514519006626047 0.4453384645734846 -0.5074791997682873
Ni 2.268474039980319 0.7708894627904319 12.456355195064347 -0.9029140946431095 -0.9132391307182014 1.333583901460826
Ni 1.8998624621904412 6.456089332022121 3.6819077218840124 -0.8264029496592477 -0.7017502119731527 3.3476927869674413
Ni 2.1157681769130607 4.753764750038783 8.822187111087615 -0.6281156172061376 -0.7746636123034272 -0.5754437407337186
P 9.040953039717333 4.742898354012144 11.874748311958129 -0.5711119461275841 -0.2156566769694931 1.0957344904443775
Ni 0.11027114578649702 6.239932639803591 10.009019718757783 0.2846316614773098 0.6124195466271195 -0.5924873264795666
P 1.2540137060476924 8.916886497572294 8.38359371197511 1.6605163805888759 0.31447856963541326 -1.409721979375985
Ni 5.277006351697899 0.8535131135366961 10.045943156137607 -0.6960624175597561 0.8306198159540727 -0.7939864810017552
P 3.0119995193462685 6.886878260558097 12.327082264198589 -0.5278474790119941 -0.721735396845828 0.303261103653039
P 6.974646020424243 6.940680399311035 9.048218373450798 -0.2004372889165774 0.9147781930705472 -0.534255439420867
P 8.661846884413276 7.187502823344691 4.703346159749229 -0.2193320689385513 -1.7411001529802146 1.3742623530167943
Ni 2.4722863575851823 4.941951394657522 11.045844936214868 0.09809735579506977 0.7419686931735674 1.1353875860596254
Ni 0.6473815779603644 2.9132724088253688 6.174152367671758 -0.7763361149098437 1.6034605161161484 -0.6187094934008893
Ni 3.9037225623159 8.767536296579987 11.662906573576695 -0.26366328675575884 0.051392752649679234 -0.7158987355593928
Ni 4.996534352286627 4.540722037862104 6.1650372368388044 0.2291958491065085 1.057791692652017 -0.23000214705788774
Ni 7.501159624993004 7.969065336535284 10.946760879922007 0.5960709300657671 0.10579086778458556 0.4746354137653889
Ni 4.5156335837338775 1.2042457981549421 0.9735891134967593 0.9568982621690487 1.3737705009820405 -1.7973592325832595
Ni 0.49401294839464693 6.692184791971311 12.321694613953046 0.7337028536203493 1.2630911947569021 0.45239768541311115
Ni 1.897798869446289 6.910256349529009 1.6747839847654369 -0.41298447372281133 -1.37307784579039 -4.906605084159569
Ni 5.305887354653217 8.719822685968577 8.46750850250589 -0.1299417539991762 -1.9930039852072 -0.8517172600543204
Ni 3.170812501480679 8.046496541755046 5.097505387530223 0.9937920498716045 0.8385794371207816 -0.8259301237878871
Ni 3.962135250623342 5.544278793916846 0.21716896811870212 -0.4772304281860749 0.16249911910990725 -0.28596246447359136
Ni 4.49117722107683 9.06883013268901 3.054656398188224 0.041099341143471156 0.2742644593103728 -0.014357040052620436
Ni 7.359431703506123 6.074557060924264 12.494163560503825 -0.5614299429531298 0.9083653475656679 1.5614250363116529
Ni 0.47545083870637034 5.380511330103908 6.776439796440992 -0.786144359249517 -0.3901595054084958 1.4762546729908963
Ni 1.953673896406192 2.570353490246466 8.017351547655881 1.4767010164996954 -0.2725397633097822 1.2487017588044496
Ni 0.12557426621306306 2.2592436454085028 12.18156458252346 -0.6781194599280902 1.633878466286373 -0.5192399398486413
Ni 3.4351382819883822 0.2827252195967783 7.327843861780098 0.4877344130411923 0.02050609037315178 -0.625881071448664
Ni 5.324859394251481 6.678223006828444 10.691425671045584 -0.48016251423120526 1.303633892065955 0.9352187203130862
Ni 1.66058795395972 4.864668916842743 13.50545228252517 0.6881197656739116 -0.983643134363061 -0.736047699703442
Ni 5.4313575116827915 3.683197002575967 0.7387689910453071 -0.7459317915863733 -1.2650138657009118 1.016098940898921
Ni 2.868031391321817 5.657107121522786 6.134100077509584 -1.00004111610511 -1.0371135954773751 -1.176505696256174
Ni 2.000030369447123 2.382501482288941 10.889171769619663 0.28509446004634126 0.5188151936063968 -0.681516144314465
Ni 7.480291310981196 4.0950882552161705 6.1538947655666645 1.1120273140671302 0.07673148852478398 1.1953166583150898
Ni 7.901096912457623 3.8991956719267016 2.378889265440394 0.7980899616471675 0.027069088302650157 0.5302046663902611
Ni 2.023715208690815 6.77301813658008 7.941014418409032 0.3092661721965384 1.5711690030722942 1.9003218868904308
P 5.484174331377712 6.93871905665781 0.5892217262413957 0.3429774484060545 2.1438032993816756 -0.2159407838688152
Ni 8.832307081450491 7.785730923504146 8.060669333903734 -0.7393675081052944 -1.1607273503759947 -0.14842232930186697
P 1.0189407470077676 4.2860170613643005 2.7665323737905285 0.5989346247668071 -0.20454848287147354 -3.5272146658875894
Ni 8.923086571267563 7.33922336735393 2.6172732683337734 -0.39670399139523294 0.4341906754867812 -0.4617922392541337
P 3.1269007351591718 0.881974891119216 4.43195675705107 -0.00645809692051791 0.15685323367803955 0.2403096996314829
P 3.356089666239419 2.5308291823719844 12.69215412974985 0.26266467028791535 1.2946136908452157 0.4886648952752615
P 7.215751734828828 0.7748437526704424 4.144309589895605 0.2555352583319857 0.5550924307708762 -0.13373721648586645
Ni 5.570454817194019 4.282707876603408 12.15379717601296 -2.08229634111613 2.0249219169617194 0.07487103827727751
Ni 0.37017600418105245 9.117315266713772 10.298694226352437 -0.10239881138390107 -0.8834750120818913 1.619164042894334
Ni 8.068275811122382 8.96077967296818 6.048920174490157 -1.3013116716906816 -2.07587758207398 1.2847823065770907
Ni 9.172251451929714 5.547253342016525 1.0892841618337643 -0.10107006527014852 -0.02029114614886828 0.38498927406146594
Ni 5.5308654410798574 2.234750100900211 6.725067491666978 1.530023896292552 -2.317883438460963 -1.1302600350250727
Ni 5.566197495226354 0.03795151556677626 5.320856767964851 -0.2645163787846735 -0.3073987799704964 0.32719961674650744
Ni 7.358213997877817 0.21316169410066615 8.972057857997367 -0.2284941950537936 -0.41838147636866657 0.28359704956520837
Ni 0.3532536141327239 4.802621702576007 4.557080193317776 -0.6151829683048695 0.49459437338581913 1.4446997810027504
Ni 0.14780250643419368 2.9692217994877637 0.8234822618315956 0.704556056853064 -0.22612698037319764 0.7102430799355123
Ni 3.2072228293133094 2.906328698105181 5.913333765282832 0.6451255215005729 -0.6798205017795969 0.737584962283575
Ni 6.556889330749985 9.12120077016898 1.442059989177977 -0.9807673554771624 -0.5751730035708352 1.2025442864117806
Ni 4.262741222484315 2.2803071641393533 2.8907857547380784 0.7477467333079251 -0.459151459197177 2.387869637842113
Ni 7.150757858850848 3.1069619674285125 11.3548112473285 2.5926065825753093 -2.02715132051287 -1.0134987842719128
Ni 3.5600785976377014 8.531189859134887 0.8917090997754147 0.11465628859501545 -1.7885873999279003 -1.0211017934301512
Ni 2.061919560846064 1.7286307417398714 1.6333578251997234 0.32079448455111204 -0.8169847416691414 -0.4366069982377577
Ni 6.882890507011965 2.7128064578326434 8.844907081291474 -0.11978795339462595 0.34715909058756983 0.07466637846563914
Ni 7.889486879406065 1.6365405916663796 6.6684441799507495 -0.35409721246829984 2.343425291485809 0.5186293028478358
Ni 4.134064130784774 3.2139899262400786 10.466877035000834 0.6616566863863765 0.0863993506318512 -1.5232282135269575
Ni 0.3449648499437128 3.804502792265991 10.136075681742998 -0.8363780585940886 -0.8255850817436426 -1.7354560673205597
Ni 8.06448326229529 7.954183300574078 0.28466239404669413 0.33426809355751463 -1.5959364398249611 0.18395086122577997
Ni 7.54543391436416 4.0366941578343525 13.6562758143731 0.6810296915963497 -0.1900009240746018 -0.9517223743950641
Ni 5.729816231634309 8.85143714391655 12.803278599022441 1.6376523315065084 -1.1658474452113794 1.2848990346606128
Ni 1.1755135226046076 7.5898569311403 6.049953829954797 -1.8111863682743388 0.5380077073744476 -0.836230991493263
Ni 2.6417333491759445 7.435199020882628 10.283211703493606 -0.7330631631538214 -0.9876993067103054 -0.9059387404020464
Ni 7.217173940638987 1.588092639492862 13.53630857132793 0.5075823010050549 0.2339670452429067 0.10585411692235318
P 4.454199870012699 3.058551197106241 8.081648263923 -2.5492053327715385 2.1831324359986013 2.8048868868734016
Ni 7.069152990828724 6.784172691953875 6.444766528771438 -0.3154183078408632 -0.3100207909743758 -0.39282136851137506
P 7.01252503138109 0.7630292194370308 11.402346385053928 2.1108476703912613 -0.47212498863870944 -0.5400280802385862
Ni 9.253196342092224 0.20040924866957469 12.797823091898374 -0.2617017921540138 -1.0374146716575616 -0.36063629913839823
P 4.979765337374688 6.683372693226012 4.882372125767238 -0.004549309933579262 -0.4519670256335958 0.8072037510229777
P 8.780140944152375 3.6100324147866814 7.964632330320481 0.1890501301255583 -0.10543091334200554 0.04957601115591462
P 0.7551252874084157 8.894595977750328 1.112109170767393 0.9227522124149592 -1.3833085223794628 -1.6025472602732596
Ni 4.286472539042063 7.1888599609151695 7.031856805390158 1.2078775256992358 -0.24447771496624351 0.10045737138681408
