# total energy = -340882.3723734641 ev
CRYSTAL
PRIMVEC
9.17342259698007 0.00000000000000 0.00000000000000

0.00000000000000 9.17342259698007 0.00000000000000

0.00000000000000 0.00000000000000 13.42623123444758

PRIMCOORD
 96 1
Ni 6.74642836495438 2.545459587785508 11.737654455510087 -1.6103911817977103 0.2333921465760432 0.5479830734196046
Ni 4.561098992812711 0.4239396243502666 6.364261754078498 0.6158059466008491 0.24428025424345673 -0.731398888077521
Ni 3.1107900885619815 2.0963471750927822 5.156317421032997 -0.6233647327847135 -0.1416166192339432 -0.8816377017628365
Ni 3.7635066108938884 4.808001656067434 5.340390397091067 -0.19939059281961788 -0.43711016312642137 -0.8966143776773269
Ni 3.8210514894596277 3.028532010114829 3.0152764147812583 -0.9308722704189323 1.111867391450498 -0.418976172529872
Ni 5.160444543760038 4.997231012843151 3.147148948149947 -0.14957675462128434 0.07061637676598162 -1.0027634001322794
Ni 5.5735421002039045 3.478864487983586 0.612287415235633 0.11958329358298761 -0.6767670596652539 -0.2684861620656989
Ni 5.6078873935803 8.492690221905235 13.005667275617013 0.831318127572678 0.4206761859401142 -0.20736949726003642
Ni 2.9272574270818685 5.633132651959531 11.22537660836174 0.4241656871506114 0.023174381233934283 0.6718814494381784
Ni 1.6270991002843547 7.566458938005325 11.467920978645543 -1.451256865394978 0.24284686423103985 2.5761096133615506
Ni 0.5177415375155959 0.4010161591744454 4.976755016757293 0.7220490714315048 0.23469698143039577 0.6611311529002097
Ni 8.784634389026971 2.520315237052415 1.6888316461648174 -0.533071960635727 1.0657299736624872 -0.06313292390474289
Ni 1.3791965339906291 1.3297701342278037 2.8725957551689607 0.877263998175173 0.6869128898500041 -0.6514172680465555
Ni 1.9069802169814227 6.616174940635086 0.6598589489939961 1.0971043742087105 0.9669602743907412 -1.5110522402860558
Ni 7.973731371240321 4.382107175408804 3.873964707067637 -0.4130027285552565 -0.9661069252515103 0.6208774475864856
Ni 7.975199118820509 4.121187522763288 13.041247311645241 1.0336942853831812 -0.44791650971330604 2.0864250185725233
Ni 7.796399943286502 0.2169220842449108 7.164102541821721 0.9450089669306306 -0.49225184129557165 0.26632463563800585
Ni 8.011599258809168 0.5271461301356496 0.4080778597196241 -1.1707729075374547 0.40150269833545693 0.014550644120665262
Ni 1.9236758457060592 7.049206343902378 9.243087180383117 -2.0568714732851223 -0.3342398114227405 0.19684134403520293
Ni 0.35724242227981845 5.278323021293874 1.829310684406833 -1.2476828306216319 -1.3462221590501267 -0.31342158912580864
Ni 6.210214306799883 2.4695128239331634 7.081128019086989 0.31257929573017135 -0.4826215172946592 0.19441010888589097
Ni 3.484918946751861 4.551485246162481 0.9521966559356708 -0.48497356246660345 0.6042035864752304 -0.2293665703564179
Ni 5.86414694765872 6.1541830429262125 5.139265863520165 2.3060419657413442 0.09510947681133942 0.3201771626820873
Ni 6.657868145334797 2.353533244831196 9.383834082558518 -0.8062295600351663 -1.264436910151519 1.200312311757468
P 0.041381308338920814 6.1698237280775885 12.948565473352042 -0.10465212619445202 -0.1838960967284446 0.31468374366768387
P 4.080035549983772 6.752418609766022 12.906756683530393 -0.7512922845673384 -1.189768731913667 0.02223464302848429
P 2.5593664961077875 8.782093351028772 1.4952394097069923 -1.5017607876818007 0.5227461532296868 0.39810755661097885
P 6.218112623465769 8.128762209397662 6.306515060220482 0.4352947071842374 -0.1981847454369748 -1.3551749973680403
P 4.887847124429652 1.5772140294027206 13.049665761359856 0.06643653435667914 0.37731555956629215 -0.21275570127261423
P 3.8865864189150146 6.6981853366780815 8.846987058260064 2.918488766061974 -1.1754001218968209 -0.795817620673223
P 4.965867081739012 1.3759950095813442 3.8189030739391283 0.9295355538853798 0.09809735579506977 0.978040957684935
P 0.31819483259339626 6.161907064566951 3.9616112538185537 -0.5506765610913676 -0.2259313194226238 -0.4761688196907799
Ni 1.3450714027512618 8.00293954808606 3.2665887421722073 -0.9452228827136495 0.24104374958403005 -0.8008865505556981
Ni 2.1257938609203006 6.686360795235194 5.150678518298363 0.5087418685307948 0.7089187046971339 -0.23754396396088767
Ni 6.302875046221617 6.236899792492173 9.254352143061059 -0.813851081136166 0.3680721865911532 1.2253905948823347
Ni 8.864012012848006 3.323668528223475 10.588020064456499 0.39126148022342294 -0.9692930362889758 0.3658049878235313
Ni 2.526241267907423 5.703162558379242 7.321955124701972 -1.8622944998040638 -2.09360970924642 0.9198962310234028
Ni 0.6488453380891617 0.3524713253019704 9.042861642205082 0.5415900254090672 -0.6663669473778524 -0.6205830562745183
Ni 1.6337223112399522 1.5042211075555043 11.259317353811346 -1.8540841960791292 -0.045660221041276206 0.713295493608591
Ni 4.2718701587143215 7.516234450495772 1.559026802199718 0.31962103306830114 -0.051833439731523635 0.8932937979445261
Ni 5.7177666468021116 8.452299643182942 8.458163294765791 -0.4779480230783898 0.05316270006590844 0.3759503037876493
Ni 6.958150953396476 0.9315518688780913 4.944209548851103 -1.1625646606950495 -0.012904366766493905 -0.21179796534503523
Ni 0.6988652582797255 7.559679778869332 6.992622840001663 -0.3710515809344513 1.725299695612848 0.07288023309949385
Ni 5.313980114070062 4.876829844155868 7.38603790139521 0.7683353560925541 0.3424298034327006 -0.6197158231782166
Ni 8.474884609073081 7.486952886271025 9.50472419465845 -0.3834622958939783 0.34023433844327855 0.1441751239897388
Ni 4.977985172697938 1.0461921283131375 10.878536847056505 0.19138880556106394 -1.1867569416705366 -0.8631183028024104
Ni 8.232541136739318 7.795400040247499 4.915329780526432 -0.9237387446979447 -0.953109741660894 0.1658191846220757
Ni 7.479907697886124 6.61326696574184 7.227219357138749 -0.14495339691666004 -0.5926307940359665 -0.3845920386230473
Ni 2.4587707463306634 5.897437297461855 2.8309208973140025 1.5236169643249438 -0.3381671715016047 0.8580655708698511
Ni 3.856855356993835 4.4689519650440435 9.169054909780682 0.26822493798451225 0.01412641209905309 0.8070947362489391
Ni 1.2241106552990317 3.9654503310829825 3.939511561972113 0.45884601214161624 -0.4798269852686575 0.02704620548451471
Ni 1.0827390430598145 0.2738174845064171 0.0006641557800349959 -0.4555377737039897 -0.19970555295687542 0.28740073958201473
Ni 0.9151250214290765 3.440914039613354 8.354472432278946 1.1735083041907468 1.3069907243533299 -0.6526490835711276
Ni 5.588283789962416 3.310495493691289 5.02248452730252 -0.21602563027313762 -0.35746664316116505 -1.2559175598265984
Ni 4.158899462151739 6.892616023941089 6.498201976850776 1.2160898863066991 2.5757221481151444 0.6481653367681611
Ni 8.904237469967528 7.6214719519952405 1.5585837258989488 0.7287218554659902 -0.17593570423078733 -1.8972342491040421
P 0.27134891654498866 5.861881112331805 8.262073135394933 -0.45587510243875035 -0.47527304734938797 1.7312435719011088
P 8.561334941546145 1.9155665403255215 8.250445822533134 -0.5143445594295528 0.614893976309541 0.36933665512587355
P 1.9246298816331813 4.004400682492217 10.307706879565513 -0.6023395366832982 -1.2449104100828174 0.09816651847010835
P 4.224663727166531 6.9535000282517565 4.001513806470435 -2.793398169507512 -1.976926362919047 -0.7369714970692921
P 6.233890909952788 4.415856196330749 10.347663555409415 0.11288814095099914 -1.6925541257507106 -1.01914801213789
P 6.4473105815344764 8.132367364391499 10.834941074555974 1.0362425057263316 0.04195449005491485 -0.7285855869984419
P 2.371155389215826 8.749509354748602 6.2224534869341745 -1.4826798597909499 0.26423715698135786 -5.745742964886983
P 6.944372472987462 4.504820046534884 1.845743953251511 1.0720566872114634 -0.27324835934103264 -0.0010400112287401442
Ni 2.669117321416333 2.2503964570558717 0.19644700550129052 0.9040793185958043 -1.2128412974624145 -0.6617147933178217
Ni 1.3797377659108234 1.461821549332828 6.953203726709006 0.3686023480630103 0.6574295356789065 0.27634396754722085
Ni 8.139935437851841 0.7150462580090587 10.60354057777475 -0.6848457229083302 0.3238350711496487 0.1900225213411566
Ni 2.877069633261821 2.146929426075005 9.299504645338825 0.04810148349291716 -1.3603447144944378 -1.0426283546480173
Ni 6.468537880912942 1.8446009448234397 2.1400741275332904 -0.0991713055855389 0.27720091623087745 0.9602316974176561
Ni 4.2619536891256775 7.682190834703135 10.901401602329118 0.20611634157922568 0.13309495491617723 -1.1709821953347834
Ni 7.057911921737369 5.701850758979449 11.792970192438418 0.33288226895358153 2.382751856999574 -1.0748563614437876
Ni 7.747854192071789 4.071045596055121 8.522957929035421 0.15866920384085575 2.636621040483046 -1.3948625457656494
Ni 3.2245038323370343 9.108621320508686 12.637547009083526 0.7948424012441473 0.38936554875229074 0.3201483663266809
Ni 0.31479883162973665 5.628454206547683 10.825865807799225 0.0016264798598294569 -0.17276399137102502 -0.2490365379815195
Ni 8.273665589251705 2.6079214207448764 6.048745560818944 1.6569348338852044 0.7246564271473649 -0.10819922011576205
Ni 3.5112741892386086 2.868116373022675 11.392022833931792 0.4077106269183817 0.4405413002951574 1.169132029499922
Ni 1.3985524552043562 4.03462710922171 12.601081737796 -0.6410711489255411 0.3136571021753824 0.01213252159747588
Ni 3.0037729431215356 8.821098742972264 7.992742371772704 1.8431690918285226 0.5983946931029371 4.917466195243789
Ni 5.7410946599047215 8.293645303187013 3.749906094878973 1.0572337632660178 1.674237072609078 -0.6202392997818544
Ni 3.23412675240964 9.180761114074915 3.9217077838244343 0.7649895795487729 -0.6451869708661275 0.5307890781388213
Ni 3.857029652018982 2.910112300660799 7.195171088725347 -0.5985888113916142 0.20193161407391677 0.27984323894973095
Ni 4.943107820823724 4.504352201993699 12.039932482938585 0.0647221227687337 1.0558525666477752 0.3682213105745078
Ni 8.213478765041629 0.2519939126734992 2.870327167815333 -0.19355907373950537 -0.6102063410258846 0.3501953063107323
Ni 4.20133571406392 1.0881054951498763 1.7721015531000615 -0.27586959901396363 -1.268839410094589 -1.2493126529155711
Ni 5.934956594980407 6.142725438378371 0.49904243334400294 0.6238439864139773 -0.6333169589014189 0.596201027885728
Ni 8.278215606750289 8.028946200522512 12.078358114587902 0.1602226643709047 -1.0810563196069123 0.586975395522402
Ni 0.20454805480168972 5.338528192348703 6.200045568095895 -0.35915920037223953 -1.9512305008148396 -1.5608393390115118
Ni 7.266139436254141 6.452566952556023 2.8926543605367026 -0.2166648065190333 0.4525637786773302 -0.366254159545808
P 8.669471244516485 2.0817797803594176 3.9457274729742084 0.29713853569506893 0.42809921787706273 -0.60744189090687
P 1.627071580017226 3.3612336928539075 1.5651766645607048 0.26948760674701977 1.3181017466648266 1.4071295360584606
P 4.958280661433916 1.3542356517050598 8.411801735418846 -1.456801706472607 0.5785311214097907 0.9663064428568262
P 8.683598314975791 2.001016969759582 12.454131767409828 1.4457747592344843 0.32561787408168436 -0.37542836984590827
P 6.830447740497759 8.245411448333089 1.461941721165956 -1.2672209006545594 -0.9673374552245018 0.8394741810209091
P 2.0025305844516508 3.804144872020339 6.053068077442597 -0.5245988901677093 -0.5248243759149542 0.8486627894987125
P 7.115190771054198 4.491601144890817 6.089748924155966 0.00596058845880909 0.6124372872389324 0.5661705429619088
P 2.400840584025125 8.959745848765758 10.193086801659696 1.0051504123072172 2.254462036781524 0.31431479036403936
