# total energy = -381169.20918910956 ev
CRYSTAL
PRIMVEC
9.22409731394119 0.00000000000000 0.00000000000000

0.00000000000000 9.22409731394119 0.00000000000000

0.00000000000000 0.00000000000000 13.50039880499645

PRIMCOORD
 96 1
Ni 1.5028453001611977 4.3746204537915965 0.3656893431673931 -0.18802014619914717 -1.1271842243132264 -0.14706890059776606
Ni 6.662519463314219 6.368934889866576 3.1226558455512974 0.7816924941257505 -0.04896588837574147 0.24246711229411788
Ni 5.353573915523351 1.0885541875613671 0.9747933937845109 -0.03311220917293652 -1.37762844127555 0.12947818409919637
Ni 6.03948702555666 4.610849589332445 12.00421735337842 0.22309822084920286 0.3162454317278489 -0.30567588374211874
Ni 5.636126468427969 5.463368347399287 5.23013519870825 0.8075053414237964 -2.7536193469476773 -0.03889127774855883
Ni 3.517923179582622 1.790969207921992 5.823870058164175 1.2812817496229998 1.770943461593892 -3.6448966286828064
Ni 5.893072926828043 4.198191141980202 2.624922625063295 -1.830637792130731 -2.100319774276744 3.620265460397688
Ni 6.976581533087542 3.5036258285444215 7.852210344890583 0.1100802391885588 -0.0020401703584803574 -0.6735359543224657
Ni 3.763782272855007 3.3326479583224313 1.8894216895807852 0.1940172443228465 -0.0157156109630439 1.1753942083595499
Ni 2.0607925063538897 3.4109974420117704 9.844288859745138 -0.466841371642267 -0.10158891388809602 -0.5370402012548557
Ni 5.145459828991816 2.0516698739817736 3.6138408792638037 -1.1305402852696531 -2.1654388753735803 0.009750137408228369
Ni 4.641731867574959 7.383022938762528 6.437381382540036 -0.8572818986262912 -0.8713949409889057 0.7111198261135108
Ni 5.909058287698496 7.210901280457483 -0.32662067844332965 0.7897302768285624 0.9323198014987362 0.7697816016207775
Ni 2.043700253790157 7.584781622155147 11.343805183138794 -3.101476749153852 -2.01871295993753 -0.1783106322208671
Ni 0.12669113357385572 5.652001140129094 2.0345776214180407 -1.3652004999248424 -0.16341777426943468 -2.1733087650399603
Ni 8.89113519856425 4.00933697091174 10.515082751657983 -2.8560870638963003 -0.21864147062942993 0.06370833679223867
Ni 6.420608283747867 2.8011370154042443 10.180029403331348 0.06271691941324684 0.15724095603476146 -0.025920833630819873
Ni 3.372163991772529 8.119087466598867 9.619777095187402 0.28085162560958726 0.45810964819622396 -2.088876565436809
Ni 6.932361209941004 5.131273167122943 1.2010983228853593 2.0827149167107875 1.1155672088995885 -3.4258828623156226
Ni 3.876251692989703 5.40734117952443 3.2486284219342654 -0.4235285677872448 -0.873130949843406 -0.6107701839491545
Ni 2.8328494624167173 5.751962684129726 5.405532334015661 0.9109536771181342 0.48264182900963326 1.094107496363916
Ni 5.624430312868977 3.1744639112552697 0.3823720458046121 0.5557884283966363 1.7001617628946397 0.022805427930289758
Ni 5.2940323665223294 0.42314901337530436 10.089374973651713 -0.6378932654181918 0.12799054381007635 -0.27777632911837324
Ni 7.1202745230701785 5.512062357806165 9.707731631545178 -1.1852649305060425 -0.9258159389419476 0.06429274854079896
P 4.997532978282383 6.106712247728535 1.2599812713288798 -1.1348841640606453 -0.5600785711315579 0.9445705938416313
Ni 3.0659885253138257 6.282495872718849 7.864130646017465 0.28747992955938234 -0.5179669866734886 -0.8670693170303583
P 4.165796111756873 3.626195635380298 4.4891929681435245 -0.5273455996749111 0.6962897030792137 -0.6397830262417369
Ni 7.861412304500718 2.348685811678584 13.418681041470183 0.4449430289072788 -0.2295061812580757 0.4686313736631542
P 1.815699013169357 4.180231824256733 7.700330968426395 -0.4465885349305018 0.6739496448211167 -0.9729578867350728
P 8.844267559451284 1.680141677132328 10.629957816406076 -0.5409793884082619 -0.4659052329812428 1.740382043867267
P 7.086025449260606 1.4646944331328122 6.585521309900425 -0.5040843151541253 0.059838055203555014 0.2772749640019225
Ni 8.81423389817362 2.7247799367628094 5.951867323936102 0.3187491719863091 0.15516864688676502 0.8209303565804507
Ni 8.739795431800538 0.42774169149267216 1.647156304672583 -0.15957937435995098 -0.22287839152891295 -0.4756018914437164
Ni 1.2485184854352207 4.924468902428456 11.485329587812348 3.777746814578029 1.5528882024852353 2.8597768540430617
Ni 8.51406331915096 4.157365286693057 3.6494145334663357 -0.17489003657509233 -0.6348675912179905 0.31863012990994155
Ni 0.03317446645734719 6.874009569510258 6.14960706807237 0.15942073729489964 -0.97157669011683 -0.644734199599425
Ni 4.428812026275098 8.23671315720476 1.7041824423006262 -0.04684112872325481 -0.3055257313174996 1.1694151079579793
Ni 0.620483819633781 1.4901806143705854 3.306922872960859 0.6676090473150696 0.23514898136614987 1.7206172025355142
Ni 6.658553101413299 8.800471544787172 2.775317844248743 -0.44145044237298814 0.6262094013223602 0.4946162277626901
Ni 6.76603228483079 5.894917746316843 7.146395322212099 -0.8627773745232238 0.9622965503664848 2.0102121215553703
Ni 1.4296797592353871 8.242644251861252 1.206363437706395 0.7580311459530686 0.7593349523661568 1.5344371948688993
Ni 8.857384226016652 4.940371246421913 7.869855120891211 1.0312861901623207 -0.07268354370765547 0.27386002478310256
Ni 9.094360513450466 6.461987584881652 10.534901647426162 -0.2119450324458608 0.7209586665808035 1.3840916804023904
Ni 7.028965182472019 2.132592880857988 2.4815755387348077 1.8878754335969616 0.38918788552384587 -1.7458096426407417
Ni 3.3340407970364754 7.2318768780451395 13.407056833871255 -0.11288994072321203 -0.8547053961483668 -1.0157986360496827
Ni 2.0234533599005764 8.02220677114453 6.5386213864464064 -0.4004416040607942 -0.8775650743553596 -0.8008320431686788
Ni 0.86223911195333 6.600413615223765 13.218159309544806 -0.7235271986389281 0.04584251225541137 -0.37971439881577185
Ni 4.928269230575385 4.623025397958526 8.785533118976613 0.2700715042749478 -1.3248933156653635 0.16303159457460956
Ni 6.173347127663994 8.403641648648833 7.665351346099257 0.4336977950107628 0.44131134569196256 0.8670626321621391
Ni 2.981468120434451 2.424443323986159 7.781805576329761 -1.936721765675703 0.29523823334856253 1.5547201134876514
Ni 2.8878804277676235 0.6903950989813482 3.0520758191390405 0.8302688603725572 0.7490443690734261 0.13348730525858946
Ni 1.1405596489506409 5.820580745015644 3.9361760420346505 -0.49556650749110137 0.9205950568626403 0.8995153533742057
Ni 8.609588072281028 9.142704008154471 6.761958000989775 -0.4333396403403957 0.04416743854583361 0.13260515976395226
Ni 7.773469759469618 1.1490827149888971 4.41371217875927 -0.21543556209762252 -0.9907319228890421 0.7924335346923385
Ni 3.748599408462182 3.5739042269702597 11.404449011784374 -0.18591055605531207 0.9025960491820585 -0.651700089394297
Ni 3.56486461147514 5.770890532084814 10.398736443367575 -0.5941132921187638 -0.3819386601606003 1.2326336495979935
P 7.55910173487105 6.458261049514275 11.917099442658815 -1.4727407463003668 -0.46479065976082534 -0.13557375547397296
Ni 0.5921805990366104 -0.16321025776439743 12.712529339234994 -0.43174941303514025 1.0246272900849063 -0.14151017556306597
P 3.9686679252811423 2.2565370782130207 9.657726876891509 1.0780450435844144 -0.8453563508332989 1.2512427800587484
Ni 2.117160965834176 1.06135232419901 10.266068094650006 0.31682495838040275 -0.2677071178078293 0.9022612915504591
P 3.152999436503081 0.21854746315044424 0.18835330257725352 0.22240659409881697 -0.24690715034334249 1.0254163616451049
P 9.382567438088255 7.9197731690289075 3.829360993633127 -0.05705586447272755 -0.19625333274221685 0.2335523263029913
P 1.2431869571125886 7.7801387819216306 8.801315549703297 -0.024310037500274263 -1.0457553303127731 -0.03326390425945239
Ni 1.3223204890846674 0.9549154637926902 5.603043320535318 -0.27481621804878476 0.05007557650015247 -0.32089861422914406
Ni 8.163464599401951 7.318712531382958 8.671225336221326 0.5842315142286777 1.2006802366198484 -1.6888378532413881
Ni 0.0696474701606689 8.80671625875676 10.397304863444266 -0.13891927490743816 0.366902077542452 -0.6613697512735771
Ni 6.6607207643126385 3.3115801197603347 4.968619122434419 -0.3502696111920935 -0.3524787030282704 0.6370252609909417
Ni 2.317978791287507 6.147528878918235 1.7025894406720474 0.5544224012870451 -0.9592659910702769 -0.06681011564601398
Ni 7.888337444939754 7.298447189298489 1.3725853632862584 0.8210558264147214 0.9289010056251744 -0.7424356055076569
Ni -0.15535409397134237 2.675633945581176 8.844746290108628 0.575876457395763 -1.0948052937618888 -3.1231892011302795
Ni 7.241469939386899 0.21920421888845704 11.768068467485335 0.01038417144780147 0.5598602844731648 -1.3225461555894256
Ni 1.512668963939058 5.59962671484206 9.314478840395623 -0.7253125726741251 0.33780156063206984 -0.5438315131450763
Ni 5.009837924272679 1.9238146593104848 12.048862907417126 2.0061158399988095 -2.060901934600754 -0.5157918333990408
Ni 5.260973201283033 1.9620024227286463 7.864455334247493 0.6456363996987203 -0.6787642926009407 -0.061018705775217494
Ni 0.8763169294723634 2.7828456301727917 12.167613015501441 0.07056212648927848 -1.6432125992031057 0.12195205092548028
Ni 3.284876357659954 2.4004053260470943 -0.05988007337721695 0.464462072776813 0.5594357953412367 -1.9126428703496285
Ni 2.7015259871064847 7.6252292894470886 3.4685631893402875 -0.8042865773761826 0.3687612422383778 0.9292925846366383
Ni 5.709633300959208 0.04064045092852105 5.201541419041594 -0.018718145234793572 1.1901754804337825 0.3068092260156135
Ni 8.43024394567733 4.802507886023884 12.9607073706048 0.5174396534151089 -0.36362469234276085 -0.17316122680944374
Ni 7.361779842348995 0.7590334528816436 9.018266321586184 1.0956439876131001 0.3328416455236332 -0.39162246310726745
Ni 1.727821036820366 1.534530074881339 1.1102833939101986 -2.2527491678554754 -0.14746999269092667 0.9874779347281187
Ni 4.240871040853592 4.0398410611590485 6.510189028485019 -0.020594022101267758 0.33650289642530434 1.3899980185844965
Ni 5.48867004668818 7.000499617759835 10.95820654804827 0.35751677967281004 0.8372823155759128 -0.3249599287827113
Ni 1.3069346945480749 0.5035499363361888 8.104221911158117 -0.40660865210345454 1.043107351166965 -0.30715555361143876
Ni 3.6720209514820916 8.83083727357282 11.750949465039014 2.7583730595825786 2.2628592597062833 0.33587708991584736
Ni 1.6452192442093427 3.702672627288505 2.6366953406310727 0.8067743767950428 0.8078511547989895 1.101024278088407
Ni 3.604675816043445 0.17452822532818585 7.361646092936057 1.1769967769599794 -0.7389643591296047 1.615264450729612
Ni 1.538957641654459 3.731682413749885 5.046746305375358 0.805710711417219 -0.7564627730246842 0.6357721053101308
P 8.05764575352438 4.91608419785186 5.8258809114069665 0.30560543551549946 -0.3639000574913346 -1.2696680766434714
Ni 7.133640240266535 7.42171802754011 5.324287406138651 0.19538532831496672 0.436313635367055 -0.5265285030902545
P 7.222191575728939 -0.11805368872729383 0.29216314003152205 -0.9787225571329919 0.3371788394464064 1.0000912526167551
Ni 3.8416428793798136 4.784050467038439 -0.16008236632113693 0.3115187156761409 1.135109135587258 0.5866023284536994
P 4.91926651147004 6.734679577618634 8.923615090484065 1.575095848930526 0.8360152759380313 -1.4707913358834799
P 9.221865212418882 2.843872258862298 1.7839828765179064 -2.25984566969094 -0.028235597806925566 -1.7498691574220957
P 3.5197587749739783 9.065904172835724 5.08747715245883 -0.3999564368942595 -1.5150186811329716 -0.7836182503935537
Ni 4.8742252436509865 7.1097682760814624 4.283798145538481 -1.3618441818580995 4.700746110006788 -2.1667143996518945
