# total energy = -340889.9215407496 ev
CRYSTAL
PRIMVEC
9.08775332106474 0.00000000000000 0.00000000000000

0.00000000000000 9.08775332106474 0.00000000000000

0.00000000000000 0.00000000000000 13.30084558956240

PRIMCOORD
 96 1
Ni 6.516173608137774 2.125116594081918 11.089886285525218 -0.08812327530149339 0.6423973239361322 0.643700359018272
Ni 4.6715777844246515 0.5198522074597784 5.8210222736822095 -0.062465465524073074 0.11764365335811351 0.5439299863961535
Ni 2.7970923399475347 1.7446578001370683 4.650068889798862 0.3084071666303527 -0.3610129657515267 0.28898762445316034
Ni 3.249980528081814 4.296417150682115 4.643591139211883 0.394390769881024 -0.4256893228839895 0.06167382286071314
Ni 4.003727878579361 2.8675496916602885 2.5410603385275796 -0.38564490536759394 -0.43891764864880534 0.33202634871118947
Ni 5.4726450666090685 4.673949688048672 2.556329581704126 0.29929929079181355 0.09573708309300932 -0.2512775114968963
Ni 4.992802602042437 4.578391961586708 11.436984845702193 0.04618421186554626 -0.0910201372333142 -1.3543483877016866
Ni 5.893680679256028 7.855254064074085 12.353306650956625 -0.375831775931914 0.5531661602824409 -0.38997695708404445
Ni 1.818895657242896 6.4030310789460065 0.41837653601711783 0.5795605911155697 0.9609428645520676 -0.09195010524675133
Ni 3.093816574537128 1.882955230598139 0.324886273441992 -0.14581291670347793 -0.9916096975083052 -0.8579326448364127
Ni 7.975512304137914 8.99278632624212 6.880899683485292 0.08853156648350559 -0.35313304878281765 -0.4397951661577522
Ni 9.117379424653295 2.2435754589826975 1.3946066288970904 -1.4974616460858146 1.1922274778668047 0.17098067421835714
Ni 7.060702701040712 1.0130482167970432 4.6021991490343925 -1.2559630683525531 -2.02205745092973 1.2473208192965228
Ni 0.9528418508616644 7.9126977529914475 2.37905568590566 0.13983972983917853 -0.6796960603865907 0.13703259940768658
Ni 7.603014382126557 3.973120325300817 3.78643151703306 -0.2963656620847864 0.3365149806101624 -1.2582935162579425
Ni 7.860488610002957 4.044286521774771 12.41890659850448 0.7835017794203474 -1.385326067030124 -0.060767766106676
Ni 8.664436709998924 7.3085529981208 9.28042553380898 -1.3048304834772173 -0.4377958763395363 -0.2114243840557004
Ni 6.922732429700195 1.0964283537717 0.24986596077283799 0.3127790704458032 -0.09168708139335176 -0.5946997607498533
Ni 1.9631910049141328 6.852166024947257 9.119352375905306 -0.752951160327 -1.2904413046350809 0.04223216919633373
Ni 0.06930502458813365 4.901979595075166 1.2139466362008846 -0.17019905885732625 -0.5079869926426412 0.5045149749336407
Ni 6.565038457893929 2.183223688993739 6.909257109034689 0.17751076202739105 -1.2937878525098105 0.8099165219684503
Ni 3.680267473637786 4.561479652604709 0.6336199740819398 -0.5767493469190197 -0.6981786925718105 0.6116081064694175
Ni 6.24886643113804 5.859810622525287 4.639574352231742 -0.09011150937611577 -0.41794593149314474 0.4717295529725037
Ni 5.573428251246556 3.3877781321087044 8.81183643421409 -0.1961905978250815 -0.36886768590925506 0.5955898766642904
P 0.3866230170412979 5.632207839906183 12.245783079660379 -1.048316149061414 0.5258492176350428 0.9592096839110448
P 4.058199872151687 6.165840716543985 12.666741446403874 0.420665644417153 0.6722344619022229 -1.860585230422441
P 2.506620479661873 8.737084210268723 0.9691743611800134 -0.5196454028171761 -0.08182484388729133 0.7811615613229449
P 6.553587888674523 7.980974043900504 5.534920713981955 -0.5993074347251937 0.3562777650593864 0.7947868654158634
P 5.107226504456378 0.886519426922586 12.352176134440041 -0.2118686706819706 0.5923222616566122 0.20713886930646905
P 4.035044276619106 6.290370200681721 8.02344293284982 0.3135113206261375 -0.37341391051904077 -0.45989322245920794
P 4.9759811705939265 1.1912590599657642 3.7421796108767227 -1.089391064724853 -0.1942411874081945 -0.3531605595866434
P 0.46156244870564817 5.869398202308204 3.550860592277784 0.08135278934687924 -0.6754987344757915 -1.7106402938284606
Ni 0.8305706734310904 8.94193125850259 4.764749066857237 0.5939482272958093 1.0689194271340625 -0.9851593138972712
Ni 2.4086272353024483 6.565992671995547 4.7788341757724435 -1.3350021219645911 0.779447921065948 0.031849026189796764
Ni 6.17026645242482 5.822578097055514 8.807859633348682 -0.15395148665021227 0.5096155293849998 0.34725910650054387
Ni 8.822254634653081 2.594862564678104 10.056277026776659 -0.1813548183638296 -2.4080790229104525 0.6898809713393925
Ni 2.0981804931562635 5.122866527969553 6.768082495863408 0.4567811591927875 0.24534391962128066 0.875162635561454
Ni 0.5835010143636584 0.2745174005066204 9.18976701517732 -0.40519634513696023 0.2928329663411795 -0.0894875026388717
Ni 1.7489381319643231 1.338889613115987 11.319153035782476 -0.7717225273972322 -0.2616637398272268 1.4106056675325191
Ni 4.106555807720314 7.059166870724774 1.3413369450928019 0.3890531597181945 0.7258589320958984 0.5276741866589235
Ni 5.517892990532428 8.315103471273495 7.862396129430857 2.0574767109692886 -0.36558515850324136 0.24041768596425692
Ni 5.2822202829396465 3.0024573901222804 5.134352539427021 -0.5493326454689637 -0.791449059291882 -1.9455805016179137
Ni 0.8858051295093754 7.462372311301513 6.7447124293517975 -0.39480934547568136 -0.7934450066759884 0.7596689386668078
Ni 4.789155137250603 4.817454401178569 6.445563582168761 0.1889359731451972 0.32430918257258984 1.7824879718983815
Ni 0.9479799028200905 7.71008629208137 11.697986939428572 -0.07636047833861043 0.28295041712014496 -0.4768010539581401
Ni 4.795661968648298 0.24101812411250823 10.100316279504636 0.007941109223947614 -0.6262513103038891 0.9065635184702387
Ni 8.472894132667607 7.263832163891668 4.648804783308053 -1.1380018837540207 0.5028825815365403 0.006782827249788319
Ni 7.6275149651547505 6.510730043881881 6.784654922870164 -0.39971526741773095 -1.215773640617861 1.1711518881434282
Ni 2.3708221813717043 5.444682049555007 2.6903085117738774 -0.6667526128520452 -0.9926795335337162 -2.1567719437272017
Ni 2.337088440941195 5.6256737452484415 11.324592964937029 -0.22433929234515557 -1.2374637239967852 0.07588739535693381
Ni 1.02349913314809 3.445857963760479 3.6242678287275374 -0.24363876400471587 -0.17573927194926509 -0.7089490437144371
Ni 1.9178431157039382 1.2432228336138391 2.4432324912791015 -0.32489410854178236 -0.6534458684408102 0.334012783013599
Ni 1.2996759574161896 3.233586221040694 8.212727203473975 -0.4616917091205274 -0.19272886452872617 -0.14157111070798845
Ni 3.3273445723396073 2.6495344888241017 6.94603433806169 1.2187391510040881 0.39150033570710635 0.201028385533357
Ni 4.4961023550139 7.155624284768263 5.872123619537489 -0.2518297844559405 0.21963391644968627 0.16687590802136423
Ni 0.09170815414343866 0.17397595010820993 0.2456210711836432 1.9685916178011063 -1.401417830385664 0.09868022488173327
P 0.38084047958549694 5.6157771818516675 8.154150271714025 -0.1636100927858989 -0.10384557113275665 -1.2447677138573658
P 8.723543457779105 1.6537893544030529 7.835035630423816 -0.9857817779726186 1.9188952790172435 0.2227801753881518
P 1.9703794178129834 3.3671943707738166 10.48558885639831 0.16226514872223022 0.21206587429444124 -0.7798392429670956
P 4.1824476359356115 6.22320261568121 3.464736862567144 0.8394664677114252 0.5520410455390622 1.371506130427896
P 7.036002187438846 4.1886545714727985 10.339372357669152 -1.458229440058069 -0.09676115348214948 -1.0245537565344935
P 6.603861340199732 8.006546981823849 10.047379207472911 -0.4663652033367968 -0.5479655899181078 -0.9290740408679289
P 2.586629060144148 8.491533114785865 5.907025136273312 2.1302484435153763 -0.40910107950800506 -0.9010744703312096
P 7.105632553596864 3.79861728549838 1.3020287767581775 0.030884091173366168 0.3871248323472301 -0.1894640777345253
Ni 5.28679142287406 2.9386795371208483 13.274922072536695 1.1451436370051247 0.20188764820985877 0.7938188450756393
Ni 1.4451799762828084 0.8515633836666714 6.911611745927346 -0.01319130187929341 1.5899318855020939 0.2281139288962394
Ni 7.061138913201451 0.9206075897336964 9.119405993650062 -0.4311506031088768 -0.10337660191613811 -0.9987895030861961
Ni 2.9032645623208224 1.4975890498449713 9.255872241811364 -0.7798184170314892 1.5481324329678048 -1.0026050201775443
Ni 6.576170955746132 2.0871116095775024 2.614493929462044 0.22001675371040172 0.7686883685565987 -1.5568160767847317
Ni 4.057418325363696 6.589393636868543 10.212469152356727 1.7899230880201882 1.302334199417925 0.17012655374817798
Ni 8.073332881183713 7.132550479015822 0.08459244327137805 1.245757845684777 0.18617820789440195 0.18625585520987276
Ni 7.995332694191508 3.8715919448887335 8.08183356566612 -0.43442413165382604 0.7425978421171339 -0.6817668268726904
Ni 3.487643453657969 8.40892543684585 12.27749206864479 -0.8297312427015323 -0.1480592895354934 -0.012995126708087296
Ni 0.021356220369530575 4.779349451387317 10.210540731096124 1.3529941876666376 2.2049950403996474 0.07200425825244373
Ni 8.560781795303237 2.5493874469210267 5.474907008417569 1.3634056128079486 -0.5178643996573532 1.2887304925915612
Ni 3.898537133567737 2.422685989732943 11.31071960067485 0.21937860590577057 0.45838912710985574 -0.33483116514983624
Ni 1.4688263104962205 3.5734136697633434 12.663362619708813 -0.6489009293826051 -0.12738530612590962 0.0991939312933582
Ni 3.2533884355875906 8.440523555239409 8.087977795705202 -0.36282816458339445 0.5601706166247321 -0.8127722462496905
Ni 5.732727479696557 7.917732368346648 3.470310381695924 -0.4565237917663428 0.8065961993459657 -0.6025627084376978
Ni 3.264375529386213 8.647106364362884 3.5025918991413056 0.4108031498007764 -0.5826618557487127 0.1925918247302296
Ni 3.3173843946693924 4.360722093377774 9.110679932884606 0.591152152607911 0.4150868647777948 -0.05918936587596258
Ni 7.3671144807000575 6.295359377270176 11.139059210119896 0.3524668759537285 -0.4622725213246619 -0.2158518236994347
Ni 7.85306391551704 9.025375009750688 2.1899440825951295 -0.2005607018683191 -0.13232645218126887 0.8220935236506164
Ni 4.761873701697697 0.6102290057376272 1.522547655641941 0.028011140500945306 -1.1660312790874112 0.011663038160225075
Ni 6.270922408515425 5.550499849547694 13.152500947175866 -1.2683951234683186 0.15441891320493406 2.414329374695539
Ni 8.103186150934311 0.13029202853616886 11.151987448033807 0.29856189840515673 -0.724882684225558 0.6956230160294923
Ni 9.04421392244262 4.953398103522316 5.428979320543725 0.5320052099341096 0.22654401330595825 1.365809594263751
Ni 7.526159252056294 6.3453874594549715 2.498311546775123 0.2688666853335692 -0.33113083348011363 -0.24615921643372446
P 8.887750073037424 1.3519487146781215 3.5970009335799884 0.8455509833426083 0.8914562305151551 -1.5618274139563941
P 2.009947495893382 3.245154931053635 1.5993864277561771 0.012694821858849107 1.608626890808436 -0.19984362119663648
P 4.724559386447784 1.406411620497099 8.191072904794607 1.5780063377091016 -0.3849360522260274 -1.0336773161023165
P 8.958916269511379 1.7695491565592574 12.25969552126196 -1.4342086516634398 1.7451108168015041 0.5739445304803729
P 6.307891389138084 7.717856321194539 1.2437090284179964 0.03933247905103549 0.15811667377149544 0.07336514315571235
P 1.5884756710856842 3.2028241759552207 5.749437131778878 0.20186785071551686 0.38673685288019205 0.5723797570964142
P 6.953130964651718 4.109445713285212 5.960122152763974 -0.06352810246063252 1.2333108781706759 0.16210522610559822
P 2.318649389396609 8.712129239573093 10.192397940310707 1.7572657069964834 -1.5135891477752963 0.6415632580706112
