# total energy = -340872.30687713 ev
CRYSTAL
PRIMVEC
9.27886156854786 0.00000000000000 0.00000000000000
0.00000000000000 9.27886156854786 0.00000000000000
0.00000000000000 0.00000000000000 13.58055182727071
PRIMCOORD
 96 1
Ni 5.830075677410204 5.009815045120917 2.578716226076767 -1.3797704273192175 -1.2421559872661316 1.0548724621226928
Ni 1.5655573428099814 7.580365873109263 10.194648903064131 0.706235501438016 1.3593139592370784 2.3744734190408656
Ni 6.725875520878854 8.542722989860016 5.699010831343425 -0.4540131095293471 2.4340114265054984 0.5464648370028654
Ni 3.9618233159178424 5.464776180429435 4.605640830150091 0.507556589973442 0.9040651775284171 0.26863554315936955
Ni 5.854636823705718 7.191794991576493 4.0547316278718855 0.5313727185564332 -1.011880531942199 -2.5285984551544645
Ni 4.59414988811293 0.4788597708954937 9.987382335109448 -0.2836716115568857 -1.7856622558613053 0.4101914843587065
Ni 0.21843738927133166 8.050683524140892 1.2342138393571442 -0.5469888278271353 -0.12915371088024208 -0.09405275341205092
Ni 6.213682368059672 6.706696114232527 9.035670856116475 -2.6500491409634943 2.066281967965745 1.3849853958612535
Ni 4.10716740189175 8.156434708247417 8.04932881036713 1.4040159301301434 -1.9079722043468368 0.04474079455080037
Ni 1.448383880241129 8.435199543213843 3.651633760830896 -0.7335480732100399 -1.9144529269751738 -2.666328080629176
Ni 2.593005672731505 8.516426696470711 1.4098923792295381 0.0012120180302301708 -0.5011393735931885 0.07644429630166835
Ni 2.5935252889734954 7.263140157374077 6.128400352342985 0.601593402545893 0.7375844480629425 -0.12006588964636097
Ni 6.33231261187839 0.7808932067554823 7.841953679733319 -0.008867991913591179 -0.0916603419204744 0.3044510101960821
Ni 7.455908504291079 6.472785295583637 5.91332562246625 0.5745523392677008 -2.6926083544819432 0.9524569385682436
Ni 3.002370482805358 8.611414401278862 12.105431853963413 1.5681541275053703 1.1536136221493487 -0.30899029282733237
Ni 1.281624182008043 6.799215641891224 8.222861149582874 0.8762432702201424 -0.4073550433511759 -2.989627848100645
Ni 8.637228193872032 6.167909744457189 11.487530199800439 -1.1738538604556235 0.9722310358713772 0.4664600770434483
Ni 1.5420168712755198 2.840500744563861 11.396188159661538 -0.660381933439011 0.4207191233629076 -0.09392548380556727
Ni 6.73919068707986 4.861835762491202 7.939543177296007 2.8467359616987036 -0.8240766155189162 -1.8270395332565115
Ni 7.692036970829895 3.7418679049109813 1.5360691210770216 -1.010495992889847 -0.5156619926893958 -0.8165607667578453
Ni 8.397072701457793 2.4615427635079143 7.546237292758099 0.014280935399046374 0.5716881303460283 -1.51855060554563
Ni 8.517252515141017 1.7195122122225879 11.236073054122906 -0.09121091308788162 -0.552938617652667 -0.03802790130699902
Ni 3.956423018545727 0.6306081270519336 6.718570273248156 -0.0044552075578761985 0.3168666102516156 -0.04546661697323137
Ni 9.044495981254997 1.1535666149417831 1.618869969238204 -2.795320326230889 -0.17517877146010477 0.5044465835895506
P 1.021147982987389 6.538275499797365 2.546570538420484 0.8958296769925024 0.07457973228910382 -0.44501424846484644
P 6.251289593573732 1.4580524538867374 10.846555728720796 0.4952610604355406 -0.7047072377189476 -0.04295876294971312
P 2.5455999695113376 4.084907413239336 4.086157275878553 -1.8993458961304066 -0.8397492890591666 -0.8489034447546089
P 0.4180637426964617 1.9273401512958497 5.919246463966501 -0.35712134400660434 -0.4082158486895744 -1.8153505269543575
P 3.999588282076793 1.1212390616008043 4.693615571463663 0.13673332299971291 1.9052195813023636 -0.7957687697131586
P 4.154972096154873 7.50363896766249 10.085773526302637 1.0104376288480854 0.4515340518612352 1.494246995803259
P 1.533443203282677 4.821287137893017 12.255076692225938 -0.7985175361028893 1.17781361643432 2.0498932421950764
P 0.2416159852086925 2.429094584967902 9.386918445295986 0.6693298866609182 1.1245344453952053 1.025900243260059
Ni 2.448914233055253 5.604460160910231 1.0137787112125884 -1.5376446460626036 0.6432028505565633 -1.018400335338588
Ni 2.000318396711119 0.26453941245579016 5.355871111311257 -0.24167161297601603 2.436571473923191 2.53346015412214
Ni 3.14168330882759 5.65845385576992 9.589390625532161 -0.36915719212521586 2.119292972945137 -0.6856983007166126
Ni 5.739588220412148 2.631689246175403 12.53613897329088 -0.44204616697545807 0.6054533997219315 0.8757249358228272
Ni 9.23431365022641 0.40277032323130635 8.574475253790219 0.3883872439994214 -1.3413900277688058 -0.4211099310434231
Ni 1.7821723636897604 2.179521048167584 7.68412024622871 0.012233308841398286 -0.45988422359814346 0.10454619674420704
Ni 5.036491771830251 4.77523614844661 11.596052979826295 0.4827876105588782 0.8100995845135338 1.3019986704553772
Ni 8.397007749427544 6.541077715959528 8.872269177847254 1.2735324446948841 -0.9782926686844247 0.6456587682962235
Ni 1.2274356310576078 7.250353886276526 12.757162381252261 -0.35440163108259604 -0.10781741129631107 -0.2962641035099156
Ni 6.42265160709302 1.4394297789282573 1.0933996935500183 0.5994827839607934 0.4960650443940747 0.5073794409656294
Ni 1.174332706898474 5.876247292055643 4.725121945565069 -0.13439541889515563 -0.02635535006507719 -0.9874249700029963
Ni 5.936541333849466 1.8236117589885008 5.57914835472227 0.544780764432223 -1.2776384964434575 -1.3462429849857331
Ni 1.9875785199208882 0.846157006749486 10.116166437028348 -0.008724781467507554 -0.26410834471297745 -0.30684419301860705
Ni 2.1299997645335993 4.896538704366994 6.599767442606205 -0.013567454271789537 -0.6836262486789323 0.5826891094422223
Ni 0.7636707119919374 2.9747937065340064 0.4239632428153464 0.13239484352535907 1.3139702409949563 -0.5611206392428271
Ni 0.07401747789925037 7.963480784101133 5.8368121308331515 0.6789836077005983 -1.1182871789339126 2.5902704782429646
Ni 5.081058143442398 2.4906412730593814 3.0978462557265223 0.03689790146761387 -0.44761954729817743 0.5534407541000662
Ni 4.988408711723204 8.75650795799324 2.0126648497752715 -0.3960496456406857 0.18215468855730566 -0.42233609014104045
Ni 5.918141351566125 7.289993182451228 11.702442549601553 -0.1716890131392914 -0.4803682024841082 0.1404537092740936
Ni 1.0572056386369424 5.299334080524254 10.277734612272262 -0.5791579563605123 -1.4519914295681575 -0.91904699564923
Ni 3.3589385711483937 3.9509484902818985 13.183293166105623 0.32633855429779285 -1.2932967718060049 -0.7389396765392564
Ni 1.042090373311898 2.351022244608833 3.673362998607562 0.4050042837308122 -0.14430984979539016 0.6717050717613142
Ni 3.609495667263908 3.1408946056031404 5.751540321864075 0.024617027217731798 -1.245269336084133 -0.25239131338636533
Ni 4.089927277291422 2.7886133512565268 10.640959355829654 0.051800272500743046 0.2804993844764911 0.1437393220039008
P 2.8981595897018755 3.995932410659931 8.473164004894272 0.35500635454613055 -1.7124619204182316 -0.9752523391962041
P 3.181480345647182 1.6289226877484269 12.108120868015714 -0.1354606269348764 -1.3410678685426969 0.9103299274912063
P 5.995499219592457 3.0043839957430714 7.304489547716616 0.11601537372607115 0.042317015600656156 0.5695916528283159
P 6.979708055091201 4.9883715962773465 10.668528709011834 0.22973295255690115 0.25080237163269065 -0.9814895783551677
P 2.164962514530387 8.933585750174421 8.167845852075986 -0.7485484032736142 0.2359779050253484 -0.8175179884647921
P 4.075916196480608 7.4428438673496045 0.2697569162570624 0.584222001146981 -0.05297115288039265 -0.780809577300165
P 0.014259754298052898 8.920270583973416 10.741550565075986 0.10541471539208941 -0.3786417345768834 1.4972898963946408
P 9.314956235211039 5.2574585787367 7.161364037518779 -0.9350983926851378 0.750217820556237 -0.22477560855162576
Ni 9.112417247172322 5.668057477385281 0.31479836557617247 0.7768511068730493 -0.4493362728789681 -0.24703519128077453
Ni 7.549235292897155 6.3181252326997575 1.9885463051715955 0.10982518575495924 -1.618695845008664 -1.2165272309544337
Ni 5.479659474217876 5.719081936576453 0.2812460025219304 -0.10292177376690663 0.17598172697737435 -0.09218613251695736
Ni 8.526865415617841 7.220160471072294 3.797393539798396 -0.029237042488246424 0.06363351769024525 0.3005966694469984
Ni 5.430119632860964 0.2530447588740437 12.794047711344412 -1.2001904414676234 -0.8889326927623529 -0.6964105449277942
Ni 2.6337677111433644 3.231224321956306 1.9471932032844714 0.7866724638388451 0.6233423641872103 0.8664723068763078
Ni 4.234761025884803 2.1509885491654286 8.41054468041754 0.1297167824725637 1.4749467528127502 -0.9674881218697531
Ni 7.26264837771648 8.500578401090003 1.9812392017686045 0.6566798019970754 1.0823948359126778 -0.5127139658046654
Ni 7.867815722406101 2.6025907366239363 3.6468802001028298 -0.7042655221958387 -0.5732302780221675 -0.16714973050804116
Ni 7.3668128765126415 4.390413926945343 12.82850105184682 -0.09051260146927637 0.6521027241493544 -0.7865613921822776
Ni 5.042151877323361 4.639783328793451 9.398760128296491 1.040884632484033 -1.784377732721927 -1.1383656948513428
Ni 3.8028856978990055 6.521722010945382 2.488282586475203 0.9510821697079039 0.8515344546195528 0.26110478199996323
Ni 3.7743160834509935 8.504698215580069 4.005013632374862 -0.02046803804636475 -1.6510382658951115 0.3570989754091011
Ni 3.8799744789428785 1.4778442653896962 0.6768344869800111 -0.5758952264488405 0.07851300590523899 -0.1301204456688856
Ni 8.491086125812211 3.990114564521931 5.50376317264321 1.1734044316230305 -0.1227282669698725 1.3381851476782631
Ni 7.294363526200827 8.834728760135734 9.987626369165955 -0.8110971725401127 0.18551974837479662 0.34625431938511336
Ni 5.938675471986213 4.182409689504263 5.207924304696665 0.5682533936328665 0.28632884667407466 -0.3926758440724463
Ni 0.20419897635464623 4.5373168616452215 2.593383322393094 1.0806243742758164 0.1596009716265058 1.2544358330747494
Ni 3.23411932673311 6.296134331029803 11.767493863668028 0.3576630754426872 -0.3255826499683747 1.762709503719874
Ni 4.569180471912995 4.9780813389136425 6.966592384411674 -0.46311044384492506 0.9977649184764237 0.725134652335364
Ni 1.21188425924375 0.5308622220849833 13.147182620945724 -0.2969025084248629 0.4893331249868798 -0.550541063954768
Ni 7.732483527951974 9.247137036769818 12.808035595001567 1.086306255151942 0.6196250632366231 0.0073672389983486025
Ni 7.205221504115068 2.89979266931956 9.438211991469618 -1.1763791979806386 0.6811772729178075 1.0615159355811397
Ni 8.90542440563083 0.29891573840804575 4.499127851517361 -1.391162985426875 2.4976436586441633 -0.9074032407627147
P 1.7778112988016261 1.200898087270237 1.690194721540568 1.3513538238497371 0.7581774417229458 0.3701259837963884
P 7.542164800461499 8.119337820113884 7.7408873927800235 -0.3050796449190165 0.9729157206432277 -0.5217552500713272
P 7.5497734668620735 5.0914040739748865 4.022179526083476 -0.3773358712812663 0.6754095171960949 -1.6105747585634262
P 4.838471589324558 7.18542969261211 5.852565781826927 -0.7357666781279134 -0.09864114411368173 1.409557685883979
P 7.3971547535003 7.308569463102388 -0.024185352406217386 0.12821165868194692 -1.4619657671720498 -0.07525361842767685
P 8.072340386798137 2.415733024459576 13.310705852300128 -0.24738588975197395 -1.2332484003638566 0.4567747314348843
P 5.084639783967547 3.436992353784534 1.0225472352961777 -0.09147136583811988 0.2947643790359375 0.6884509237610852
P 6.655291221721328 0.6778013443445721 3.3433417329133612 0.14970196734523894 1.2603539983313972 0.9509315030626526
