# total energy = -340869.03645491885 ev
CRYSTAL
PRIMVEC
9.24836876782669 0.00000000000000 0.00000000000000

0.00000000000000 9.24836876782669 0.00000000000000

0.00000000000000 0.00000000000000 13.53592253115254

PRIMCOORD
 96 1
Ni 4.324564942604221 2.1974308964926403 5.924930405107802 -1.2191592692606423 0.08695548024563733 -0.4659509986175137
Ni 5.088415457473694 7.423850511496419 8.386681528315448 -0.5653513894947231 0.40112423195011565 -1.9473959575600976
Ni 3.9215210352753713 8.742973082263646 13.04062989617642 1.5224787369554424 -0.8741172250160751 -0.8277808038433809
Ni 4.128175833560436 8.194322858344952 3.997659155318407 -0.49741795887754325 0.6990487538815897 0.9096863803699365
Ni 2.682997997605228 3.842613953647796 10.040446146774194 -0.0927170653197629 -0.5453268667436801 0.33758661640778637
Ni 5.984600879868832 6.967230804370506 12.648115256596396 1.5174113497348642 0.04493208462600004 0.521842667578811
Ni 5.075236532096374 2.540425145944339 8.04648306071748 -0.8924211655315858 1.0472278010932417 1.2942953882738484
Ni 4.9796823868342885 6.818359813634561 5.8455553560247235 0.9294455652747348 -0.004793050513269164 0.06422641407923778
Ni 2.1745411839951894 8.367396829931737 11.296498542451475 -0.4085012411404771 -0.13543697278579256 1.273265821297059
Ni 6.114475721324065 0.6880296138723622 4.479632340359678 -1.2641936837924614 -0.915677307846049 -1.8341360350919769
Ni 4.2087568699201485 0.2568197997107913 10.636257501969453 1.4137871505842943 1.075831066652231 1.1843958976375282
Ni 1.2371265339985817 7.718337067190895 7.612169494024941 -1.0868991515409345 0.906857909782206 1.3786465981274194
Ni 6.523660545460312 1.8642954080600456 2.389388187262171 -0.08122963350545366 0.38579300090968394 -0.09732756750858076
Ni 5.038474266570165 7.28563364148656 10.616847025771614 1.189893173306673 -0.033755242073574124 1.782546335940143
Ni 7.749790769091431 8.628737232256167 3.3494372947805 1.0812638076320282 0.09974080493576372 0.2706176065864049
Ni 1.2468188243813405 4.828342081659224 6.253934647248433 0.6795176258271974 2.0237932026739145 0.7865997016193808
Ni 1.7916217269267252 4.030096883647118 12.012142860382882 0.4242111956765662 1.0795128863791925 0.9670919148725989
Ni 8.996785312477803 2.9200151902859015 11.88088538780912 -0.5273018909211693 -0.727783917032753 0.001952495740680508
Ni 6.042782367271444 5.266224593827628 8.30113411797144 -1.0695997410305387 -0.48262126018434304 -1.2247722445720455
Ni 2.0352884966925164 3.462635477821428 7.920260400056284 0.3146675457177677 -1.3595319887851554 -0.8887617144021275
Ni 1.716016312919994 0.2887248220031975 9.319157549433818 -0.6212471722210785 -0.28826308758231 -0.3580711095143833
Ni 8.000144109417084 3.355113943479868 0.8229457410982454 -0.6160782264256293 0.30225940186140204 -0.5982090594546923
Ni 7.959599261098368 5.893596932000181 0.7460048626532791 -0.8779911061491846 -2.6475374302852344 0.5243456365063228
Ni 8.606781604995986 3.7055993715670956 5.550824643396942 -3.0426115993865275 -1.5081288959916737 -1.6604158504552695
P 7.566451108263365 5.238507232876169 6.791838266754182 -1.593117225208611 -0.6191021008536176 -1.1556329665722227
P 6.366049846316249 2.8095619230709303 4.52932290047182 -0.2542206532856202 1.4078170490437882 -1.98942166717258
P 5.654480359627822 5.075893166273069 10.380089712251014 -0.9532100146841842 0.06736418837727108 0.6832971474742877
P 0.626614896777182 4.556116349391564 4.267456265969167 1.4113068073646016 0.8428585241121097 -2.825629518737392
P 7.079542993691331 6.835071615849872 2.673479576553763 1.8952647840824974 -2.539703821039007 -0.7550795195239125
P 9.196883017364609 4.836129208092701 12.761573318797398 -0.42847357049734597 1.0804901626907972 0.8604836933930406
P 6.824398998386414 1.6636243043147179 8.812724278892242 1.579670869895718 -0.18932138150907393 0.029995517920825762
P 3.477830547572261 5.124086415494974 2.465284000045637 -1.104327631430027 0.8910533386497815 -0.9916706326532276
Ni 8.318103024836217 7.903470911544012 0.3675264722277545 0.6517129449101035 3.2270856801056294 0.4634485439106341
Ni 7.570945815444683 3.84696068693014 9.764191825106982 -0.5708381236409072 -0.7474402578110999 -0.12098608746778519
Ni 2.1246739800411474 2.9759215789917963 5.174512220917641 0.4529823542719876 -0.9802762747733569 2.6223143940523865
Ni 5.1128126540669365 6.310078719029553 2.900923782807725 -0.38641289388187 0.008152968124437571 1.1476959711133332
Ni 7.457893756628992 7.408516716215299 7.4992126934067125 0.39457871752211404 -0.956822671736107 -0.9533128588106357
Ni 1.3745018024580293 5.865509636301289 0.7158052395465415 0.4218018149041252 0.7687019954033536 -0.43374407486766586
Ni 5.603984266603143 4.407495064610136 5.864952884506401 1.4793297123717941 0.3000351405165736 -0.1083912815219101
Ni 8.424070833238558 1.572638853183437 4.055971044719488 -1.8561259090995066 1.2703177944123283 0.2676454113319584
Ni 3.8618228154082828 1.6721050583996317 3.717451156037998 -0.7533707643629219 -1.1924082264190432 0.2089730943017304
Ni 2.3171695258681937 1.0124651618821887 1.929396524913401 -0.8421090475405948 0.9517149181958964 -0.4473737498359585
Ni 4.267114076327791 1.8060769271826909 0.7831657328698476 2.3597011458276973 0.8055726431774578 0.8467252061563676
Ni 6.127173731529722 8.16110271802542 1.3095505091773842 -0.8134160504812765 0.0827751236157026 -0.13868710429197406
Ni 4.021828842041978 4.995108665802268 11.98442180008395 0.6781647113437288 1.0736841955125573 0.12639517429849847
Ni 7.413658809204625 6.383667988662771 9.943299432424407 0.87328675869498 0.17968334419867765 0.8777005714919593
Ni 4.3959346037528375 2.722377551469529 11.64739089876088 -0.1856660441446738 -0.5785807437008036 1.0083732901198892
Ni 1.3624326813230099 1.0212881056084788 4.103847999732338 1.148129973326958 -0.845408544227473 0.3550688323529498
Ni 6.808667523251803 8.645328805678561 9.385361996671396 0.12656615265872395 2.14757125106454 1.3107067397523362
Ni 3.466935969260343 8.198123937874833 1.7028734561805488 -0.7731708298079846 -0.4992992350606562 0.7978973860203872
Ni 3.719462676227168 0.3049982515427992 7.816968144714758 1.444522631994938 -0.681894096479174 3.638747321251959
Ni 1.037038077480462 7.8386305986875975 3.3775107179263633 0.46399541755303964 -0.08631733244100617 -0.06319822992503954
Ni 3.047087776029325 3.947296238802804 0.7830797230410692 2.881832805401837 1.1230030963523434 -0.8276975001009551
Ni 8.772281162629069 9.125809304013938 11.04731604560145 -0.8829589916774213 -0.44641909923217316 0.6049996000139646
Ni 1.0970322451454975 5.996244576044304 10.25473362373568 -0.017979210186240005 -0.35213880319034835 -0.8550458102069209
Ni 3.6028499954674285 5.790301902148048 9.562791025072341 0.15687380250332983 0.11971956205053576 -0.6286738037024528
P 0.013733827498470429 2.9702985708308063 2.523582941730558 0.5653390481995489 0.6711178317992764 -0.172000116621807
P 2.7164863406166497 1.1975157709171345 13.179562589922563 -2.5423062916588606 0.6620328387788728 -1.6028527073288201
P 1.2447934316391418 8.483251144459238 1.24486649375176 -1.3621889667920284 -0.9707230838672831 0.3826354291173088
P 2.800581757076981 6.704965565177493 12.600360380050201 -0.5645317218069051 -0.029153738745820758 -0.011405927844096485
P 3.294823828016886 7.991145446685763 9.537993374115002 -1.1089365909569482 -1.5101919491682894 -2.443054767654689
P 6.958500344331075 8.121427216363173 5.424385570908498 0.8779949628039267 -1.0259076994592267 -0.47248468597097343
P 1.5105915476701455 6.946976876948519 5.645318925607629 0.3938061010221476 -0.36851081679046854 -1.2893894663317989
P 3.429655795087727 0.2165801475587072 5.742276973236225 0.026524785763405934 -0.1265664097690401 -1.6474178955337047
Ni 9.034814604513972 5.343124779450377 8.165964585443566 1.135420753290406 0.721255628995932 1.3050407997158104
Ni 8.498520201159558 2.8919371429556953 7.509269369515693 0.5380560441138799 -0.8390373505938067 3.120839727061496
Ni 8.495440494387173 6.106457385673444 5.033264660489433 -0.018768795967070904 1.3659823723961895 -0.6689897297126801
Ni 6.948003445872648 4.57603733554086 12.027885433559918 0.3203586825652741 -0.15490279481988806 0.9963734374455355
Ni 6.916910430350858 0.9605725651859478 0.1750300015638398 0.10246283185261708 -0.6739972102296005 -0.1482397809774157
Ni 7.258323208757279 4.554331414235197 3.3043219026572417 0.12050863361073438 0.05601199658924547 -0.42161181038050616
Ni 5.685203440402177 4.677528933499254 0.8558320153082192 1.3752457999759864 -0.0030583272103495715 0.40735427202022745
Ni 8.719066049210754 1.0768153111982541 1.8491697010743562 1.263094794301328 -1.7782420521378342 -1.6150304803419349
Ni 8.912736137860902 1.6905463055591943 9.821719452843503 -0.4082245904403228 1.1300173228866475 -1.4411287758220406
Ni 0.36792785142871987 7.22658280742748 12.128917387594626 -0.18368860870332882 -1.6312754814458874 0.9728252178119504
Ni 5.527213558141995 9.037431892852064 6.592224251549645 0.015311176435773632 -0.386278939407167 0.6431979654605567
Ni 6.496988250170354 1.858302465151622 6.368245409042267 2.930358006695734 0.8777455657972819 2.2144602995776057
Ni 4.794308084895339 3.501793070837269 2.725173333323258 0.6268560337674237 0.22804090956645887 0.7250323224295449
Ni 8.43771217705017 0.3942200387656907 7.6075406854976775 -0.33071482898861754 -0.3040494038822893 1.2024604684487226
Ni 0.4509689538588653 0.5295144242708246 13.090482302740565 0.8306352425730404 0.4680407912670068 0.758485716991984
Ni 4.3334526249113114 6.379552464597574 0.5889638630202642 -1.9637039506915017 0.15484674477097202 -0.08614969651489034
Ni 1.839907459835489 1.0021994726409078 7.123752970520245 -2.897658459580184 1.2529345659388744 -2.191537886453477
Ni 1.7713770478734243 1.6412432520949884 11.217151238474454 0.5625933671336116 0.5291469145497081 0.8240802150633421
Ni 3.4050643827520823 5.3526136057220475 4.647964673321233 -0.569557714266587 0.2036480825443912 0.5924590443447926
Ni 2.230114631428394 3.47180985955778 3.1006876215849717 -0.9540847039796536 0.14274661907332836 -2.171250854069667
Ni 1.200530739108718 3.0314025427381424 0.4804157597545757 -2.6946217853675467 -1.865369796295278 0.6218832631431807
Ni 2.9611519342005117 6.218464378827636 7.27944278348826 1.1603835938833307 -0.5481489095735076 -0.40611320052427474
Ni 9.214667630347476 8.51562968322836 5.479626077069013 -0.569734091943451 -0.5725985579754396 -0.354797323859118
Ni 6.810138013872851 1.8766697253616975 11.519056835528708 -0.09090263781884345 0.13506544837898676 -1.395221728877281
P 3.725446370766906 2.044176178999608 9.719523129191249 -0.5514597191142955 0.40832306369140003 -1.3898283257758517
P 9.021820646510369 7.865876292836078 9.376712922276399 0.4230099762796134 -0.792484699645248 -0.8527922382860539
P 9.250588294323274 1.3511496715262867 5.928828592508883 1.1024301572969983 1.928867302628291 1.0214010698381248
P 3.684096914372521 4.187985033851755 6.679991270378254 -0.8072754848011774 0.5319558447534128 -0.016087392480165844
P 5.968684437360505 2.932666958648129 13.34001716243752 0.07930310590670214 -1.1169689743431215 -0.8239097509237489
P 0.4937380348465263 3.6822842341100963 9.424968135568498 0.3750625018660573 0.2009427677980862 0.8559305268047194
P 4.958559112755834 0.38199739471048627 2.3712364140424746 -0.33837183131324305 -0.3096248410875377 0.3920127565671507
P 6.330314149714168 9.01285897725379 11.818417281520622 -0.08230435462687115 -0.9242028288185568 -0.36538024158128685
