# total energy = -340870.6443402167 ev
CRYSTAL
PRIMVEC
9.23525697328536 0.00000000000000 0.00000000000000
0.00000000000000 9.23525697328536 0.00000000000000
0.00000000000000 0.00000000000000 13.51673209448372
PRIMCOORD
 96 1
Ni 5.679017952291831 7.2263667473875035 -0.16013565764700816 0.6663234957344266 0.9316806252528407 -0.5873803442703046
Ni 2.3143461020255716 0.4126368119831434 6.518565589064597 -0.8225013006119963 0.8883963606429087 -2.2867527784944293
Ni 3.086182683483547 6.793159324557343 6.146815105689658 1.0377715407763484 -0.6100448757473559 0.33878655025315846
Ni 4.287504879308296 5.9107582494922495 0.8882737748215889 1.864784356105453 -1.1824549718610733 -0.9012189663288737
Ni 6.201668836580808 0.9641330971518784 2.7658476449180727 -0.3874577902066166 -0.23066780566634468 0.13724908629386684
Ni 1.8227441508728406 4.625820039207189 11.138841703654984 0.7701271578856542 -0.9537473752448931 -1.189698540797364
Ni 1.6606007484120848 2.1924407131503663 3.7107889550531663 -0.22548857545825035 -1.1251995897830298 0.4382051959628131
Ni 9.016344207371768 3.7146234336486956 3.9497244407742413 -0.5628790166948306 0.5483206592646815 0.1490856739174787
Ni 7.786956066335521 2.4122952349354523 12.45866886682586 0.017248245557486424 -0.17329183885003704 -1.1998507987400175
Ni 6.740906241962198 7.848509052460766 4.560531391733457 -0.12070917965731469 0.41783974493258363 0.6349943466038419
Ni 8.185522041160311 8.452531783823943 2.196509767266913 -1.3611726097123718 0.3382134513585079 -0.06828001532332112
Ni 7.1091805747028465 8.855179742124704 12.300576971493857 0.014389693062768764 -1.1125592753112001 -0.757244131275399
Ni 4.112903115514763 7.2717672694867845 4.019361970643529 0.440990214907118 0.5239789971955234 0.058964394349350066
Ni 8.367410422516157 7.56776648303521 10.858071428459228 0.686446748846863 -0.6379169195672756 -0.797989174403245
Ni 4.443903952081144 2.2009740903716306 5.746016969312509 0.21363553277440628 0.2661968518108899 -0.052835655743792884
Ni 0.9795467406392054 2.8744459523667416 9.879595054075374 -1.739914103091913 -0.9203279192441827 -0.016584386721242406
Ni 6.421597240419757 3.909653585335558 11.420935391140576 -1.1270068181950976 0.5172445066851673 -0.6285084817691821
Ni 2.747618171652863 1.5000458101093996 1.067203179920191 0.5973199719815196 -0.05475626980527344 0.9977772597715977
Ni 2.9905423647569083 0.22761121391510752 10.829402420983069 -0.8901701647138798 0.08805539817803544 0.9792421770818879
Ni 0.5005185915284135 0.9437139445152816 1.679264278743744 0.7742905452347246 -0.5407644441839784 1.7140148667276482
Ni 6.883064548852807 5.43498552837983 4.758295179413278 -0.4663911714787258 -0.9997009591568718 0.15475495638811412
Ni 6.734681678924177 8.244018157306945 7.615570018936409 1.0676865831682258 1.6558372299456516 0.1420562778745231
Ni 3.744915075732837 4.787972676924679 4.423107077444169 0.41410264648765455 0.7669760138511823 1.573256481728942
Ni 3.4717454168283153 3.3919989749391184 2.6882077650896665 0.6916131235391509 -0.17601000911214848 -0.8975492307867703
P 2.5541949546375373 0.24911920332052157 3.2357024135160057 0.01277915404253928 -0.4233182515486516 -1.256486287845875
P 1.3344114806035814 3.634212053274725 2.156000237133413 0.5949136765328722 0.2000822195700038 0.37205662516019794
P 4.0850311106946595 3.102445970590307 8.231352002697676 0.5878778527320134 -0.613510208588137 0.9509605565283752
P 8.609678912392162 4.272876232643272 13.05007993159449 0.02529502712136289 0.4330622183092929 0.4006920295087035
P 8.196641290266808 1.6800132580647877 3.461351135375357 0.17623009554275457 0.4546232323095203 -0.41625645960586377
P 2.3981191158503434 2.6465105809403067 5.7343380636479955 -1.1401986342950234 0.6914262043393253 0.4733303218007203
P 1.9156323630930538 2.27090345435368 11.871164315655273 -0.5495763860486536 -0.7846130102066552 0.560768398109731
P 4.800421803000721 2.386796691095722 1.3052382281098018 0.772307967587057 -0.6929305567989937 0.16090992024591644
Ni 0.37786607038351105 5.44810882819738 1.5662644479361418 -0.03168473269779059 -0.3432196463238476 -2.397741902650503
Ni 0.8773226073876329 2.807896692348959 0.21578362061719272 -0.7045676268172898 -0.018691148651600067 -0.7334308309058852
Ni 4.077578258511153 2.3264258178322965 12.693697838948887 -0.1860195708293506 0.29970809619445804 0.6088999635096352
Ni 3.0473391936646745 6.820846624242787 11.499049039639383 1.5588655031145928 -0.01577423211512122 1.6791525076328242
Ni 2.0963016905601477 6.784635182592812 9.3484015573084 1.3424441800649332 0.37226102786152016 -2.1509427386399342
Ni 6.134251462430125 3.013769035440328 4.071239178289642 0.6842636251526152 0.5192209136852478 0.13297488439854518
Ni 9.617319304013062 1.6958886643887634 5.90373021911846 -0.22644939670962289 0.40431214275979405 -1.2180493240259151
Ni 7.514118876673385 0.2818055474755226 10.114705296457652 -1.5315120508023046 1.5471770110330707 -1.8091551967769228
Ni 4.444864418781374 0.9708009525130828 9.143555251240063 0.02326051318983736 0.441270208041382 -1.2162503231439632
Ni 8.660712941098554 4.695897167296966 10.651333741811978 -0.18577608735997683 0.3832285826166174 2.1263465373578088
Ni 5.717935324164567 1.563593611688967 11.195192469662548 0.3074111212656706 -0.16031753807755614 -0.4138591630182808
Ni 7.39298924936375 4.787298503183171 2.1528777968319956 -0.2958329295097679 0.3212130601457694 0.4489675766856397
Ni 2.0820239836509757 1.3509980016959955 8.629351856284735 0.35013437116580987 -0.42511519554807425 -0.06034584807790898
Ni 2.3664698910264548 4.623418872456617 -0.18348423371930317 0.804707209853369 0.73555173390363 1.2326907280881738
Ni 2.696131615366555 5.724797119917164 2.1945897573921282 -1.8437429620541212 -0.7352964233597143 3.1426419105382526
Ni 3.361245570018328 2.68778294327995 10.431145827258833 1.4520410518591702 0.26081141912926054 -0.9550501532167165
Ni 8.282880117639282 4.072822101293673 8.619268802983678 -1.5123357349841695 -0.8671351372712873 -2.098527972483644
Ni 7.651936612899498 5.997311075593646 12.351170478454087 -2.0864869821587098 0.327920554072932 1.6088955710887904
Ni 5.984778832207004 4.792063895657384 9.287332498635962 -0.39017698890999253 -0.7104474826368344 -0.3570357262713335
Ni 8.669024672158228 6.679445608404282 5.928992340385826 -2.126199213146667 0.6839332383963899 -0.6576362523730739
Ni 9.052943529804526 6.473074561449333 3.4969539736066304 -1.1189086145679956 0.08397865700550053 1.1697560362371662
Ni 0.4963654965755968 4.285657827961702 6.815081976990067 -0.06724231808742613 -0.08499218587167943 -1.500049461417649
Ni 6.304808183774617 2.395440891397782 8.35711126420755 -0.16960410558580466 0.12743801374071598 -0.039909691710744176
Ni 6.704602447744893 1.3326844875945156 6.134433396987766 1.3844220671586158 -0.3442730272890264 -0.09684651410710418
P 4.051488658240512 4.738831875848544 11.720074591978209 0.33511990003484865 -1.3415831176162185 0.5414393587638159
P 1.0675864430746094 4.864385191133273 8.976691709063086 1.4003914460036786 -0.9060438985213428 -0.5986523176396981
P 6.822832204440376 6.820486449230202 9.470065905982874 -0.34773193237190436 0.8841825796718773 0.4123041598263351
P 2.92898014337493 8.417382396698258 7.992294611587726 1.235384472870253 -0.784170780462914 1.6534679583825265
P 7.348863192693619 6.784810652470738 1.1687512923789103 0.5194170888564539 -0.8281322736455285 -0.40349144663071157
P 8.545937170421201 -0.2876136004348875 6.558223628527317 0.7240740722813336 0.42310639264816163 0.21075409746155316
P 2.104613421619821 6.9618505240417745 0.5031303221324974 0.11496045009899558 -1.5080473920214608 -1.3195752458865597
P 8.479129323214897 0.6964307102332745 0.03929786445013432 0.1354320876897861 -0.8362484749947597 0.8236919784859879
Ni 5.149708447898384 8.520614096459399 10.51807175773224 1.069870221083106 -0.8782847261302035 0.5929352126502627
Ni 1.1266089688550212 7.341945985400624 7.081591168738772 1.3309120110556176 1.947528369372904 0.2735265527030838
Ni 1.85225079613468 8.068825337082501 4.6944010557062255 0.024120290086971363 -0.9050661079891057 -0.413631620388507
Ni 7.854059441757282 2.512156065989058 1.3176605719413201 -0.35200073495058737 0.2048966102395116 1.2125520483567698
Ni 0.6955764489854747 6.228026259296704 12.100502522579445 1.0373388241143038 0.15938242785779647 1.1476244944454492
Ni 1.8604794098837565 8.873936548549368 13.046768168530047 0.8967447326076039 0.5746798659845007 -0.19411931711834954
Ni 9.350974499834205 0.7528276525245029 11.559657259000845 1.626343848472225 -0.1992484108147988 -0.7106382584914018
Ni 5.750489604148287 7.638305373961634 2.3719297748069867 0.5130060431237875 -0.4204836103133339 -0.30970094574111173
Ni 5.172168592272968 4.367879318655334 6.759420161134783 1.576251559801524 -0.5735645214331347 -0.1716656161005237
Ni 6.249184232471938 0.9900010512609276 0.26628385148441974 -2.365380712710978 0.5057041101457356 0.7986049536103731
Ni 9.121441428992966 7.676391572728403 0.12215012317862889 -1.0355894455233647 0.7329333224441764 0.4987670167062701
Ni 4.6607847211982145 9.358178000085921 6.87766469424104 0.3123298987235266 -1.094045789888045 -0.17748582232672658
Ni 3.745081310354031 8.328003582036574 1.3004174240951916 -0.6412364708588117 0.5920438111842449 0.23601081514581287
Ni 7.050028755328173 5.9483457443954375 7.512491624437037 0.08226321697629058 -1.3848077326328085 -1.7021489685279974
Ni 0.18378992071716446 8.821184762090644 8.918866996080942 0.8648216586467622 0.5550862601232892 -0.5304769462150413
Ni 9.131452447291506 9.05395017278842 4.173493787888433 -0.8561179602251772 0.7970733474571949 1.150546810298567
Ni 5.456808440039838 6.241703674518233 11.17310635318565 0.4913560689541796 0.08148442982873709 0.015761376599314793
Ni 1.3682402260164508 7.771283835659671 2.2888290876723754 -0.24912318415805482 1.5605881422326544 0.39157181237499017
Ni 3.5502728048287597 4.949026319090944 9.536040733031864 1.258371934904362 -0.055587507457317165 -0.11564976285653632
Ni 4.89292213443815 6.872083828597305 8.158874631383 -1.9256230846593803 0.06817511431434066 0.16385589024811784
Ni 8.789480125726357 1.7752287549817096 7.998512709946034 -0.4667076742778801 -0.717390746723887 0.9308763841839904
Ni 5.842001763115288 3.970569338746228 0.173810302291517 0.16991520906832028 0.21338742131934219 0.7645720323953801
Ni 2.8935167575203247 4.64597136939853 7.2911409910612095 -1.2641633447751583 -0.40663976245170613 -0.6313271821648998
Ni 9.080427653841847 6.541904929880159 8.69398849463312 -2.6283253761331578 -0.7535803092705666 0.3640784920507278
P 5.17684163217985 6.365483820510231 5.977436803104293 1.0107585025226142 0.7101595190827704 -0.9258668467845409
P 1.114085960725114 5.759964977556314 5.06566576457701 1.4734184890936817 -0.3860717084923674 0.3567791301758371
P 4.406593514879945 8.932885192275915 12.771406059677119 0.12356104728381302 0.9259203257302957 -1.086221922968252
P 5.378807461673173 4.987223340938507 2.859639988772444 -1.2943712358171062 0.010869852834968377 0.25515344951253477
P 7.417758207921576 3.520590689688994 6.310691965839193 0.16289841143085496 0.20839742430391853 0.20821821841357688
P 7.7747562921912685 2.4730262832114636 10.094389578696465 -0.18747147278452875 0.014510277801033073 0.24692643361705213
P 5.278651102404112 0.30611551377371976 4.720150798529093 -0.19858429486823864 0.1114678635647048 -0.29347291391802366
P 1.359198909674873 7.920276232532677 10.887037811202187 -2.140313283950546 2.4045380996367296 0.7081424886527418
