# total energy = -340888.92228213436 ev
CRYSTAL
PRIMVEC
9.12340923461257 0.00000000000000 0.00000000000000

0.00000000000000 9.12340923461257 0.00000000000000

0.00000000000000 0.00000000000000 13.35303162319291

PRIMCOORD
 96 1
Ni 6.4161288306721485 1.515617248054176 11.630557768454475 -0.0853714235879691 1.0909375832763664 -1.5366306029757923
Ni 4.624628808522055 0.3896836201121692 6.152610100871835 -0.3618490884995768 0.2560080842033462 -1.114390672092984
Ni 2.739951407098783 1.691680800899939 4.693016060020721 -0.10871266941707085 -0.35002149973702945 1.52582142817543
Ni 3.554845203172505 4.6055152660196255 5.35543396567626 -0.5553521121901661 0.3958146468117441 -0.5009234009276406
Ni 5.243506155591153 4.8076079056240655 2.747386073344716 0.114123556019997 -1.2738363490885483 -0.48207438654193746
Ni 7.366140318612683 6.320916931123056 2.464809453838759 -0.17381094457830068 -0.3416710708898051 0.18986671248958267
Ni 5.0553723322295365 4.8414283839326595 11.580670054011739 0.23761441218750692 0.9852297621238904 -0.33119253995598447
Ni 5.899132595357046 8.329763933242297 12.376644636201316 -0.8661756015714954 -0.8015848621743034 0.02989344512532271
Ni 1.800568691003275 6.409651210062734 0.2900213215021297 -0.6013144378528935 -0.0861412118744581 0.12067266999242444
Ni 2.69071236705792 1.7945563642686209 0.5280547197385836 0.39683640320803915 -0.9115139204969784 -1.0105898381552336
Ni 0.7189283029157034 8.999121104018288 4.502375123780982 -0.5440022343949857 0.3749468022237994 0.04475802094198098
Ni 8.825557365323201 2.4819048982020293 1.3809840092216736 -1.012824126802391 -1.3917147441652868 0.5302406618345191
Ni 7.038828886241733 0.28457647082649745 4.85076893038325 -0.031232989872352658 3.2552667705255356 -0.013243495273467513
Ni 0.6983604889694143 7.227309399157092 2.1891629760439453 -0.47721371601552653 -0.7668171196758148 1.4717920092338523
Ni 7.666555940340596 4.127503358682031 4.004828172430881 -0.357186650026901 0.04698536761060295 -0.8195003090021434
Ni 7.599927682156712 3.58108412834529 12.844521348137501 0.09807601563883109 0.4221324587706666 -0.8088124902709942
Ni 7.875773962615393 8.993856896846975 7.157104764524066 -1.2488837929082683 -1.0894180613080464 -1.7142431806883702
Ni 6.7679731106750936 0.938068945155007 0.4645037875146366 0.8078737805068086 -0.5377554821543254 1.0381849741646831
Ni 2.0621733295305527 6.012746411482463 9.480425649775515 -0.24951244917667348 0.21108679821062357 -0.8471607510318894
Ni -0.04707770437555293 4.820380678656715 1.6924964336921666 0.7179998410627957 0.3079734215270438 -0.24348912580072904
Ni 6.620301607599049 1.8603726390240014 7.201129776144816 -0.279377355056906 1.2602745512437135 -1.2867983085658548
Ni 3.4415415829635956 4.392419794788489 0.8856449229243596 -0.0244884720596675 -0.012382947045385125 -1.0871845439918373
Ni 5.9368761396685255 5.6250380094857 5.2196329304522004 0.3494085487433789 1.6081900603813335 -1.2598269221833336
Ni 5.907799834200629 2.858209038562498 9.19571232780938 -0.7960245944777065 -0.009585586805906073 0.5812441494655797
P 0.21088304447369588 5.443126351272845 12.316088919253525 -0.33176898128474475 -0.7942644172534902 0.9365297258150258
P 3.824533182347588 6.173482636689046 12.873390552214083 0.9915477339221181 0.3410820311555545 -0.37261969675251955
P 2.309837398633624 8.447273445142672 1.6165048205344192 0.8976068234975831 0.7154199961507614 -0.32531705501181396
P 6.089008989896689 7.8161068657343025 5.891050167050172 0.9177527023178389 -1.000627327625883 0.44655819591319873
P 4.426778554246315 1.0989420215012262 12.676580366599573 0.9264065213380948 -0.17909173336126574 0.231158372149518
P 4.038303785867593 6.009279515945029 8.248862101194426 -0.2335271294920107 0.8128468082413677 0.29507342563592404
P 4.8094325874858725 1.2432834801794732 3.804092183790694 0.6358021872171179 -0.9251495090025422 0.6567214538682883
P 0.08898517269567556 5.747665754008442 3.8369665645539413 0.7577755782988369 -0.12920718982599685 -0.6268128392343141
Ni 1.5616266011996411 1.243192246086383 2.6051493851940632 -0.8196669164869949 -0.8763386581474262 0.06586163568981561
Ni 1.8878523478628155 6.837256280967907 4.683268609514948 0.003194081457265467 -1.4297992097418344 0.00030878948967043594
Ni 6.201299911672295 5.562068238434738 9.147347310380324 -1.225654647176999 -0.0993019176261322 0.864353717871408
Ni 8.596459434164016 2.503527378264443 10.2733420651647 -0.4810148349291716 -1.3041229158872314 -0.13052436597552358
Ni 2.1095147004351364 5.728451854003614 7.017699070282007 0.7211219316315451 -0.38752206778564874 0.6477495893869811
Ni -0.0022918004184296612 8.976157482787446 9.019919740220097 2.9955357289446476 0.7433200649951391 1.455001677149391
Ni 1.6155733204439666 1.3246369209881406 11.471509373970063 -0.02490421944084743 -0.6919332258827309 0.07924962696094738
Ni 3.883269691479157 6.687002853057406 1.6975042730618963 0.3583580446271828 1.2600935455811588 0.24698454054849725
Ni 5.559988101112277 7.8766224396811335 8.039739874717375 -0.5784208210841716 -0.5082880688228278 -0.11258680766049642
Ni 5.433355179902868 3.3270701663631304 4.7919493982269685 0.021113899160479767 -1.9602774415084563 0.038984094572681253
Ni 0.46161987783205055 7.581963689227221 6.7000839973247 1.1609896028984454 -0.3021537295214732 0.3812832859647885
Ni 5.303246239746716 4.511690124685507 7.163367072673788 0.23641833499687673 -0.7025408261952482 0.5556493317156107
Ni 7.9880283907537635 7.06438355571634 9.372826897407544 0.9030447066837028 -0.026832546811811856 -0.08355802452831416
Ni 4.362294297250054 0.22292959412534605 10.597927422834111 0.141728205111143 0.589232824098011 -0.6923386888512657
Ni 8.055213176905498 7.365830122696176 4.721124371760928 0.5208358235808515 -0.9293072399246576 -0.19897510254875408
Ni 7.554611708118733 6.321975246602904 6.914400180721386 -0.5455757495296927 -0.481681264868577 0.7337529901319944
Ni 2.5118570509635925 5.0177838858763115 2.9678049052282156 -0.36797114223691463 0.7429038033933271 0.6557223231798127
Ni 2.392221784694213 4.992767497550936 11.764621706546095 0.08476644301411852 -0.13744654701665363 -0.9649990368993123
Ni 0.8596468557573326 3.475179593086009 3.9071374425725245 0.26827636004773797 -0.809350107942019 -0.3633251588244711
Ni 3.574059103177333 2.585081534077909 2.7105986623288243 1.6396189683145763 1.3934026733906713 -0.6488024561315279
Ni 1.1559359594547696 3.42807543082346 8.090028106828777 0.4713991662162784 0.2679981666856868 0.5506603631414516
Ni 3.487377591332189 2.9240891771830424 7.175305053754661 1.103179890978829 -0.12856724224915278 -0.17517774301884026
Ni 3.96617411187036 6.9554135549292235 6.279023147916897 0.6839316957344931 0.8046521882457175 -1.1387896697626387
Ni 0.9493637258795927 7.222127302669561 11.322970234668729 -0.40984207143908774 0.42365506606278003 -0.058988562719066155
P 0.28644312037112607 5.796348266081455 8.183646146771581 -0.028672942454660295 0.4545219308449656 -0.8556533618839329
P 8.821241992720028 1.6538825161326058 7.915076697577786 -1.1377298610395568 1.141181309923267 2.0015284777384434
P 2.144502975135287 3.230818198152808 10.546718638723426 -1.7659493508134103 0.31300918417873835 -0.5663191527246312
P 4.248771715217728 6.238423064150759 3.912999233053579 -1.526024545325172 1.007419153736736 0.6429092305755444
P 6.902543397983364 4.030138334536007 10.683774142727477 0.7524371968050589 0.20061340948312545 -0.0010335834708369296
P 6.082120815868366 7.6762632478454105 10.186333935266292 -0.21199414051624138 0.2690096386693367 1.1438100057953655
P 2.3150377419397743 8.608967628326704 5.93813334547131 0.9917143414069695 -0.19866194218370947 -0.09240339073408603
P 6.955878848803985 4.006672925793168 1.6262787289271887 0.42784673554662445 -0.2589905638704378 -0.10749602340115036
Ni 5.266378542728905 2.95172398398011 0.29245818412857305 -0.030549333541766744 -0.08026649826123596 0.12184097926891274
Ni 1.5762605497313338 1.1760986940277374 7.036647479075942 0.4279809471316436 -0.16240630228578481 -0.5275536019206591
Ni 6.781758582141046 0.4477623314325569 9.181317412601585 -0.48600148951048566 0.46368328562925953 1.5645041894576086
Ni 2.7407907607552144 1.6964797141964916 9.100344417961104 -0.2807528952481939 -0.5848994868299797 1.4953276304619472
Ni 6.572786891917594 2.0393556828486554 2.7016121041594245 -0.0473455791634991 0.01601385892975307 0.16584155321957889
Ni 3.8835251469398098 6.983376804461416 10.515072268853176 0.9084301393653322 -0.14729798588943663 0.2827596412655775
Ni 8.196251961413875 7.010363849197543 0.14372927791361084 0.7826849399460069 0.42412274972781794 0.4631186713750411
Ni 7.9667252300171665 4.066577231316294 8.204983976463552 -1.0757117674655474 -0.8678614739143504 -0.706297465024203
Ni 3.017677109875126 8.356550262973625 12.652478143886963 0.5523742605087648 0.3177181596186335 -0.016626552813087496
Ni 0.0406301910168577 4.766534316914789 10.054726018960665 0.45377682514882495 0.7083088390272769 2.4097330135741077
Ni 8.745581559320199 2.212362893575891 5.833152099234103 -0.02292498422728955 0.4182866026620151 -1.0196781736097473
Ni 4.133990102700755 2.8594863158657633 11.23164855684901 0.04314465370827409 -2.2424220748978545 0.9584818046060848
Ni 1.0540366008821545 3.285868849923527 12.888079241201629 -0.47346324783415883 1.037121308786859 -0.4359110006119976
Ni 3.169508887596091 8.59748125600663 8.099655128331673 -0.5518217304394045 -0.62318167023963 0.5115392287702738
Ni 5.922525016825412 7.9044762083016185 3.549689564571969 -1.680447572295164 -0.33699757667353575 -0.8533990186321174
Ni 3.306816197697072 8.59953402310116 3.8224384475702333 0.7167104328274109 -0.3410951437816771 -0.6267493329862303
Ni 3.7416835024122386 4.224512569865003 9.373200957189214 0.28631830515111334 -0.027809051792468235 -0.5405934658237529
Ni 7.162213873737126 6.257381508694935 11.561362182891028 0.22911614490850862 -0.9178699446219934 -0.8694694418314188
Ni 0.6703744309139485 8.907814023653463 0.18733461270614493 0.10598524318357876 0.6532139549356621 -0.3618557733677962
Ni 4.38862445651593 0.21212474048065558 1.5316999939841436 0.4950597430580119 -0.037801644228805865 0.10844218936450357
Ni 5.934768632118138 5.5255746011985964 0.3455619003527437 0.002712513835156619 0.8613678957702068 0.4856415350679056
Ni 8.25190475819899 8.84155982525125 11.45878404266582 -0.3398005933399696 -0.22235517203559124 -0.3056848826031832
Ni 0.29192081532027087 4.810290187960923 5.952301087787311 -1.4781534326755057 0.2125263588706275 -0.4471333516903783
Ni 8.409922207431482 9.07448958832023 2.2149074124321815 -1.313943244411763 -0.21110788125654614 0.2089216722385047
P 8.566133221620783 1.530324183860341 3.649971342674092 0.1942890099269944 0.7130396688440429 -0.08833976218767367
P 1.7373343410823516 3.318220459333366 1.7977449958221285 -0.6441027366630132 0.3781084877812327 -0.7336138934509688
P 4.622293215738941 1.2539578690710447 8.152266180453154 1.2026247619407289 -0.24831842886857236 0.6233778454108361
P 8.667019881760096 1.5694636097961026 12.415194689895714 -0.1411299094055118 0.2901590190534422 0.9050398827368608
P 6.4510258712792075 7.858667570160952 1.1824741324528913 -0.35075966345463466 0.7532740908840575 0.501174340596182
P 1.8471893125724452 3.281179417538683 5.908475878830429 -0.37427343030585863 0.09742166988428383 -0.17605088965241292
P 7.274970089387493 3.961721888127551 6.136132311318786 -1.3918816087604544 -0.10570859248342442 -0.16463159207187775
P 2.1611258268963494 8.664437956925639 10.232481964233257 0.4095700487246237 -0.04827683272851686 -0.5226991020418352
