# total energy = -340872.8710627247 ev
CRYSTAL
PRIMVEC
9.26077987166308 0.00000000000000 0.00000000000000
0.00000000000000 9.26077987166308 0.00000000000000
0.00000000000000 0.00000000000000 13.55408743615277
PRIMCOORD
 96 1
Ni 3.369469980481087 6.616077192594932 10.07472663239786 -1.0063372335264669 1.1476730882951975 0.6031548334957418
Ni 7.313802879963951 6.6280050772453425 1.5446916228023049 -0.789577296190466 -0.49430281028732936 -0.15152307971437773
Ni 8.711458320343914 9.26037253376304 12.516170143956906 0.577742049849592 0.25473590235914195 -4.041810422096001
Ni 1.8794289987404846 7.76036695273374 1.6773865613041294 -0.4329696585954866 -0.2664346788533089 0.20095613753452488
Ni 6.854662667943184 5.682053442539656 4.09879715354969 -0.6272918357532615 0.7763458851018565 -0.30786055009826335
Ni 2.486149000970068 8.87131790484345 9.374698715118832 0.28381533622360156 1.0946358580635598 -0.7578640242475851
Ni 1.3942104302169551 3.052575349384481 9.268366439066018 -0.504417273013512 -0.9679676326093329 1.116260121201555
Ni 4.709856757291061 0.9570367883753624 8.482717054144253 -2.398140680750818 0.23483684944236974 -0.3794516320726884
Ni 5.551143056345389 1.2583547874983718 10.489196545971636 0.7133667131661585 0.2998361371318901 1.7465820020303917
Ni 5.224932080560652 0.6224642543213262 4.37878387200208 0.5753969466561832 -0.24809551422448886 -0.7933992410397175
Ni 4.587540374944296 4.497784895105951 3.974261888312988 -0.1365921694361583 2.3028183165977243 0.9877070200197893
Ni 4.850889176034164 5.652863463954177 8.645813281256613 0.6218431539338645 0.3977666283317924 -1.7501383519230829
Ni 4.275396523991837 7.370951153393833 3.9663328084700664 -0.35264711028533463 0.0030421292604334705 0.3884345522975891
Ni 6.888205213132462 7.6671294196123565 12.914144756180283 -0.9000722543189402 -0.36691416172731006 0.32522320974642693
Ni 7.799095534727545 1.2563359374566097 4.482173998246326 -0.26145753735369165 0.25367377964321475 -2.04330684722681
Ni 8.244539053116357 7.20291430014716 11.04971266458489 0.5801077218682912 -0.014941708911496846 -0.6141632687911036
Ni 1.8365330657430423 3.6616290681761017 12.170039230374783 1.4250863776471971 -0.8218652096898943 -0.6049728605410871
Ni 6.068839180357267 8.358196606155564 2.575560905870113 1.432455416417759 -0.4717786610428843 0.5833997623560017
Ni 5.363658565081741 5.768650996395245 11.552867511828074 0.4840237969588245 0.09011125226579965 0.2306996873455446
Ni 5.888040972259455 0.8265107245514309 13.187015491274462 0.4020750258991591 -0.3449533411855027 -1.0369431313377817
Ni 8.835339774512045 6.827343366919338 3.2814444143482526 1.186189499202841 0.09248438048366653 0.12441748174683735
Ni 1.3360712533262078 3.466717431345971 2.280028116018153 0.10114565570309034 -1.9157965854872618 -2.0916358733495013
Ni 3.152499165671701 -0.007431775956486925 11.94971693928047 -0.19799962600936222 1.499743757251772 -0.9814206727904453
Ni 8.813169467172694 4.587975631604676 5.933572523247198 -0.6417280657832496 -0.9308013079716807 -0.09290784117433032
P 2.871536361006459 3.158842799977238 0.5245509533738613 -0.022497152661251577 -0.6639146291826179 0.2361841074988836
P 1.1600145645925344 6.424249395507492 9.451373343195758 0.48445368540739153 -0.7649265875213213 0.4946735633631868
P 5.110070626120393 0.8907138601914715 2.1385641449266743 -0.9099920845358134 0.837522713721493 0.3306302396946112
P 1.720301015861588 2.1547056844807635 4.044580843070366 0.4855330345144993 -0.5516736348973144 0.48206410212929235
P -0.048513522150345684 5.111793131201897 2.0742359887565245 -0.5894117728780365 0.8504013694563742 -0.9845257940783302
P 7.803438840551336 2.3011371379685785 13.229711391423729 -0.8791630149700989 -0.6229631264709207 -0.1603062252236465
P 5.143594649749656 5.607633814394698 1.9495118036076575 1.9534015403242293 -0.25299423707768687 2.161506373088393
P 1.9500517070821288 7.085385741064574 3.8855500983815543 0.2356729721904199 0.3328565579219687 0.4248650272104812
Ni 4.730461992809047 8.826097516063976 6.403546921799421 0.5485186342081004 -0.8129393679551741 0.7749261219361944
Ni 2.273132539224134 4.690566552534224 8.064587280311283 -1.0249034265644283 2.7001817959538266 0.15042161912008287
Ni 0.40670382345899686 1.5569501172990048 5.9736791093062065 2.5893860187554822 -0.23846056223788611 -0.5984530571446983
Ni 1.267263657866148 7.951944708760961 11.194578120173338 -0.5647258400955822 -0.2961813139881222 -0.2443126501432889
Ni 6.947196381783954 4.7319992822903885 7.554573899394112 0.3562471689317671 0.07797513112389796 0.33264161369768513
Ni 2.6523985236751817 0.2629302138335021 5.328612995297151 -0.9747226919449795 -1.0582688893987515 1.7544572910134109
Ni 0.4883014821882205 8.57100933074132 4.519705161385085 0.7330148264143891 1.0878080365084493 0.27099170209637197
Ni 1.1692846053806258 1.1486238051825917 11.020489347191381 0.2641844493665515 -0.6143144496569871 -0.4132935203227979
Ni 6.728549365793104 4.373727486117667 0.779738229042605 -0.4137928285567196 0.08623994223585146 -0.34325589887842173
Ni 0.9355980826566493 1.0422267036697215 1.9489422656371604 -0.25956803364046266 -1.43351393958926 2.1615811921903867
Ni 8.156348645099378 8.923280141468805 6.31831903730703 -0.22813938281753612 -2.749260555758349 -0.3048078793148686
Ni 8.119777824847457 2.437307647207436 1.8370942690115324 0.02207574885311682 0.5784473034467328 0.9573937137482286
Ni 6.008866369024919 8.04395055814127 10.542193211723895 -0.699057495632338 0.967425644062934 0.393602983872406
Ni 2.4841301509283062 1.5711746753914209 7.576789584555502 -0.6216446647698132 -0.2424095195833051 -0.041136622139309804
Ni 2.708315113363989 7.1352272590680785 12.960039329744344 -0.21942822819678337 0.4126126922056894 0.1035699488738668
Ni 1.8269296368746601 3.5742073048997947 5.901992337341633 0.4742132386263058 0.06941515736902884 0.13061409747585248
Ni 9.045133484815166 7.67464917297892 8.373240743278695 0.9764741274184473 1.317186433939409 1.0137669503316349
Ni 7.9064928004812876 0.14785298321905546 0.8183566077543135 -1.4804080330376375 -0.006290203884085941 4.041182815814331
Ni 1.0959392277166053 4.828774433374861 3.967946036347475 -0.6718405688979139 1.3781889417647104 1.4321096030425657
Ni 3.7391695791837845 4.064556345547802 10.019222147419413 -1.179239293137253 -0.8148862072688998 1.346250955405533
Ni 0.756511266704331 1.9947812745211717 13.501660678907104 0.6433684296001502 -0.8168880681902769 -0.6348035707492745
Ni 9.006247469561224 2.8622941025583915 11.375417075703185 -1.7529768498131424 0.6211718388984527 -0.17359394347148813
Ni 2.92985149271736 7.097211757134896 7.667235918582449 0.17935244322182015 0.7439201604729833 -0.18897865345767453
Ni 3.734844794920009 2.2284214933451074 5.203848062716249 0.8986553193667555 1.5620459577251034 0.32035405457958377
P 8.994356628030845 3.1827448731781014 7.797707343804333 0.1046490408706585 0.34221614475999773 -0.2100303319216512
P 5.08163077071557 7.920809966373786 8.525954709923994 -0.5017181289147941 -0.28625737000619084 -0.4511319313268102
P 8.450619190636237 6.570949411615541 6.739363178608543 -1.0513680485138603 -0.5154429347000542 -0.4153817703103943
P 5.528713447165811 2.090639608384843 6.8337814611809575 -0.9081100370217522 -1.2394115917517752 -0.5029720559265531
P 7.79781754708643 3.7490878745724414 4.110019366763486 0.45291730536200714 -1.5862397813624873 -1.067449013236123
P 3.0871458411546566 1.8722055903341799 10.275611472333205 0.48733229250676713 -0.7667415292428731 -0.7872555900358248
P 4.839591024424302 8.26848743021726 12.568122193724253 0.8931392746445327 -1.1188901026252343 0.07169521165245718
P 6.440770627041913 7.901547543956971 5.016842353779018 -0.7855041545623569 0.293535648835159 -0.008547375349378827
Ni 7.116316746291572 6.595360827716849 9.029015097211097 -0.7420265429946963 -0.04198097241747609 -0.737457178456459
Ni 5.1074405645980985 2.582933412834548 0.7799790093228152 -0.6000535688625989 1.232007328867904 0.4642373583605166
Ni 1.3387383579685357 6.1514175556893465 6.001153991434188 0.009647550392093062 0.8725442241020005 -0.5174280834508831
Ni 5.369381727126737 6.103928275807895 5.973123462505721 -0.21305960566627818 0.05606033332867764 0.38827411546032486
Ni 9.124915104584804 4.143541538236746 13.687866256451636 -2.4335938793521055 0.30025599827812804 -0.899378056465393
Ni 3.1912647907855383 0.4966454449755036 0.9262919248265263 0.9197075120513645 1.1053025937487868 -1.8163717691300203
Ni 3.601961862584021 2.9496047364746016 2.695420403280734 -0.9550964330736197 -1.5909222744398213 -0.306868104278007
Ni 9.302546125919852 6.9762474486693105 0.19312986275657598 -0.12737990680927094 0.13783221249084648 -0.7173933178270483
Ni 8.411297918721914 4.561073065681193 9.614158408099847 1.4874063187323414 1.8116743636543509 0.5837728294247042
Ni 1.7399060871387002 5.198788898597833 0.5927908630194254 0.23909228228461404 1.1027955110562169 0.13251131449856532
Ni 9.155364549251383 0.9391079182797128 8.539535643805849 0.5993118056005678 0.33494429368893286 0.16278631133302288
Ni 3.995776532427767 3.3110992840901377 7.701554517136405 1.3536441625458107 0.2600732554116553 -0.651762052980484
Ni 4.360475309926099 7.383851419945093 1.0483906788431019 0.5115088897529707 1.1235957356310198 0.6025436822743042
Ni 5.9220095133291055 2.8384753763776014 3.167468290476767 1.0227341868272515 -1.0048169402271983 -0.03242289641539578
Ni 6.803135687978208 9.409137703812892 8.294695437640137 1.009848332003519 -0.8003692445996474 1.1360951536496111
Ni 6.3292337926245565 3.3985580904864765 11.90010971901117 0.40320785395202174 0.07700094013608673 0.4259585173849761
Ni 6.229754493777725 3.6808822298129074 5.570919452052652 -0.6282757969330857 -0.12481086053051409 -0.23135171910724672
Ni 2.925415579093488 5.6741910403127935 2.575249743661841 0.8340794923678991 -0.3082230756440047 -0.13701357324429306
Ni 4.04784989841322 2.3573685941776605 12.19854298516166 -0.40405786065714283 0.017909533290569154 -0.1617650691573601
Ni 7.597080879631214 1.7991102537303774 6.655301226319168 -1.5720796878120216 2.301780362251513 2.0580842626463007
Ni 0.797895840404454 5.565830653438209 11.526517814471076 -0.7722573168547796 0.4874901582408701 -0.3335139890003095
Ni 7.311163557661646 2.68420004222294 9.28385879794154 -1.0587908233404928 -1.7404180393115254 0.01124112013145806
Ni 3.989442158902238 5.1253786954737555 0.2659001459820945 1.0935351688002133 -1.3615773013499584 -0.9513786179024003
Ni 2.8784263813324733 9.419231954021702 3.0985597525146193 0.6820216231959738 0.062153847820925215 1.044145819733808
P 3.1192066615426413 5.404100391377042 11.813173220607286 -0.20615028014095463 -0.8264944809317895 -0.28712228910964743
P 3.3766007810873115 5.328893596931396 6.2403969821630145 0.08465974223292516 -0.7366637360208861 0.10421401021576893
P 1.3487955650573142 9.080806009406304 13.374333288497967 0.753527087435128 -0.8960286803771859 0.25679715576354484
P 8.096135053486819 0.28111931184737876 10.389858937058928 -0.5785239223209392 -0.16095799987503245 -0.9020877420870722
P 5.856054238111535 4.297881697851463 9.954935664759299 2.1734692018772246 -0.38755909167117125 -0.8231165655984922
P 7.707534202787625 5.609689707556493 12.478855683070336 -0.28242308386176523 -0.1883047673191015 0.39464813730746867
P 8.332998023753568 8.951599606733524 2.9094666637635664 0.017452648258808653 0.6801069226717642 -0.3275883675444939
P 1.4282901006467021 8.981298928219447 7.2503933931706035 0.20051982132805465 -0.20453562735566708 -0.4459753268265351
