# total energy = -340871.6998636743 ev
CRYSTAL
PRIMVEC
9.26886297103781 0.00000000000000 0.00000000000000
0.00000000000000 9.26886297103781 0.00000000000000
0.00000000000000 0.00000000000000 13.56591786914410
PRIMCOORD
 96 1
Ni 8.695444968695297 7.217626690554294 4.491716127776019 2.281709045422935 -0.2756798516006607 -1.7743301186779377
Ni 1.882561727056156 2.9381462114425863 1.8238833348595964 1.22420480210435 0.5954253260619681 0.781595306426254
Ni 0.8765647338495909 4.560428991262009 12.183333944137514 -1.1366186302532488 -0.1405822644321579 0.8113969631687188
Ni 7.6574620555065644 2.066001798448278 8.997513512510197 -0.5088531972976785 -0.6972587518607024 0.28007978044056925
Ni 7.875020812300859 6.26774432198595 12.255206563084958 0.6893958041728578 0.44967771537878687 0.7040451786549166
Ni 5.920310254174202 2.1091576254606434 0.60133789094644 -0.8299572426694094 0.9534946358041386 -0.5364560466166116
Ni 4.775309046594411 5.401717358697003 7.261456363920567 0.17497642564131155 0.4473557521138296 0.19856141205010322
Ni 4.270675059081264 4.11877692912451 1.122723494902768 -1.2284867173091554 -0.004451608013450398 1.666361269405427
Ni 4.223413125675754 0.997830197849908 7.7689979938163995 -0.24701102291105848 0.5540992136196714 -0.6263922067571277
Ni 7.824690885179479 0.9843625396349237 0.09725818145205088 1.0549089717875832 0.4794102094462131 0.5179723859901273
Ni 7.146367670350028 8.290460529337205 9.9341451142622 0.5768722456501291 0.14919314602962047 0.08476592879348627
Ni 2.449260022489148 2.3154269068895905 9.024103100343181 -0.5621004866575932 0.16524788549963798 -0.7838856451223274
Ni 6.67153307799254 6.91345967611319 6.932333862226867 -0.29306667961854044 0.7519083208847824 0.9367485266940513
Ni 6.606901294969082 6.477925063681053 4.618842293971336 -2.135312488301845 0.14085480136725417 -1.7846608111799847
Ni 5.959721460457831 0.191490079072586 2.1058375186660068 0.3420600787981077 0.26486167793923415 0.9077493112482238
Ni 1.959826970607504 4.958480320954025 0.6944408410304403 -0.19800888198074287 0.44366236242264234 0.849561390053582
Ni 3.79205877054228 1.46251538501441 1.219299488024039 0.10180128700921821 1.037389474846581 -0.3549063386331565
Ni 4.913897089010409 7.7246705824968265 5.616032013374819 -1.6694519925156086 0.633581011196083 0.7771814936292744
Ni 2.057715434756471 3.0843625282639056 4.406183058259244 0.40085220923565157 -0.21525224244222282 -0.8252755209230238
Ni 6.273194413541637 8.063957319564617 0.26111499869646576 -0.21375508907140606 -0.37843321811050307 -0.39381535699352815
Ni 0.3607701081694354 0.26785716978082885 5.061416607996233 -0.8154721616793569 -0.21559934136899644 2.502723644270232
Ni 5.670783188237801 1.7529274064816411 4.371603710356531 -1.4718298044503233 0.43100996376595446 -1.8143544815896755
Ni 0.46151338218090404 4.755427335051988 3.0207771998945914 0.8101803171527981 0.19709896857196377 -0.3607759100400561
Ni 7.318796332272499 9.075792769694525 4.831380107575639 -1.8869572926580667 0.6800943242662739 0.9933372217223732
P 3.2770992694355385 7.676379805277233 10.439666131982625 1.6469005895776538 -2.414068921945301 0.6184462124371736
P 7.0846555792314 3.824527598296644 10.16741181350449 -0.6192170291649272 0.8691837922701999 0.7261571800626074
P 3.2392174255782495 7.340568891905671 7.5062665053796085 0.16581224264354025 0.32730040399042987 -1.2983417904290802
P 5.518912864870617 0.5337576825422612 5.9994867373153165 0.05908806441140791 -0.34372898186009837 1.193931605042105
P 7.563522127076512 2.277619213937821 2.089924734341516 -2.0636208761938137 -0.8410343264191774 1.8478238169917143
P 7.435658159371276 7.976718779220892 2.9684266605978045 -1.813684452105844 -1.5869519769381635 -2.2781629799428895
P 5.137656715278775 6.178587126961908 13.467280045366117 0.6738216038836847 -0.19878432669418666 0.22371811382138893
P 2.7432869006004568 9.00268924571546 0.5754527367158918 -0.6574290214582742 -1.2220013666951277 0.3524720181600511
Ni 3.440064422041081 0.8787985298783667 5.253537896652055 -0.9232900871963002 -0.3846478315616472 -0.14694728741823723
Ni 5.889083454087291 4.9613351308165266 11.714251608275704 -0.4479193379267834 -1.348628197388458 -0.5191581787681123
Ni 5.056276096471093 8.077981109570997 8.266242843594526 0.4781398273742218 -0.700797104031264 0.7835267191210119
Ni 0.19882916494638128 7.642585530086709 10.87817048818082 -0.05617011943366455 0.6774183200960076 0.21199645450908652
Ni 1.0826217583114883 0.7844238917647065 1.5805246973761007 1.2045268640594482 -0.36733196599101897 -2.278155780854038
Ni 1.855997165153785 7.103267456516802 13.408825032772436 -2.512129510965164 1.3896308650530649 -0.34730615768839546
Ni 2.605635013366643 5.544819337486502 6.294599926192485 -0.13545651316981833 -0.6616502586284734 -0.9303827323770234
Ni 8.73569037266602 1.842010450600164 6.901688219861965 2.754293490196566 1.8626732232997212 -0.8933843007758033
Ni 1.96048505989399 1.8993198317035693 11.224061290271445 -0.8278065148749937 0.1912563937482577 1.0799885404640304
Ni 0.7244033681782436 4.033077020070316 7.511137292985922 0.8875085587213167 -0.5012249913284594 -0.301781433783719
Ni 7.47265019236233 0.23308039509217027 7.424654164992178 -2.942008960671101 -1.7984501516545928 0.8426520645282585
Ni 6.2104905540616855 0.6437948456742837 11.304384331789153 -1.058053688064152 0.7198276383001538 1.7510495508834425
Ni 2.128696389065039 8.981380129241785 9.482820993386 -2.905551232064699 1.0334574867820265 -1.5819226420443722
Ni 6.260764868003925 6.08865134742991 9.324913859423207 0.34725165030137617 -0.34542359595370187 0.340503018723633
Ni 1.4086910964704225 7.424211113331699 2.5757197574211084 -0.679180811313069 0.6723763867967258 -0.22297455078714504
Ni 6.471844689428452 2.6239039427140165 6.507150716205255 -0.2787780309100102 0.24519068187286805 0.35667422916685665
Ni 5.635589314705595 7.18849465354831 11.458873109007493 -0.46931811531753365 1.4079589739382914 0.031084637219946466
Ni 4.199175048434059 3.2280762520239406 10.873300627460827 -0.4479147099410931 0.3105116145678652 0.0024394626794280567
Ni 7.613759365565992 4.4746178558495355 8.10996332200789 -0.10837431224104563 -0.46117286050258 -0.14422166095695807
Ni 8.330307372190761 6.942174614275627 8.560718334684228 1.971248081587347 -0.5248511153878317 0.23565137492386515
Ni 8.540163703674216 0.4409151875138982 2.779697775869502 -0.2265905502731775 1.1600992298736925 1.1845607053501663
Ni 4.08267470699969 5.474005222715354 9.75092378804136 1.4698749947167975 1.4943105020513425 -0.4693397125840884
Ni 2.5066435544980727 7.781599940209444 4.910997788604596 0.7038523459178201 0.6444824885999352 -0.6738629986445814
Ni 8.723251558265119 8.223974973675757 1.0319461025931238 -0.16938993269246957 -2.3830315930235217 -0.6828014387847918
P 4.06541608374002 3.2474759826804873 3.158104676916757 -1.6539742085949838 -0.27141156324260995 0.35228767006338685
P 1.2348072230271294 6.147017378936969 4.679373531919565 0.08769492951482316 -1.6543367341407251 -0.8171312945493346
P 0.3789648866112896 5.709323121381575 10.02696351024627 -0.7406342906328599 -0.1310871804575291 0.31763228477304656
P 3.416827382023899 3.9880766892831523 8.126717719110026 -0.5588585826815279 0.5927066415792244 0.408549063659277
P 1.5419402736890142 0.720244429264917 3.604559863959283 2.9618257382867124 1.007907149116748 -1.4925102156178103
P 4.614911369092482 1.7453269386658894 12.345785601722335 -1.0458093234791601 0.02274629255758018 0.8223051254407902
P 0.3367285308273664 2.303386653605857 12.915242310840656 1.0740904298120406 0.5235629927040274 -0.25542881466110845
P 0.3734888422386724 1.3141208853434545 9.598836573275532 1.7472332624611457 -0.4792896247079488 -1.2905284650322484
Ni 3.9888738115174878 0.6983940111809501 10.278394400681886 1.3161402520630816 0.8640940364521182 -0.05194271161587829
Ni 1.4365811058089548 8.503292165904629 6.966071597351934 -0.07807386148529134 0.28726241423193755 0.781313513519777
Ni 0.8558868269591516 0.05294930785885693 12.628608278009644 0.11181984758748484 0.08293324646012169 0.43602798580583624
Ni 3.5702456055438025 6.793344478034745 1.3067465777895375 1.6192710007858435 1.0295069867747106 0.32140589288286586
Ni 3.795923886492486 3.1043925416173677 6.110645432893321 0.1408738275306477 -0.26744795060917165 0.9835500604286223
Ni 1.5536653856242895 6.2815827347285325 8.269227417541687 -0.73721935141404 0.3134948655659053 0.8235945336761752
Ni 7.924924371715501 2.1954043974430446 4.362717651216334 0.31180256546514684 0.21549958256633853 -0.20769319914804232
Ni 7.477590496442569 3.258793264635405 12.307503342975242 0.49998340561187443 0.42068569902181097 0.15635315411316944
Ni 8.631443468368754 5.787858199189945 6.3281077935104415 2.1493918492130466 -0.6521883418846253 0.7879544158750624
Ni 4.656139272561339 4.832442319297208 4.712962965233593 0.016762821280635644 0.8135122097395087 0.20368999152592016
Ni 2.208334461593012 4.622743558487982 10.322632830914836 -0.6727232286131835 -1.412912718399141 -0.32516973080067224
Ni 8.861153704805062 3.467935893653234 1.12238054696474 1.0550670946320024 0.9539764605365636 -1.841550582388493
Ni 5.405610281236778 3.080376917092231 8.86918054032755 -0.11664812221406362 0.21348923700452913 -0.5611455789434916
Ni 2.7090755265663846 5.523380456928169 3.006180594143072 1.0775249094148862 -1.3802843908411584 1.49366181272375
Ni 3.411664625227102 6.133753635712163 12.09512866136308 0.22059859435580073 -1.1536532171380325 -0.6500412136346353
Ni 3.7870257778301424 8.707522297431789 12.22943078144005 -0.1776262045593328 0.7239002657076308 1.6318904893220672
Ni 6.328140234531606 4.495574755521992 0.6434778505531877 1.7803999790211014 0.41713757665923645 -1.299159401234369
Ni 3.0148645920657278 3.3197731155620267 13.04426766710359 -0.5716904443388734 -0.9927540955253935 -1.5039763072758807
Ni 7.635763646778912 5.651652254613762 2.122062663679998 -0.20831669166465414 1.504606227550396 0.956116903918334
Ni 8.420966123051574 1.378279956344226 11.281567171274476 0.6360312725087885 -0.7746944655413626 0.1169995920162114
Ni 0.06803809024576188 3.5620797370734643 9.917906992839743 -0.5683757781433436 -0.1962880426348942 0.5462588916396462
Ni 6.070502913304007 3.7774232355653634 3.055031210699337 1.7371272843753953 -0.07520116792318662 -1.1344627602525108
Ni 3.4791604869762525 9.062186078531692 2.803410308568328 -0.16687462246978357 -1.2506115742326525 0.5802342201438265
Ni 7.968404608939514 4.664898348275834 4.364956081676705 -0.2582662841099036 -1.4846336410832108 0.3344766100238949
P 6.589670478298981 4.89476615538637 6.151967878766717 -0.5184917488287071 -1.7332886273555952 -0.28222768002150744
P 0.17341764962483905 3.3000118992410727 5.4443281765538 0.1269597885527168 0.8181080566403072 0.3701581225859044
P 4.36070352724516 6.93227546838877 3.6302670560165846 -0.31473002352458695 0.17015252189010696 -0.43882920270005715
P 7.75232887025561 8.669455076310701 12.235671507025838 0.9645493509564034 -2.353506844091527 -0.588848701285715
P 8.5392553550816 7.993078322751137 6.458638413155424 1.1762462719472002 -0.036504265573621 1.023846960275456
P 5.924499780336055 0.6402634087989161 9.174508016440035 0.07501399161304499 0.9887030653844714 -0.6418545640587849
P 2.0809524747736527 1.4466841666859906 7.030388239026934 -0.4959809693207006 -0.23121519352938244 -0.6383288102937136
P 9.225531254528022 5.714782481800451 0.7534195443943538 0.5173704907400702 1.198318164145575 -1.198636466716942
