# total energy = -381169.0909944229 ev
CRYSTAL
PRIMVEC
9.25492044159286 0.00000000000000 0.00000000000000
0.00000000000000 9.25492044159286 0.00000000000000
0.00000000000000 0.00000000000000 13.54551156796416
PRIMCOORD
 96 1
Ni 5.940650128998356 2.2266413059782963 5.97153842592966 -0.3450587564151154 0.3490251972620312 -0.4479648464527382
Ni 7.48477807303029 8.341228409516559 11.895180787655908 -1.1735615260261854 1.065743600509242 -0.17997542151779972
Ni 3.194798532040849 8.283514725722217 5.327327477670158 -0.03051616631098615 0.32948301346404546 -1.6549926225571692
Ni 7.764526552833298 3.7089741463067627 5.056810780994932 -2.1950060475077358 0.5726805761662846 0.5498764337875756
Ni 1.2612235363626847 7.037645102351004 4.43177972983219 0.4339145390072592 -0.6936939173275796 -0.38065105169742836
Ni 6.888714922809864 2.062338703604828 3.4048537590464063 -1.6215664816882396 -1.3027396623864596 1.258874071351761
Ni 0.12360964273983424 2.3059744838944436 5.881028080611585 -0.63100373738721 0.9661326362831231 1.2740019281321349
Ni 6.682691139143116 9.025139264447679 2.9736596123296946 1.7782060566935762 -0.39958774070093117 -1.302792884221898
Ni 0.07011990462922217 4.771836973117791 3.5975791475489314 2.464564616702007 -1.0288989208770667 -1.124929623951095
Ni 3.563024051143715 5.342069640421282 4.638782684080311 0.08722955984263041 -1.0420652830556956 -0.9199671934706543
Ni 2.565621276525979 2.62576900439311 8.949384038769328 -0.1617524707518698 0.2860732790198428 0.862223816012599
Ni 5.530564604795778 9.240686361235719 10.137650111899301 0.08249050249574824 -0.9474268323435038 -1.3132320772773511
Ni 1.5840351609211574 1.4008710307136822 10.946533859349428 0.18639032390520804 -0.16787966669553023 -0.5291350874751661
Ni 0.2633302509622198 6.089432229812633 1.405495714451981 -0.9739817000138968 -1.540434807213231 0.18316076122431685
Ni 3.627151394795253 8.631157301791308 0.24300922217658222 -0.6506688199163053 1.347931942652382 0.3734193098356795
Ni 7.2735807888438115 5.308215141492529 8.752066358750003 0.11344247079257237 -0.4173347802717071 1.4528064692702851
Ni 4.446258127351091 0.6767031229011274 2.431148208186755 -0.8452753610837185 -1.6099942034696078 0.02787744313655844
Ni 2.7994838608427237 2.908627137460214 12.309727183505197 -0.516524083579375 -0.0012575265561849311 2.5760671901593892
Ni 5.343920624507053 0.13342356036259242 4.742337839742858 -1.5654277297131427 1.1336189241949766 0.40883342766891523
Ni 2.202902435078282 5.937373887166542 6.602610163656316 -0.9217916482739028 0.16061681448552984 -0.5224347926368551
Ni 6.774851636773657 8.336156713121547 6.247203634839458 -1.0788729388023486 -0.22695821802524138 0.06040395500935404
Ni 2.7556155380099496 1.284731034251977 6.543294453135741 -0.24973947758581505 0.5092907990557294 -0.24296847741056868
Ni 9.072654025929422 2.2846418923059324 2.9165789650926865 1.5736012666628705 0.8451516910216605 1.0678681030514126
Ni 0.8759763676070682 4.081299595159612 9.683226114906164 -0.061943531582332026 1.1968886307879 -0.5259469195551717
P 0.29244808161548436 4.663119422840029 5.708918027364334 1.5451273275928938 -0.02115632236264098 0.32996869485121233
Ni 2.4917855213445717 1.1241211451296222 3.6301971891083893 -0.7961737184610611 -0.6434208801046403 0.37446394905010993
P 8.920169956943601 3.82833485507771 1.3847850535162889 0.5458624275321761 0.3688743707774744 -1.2654830920278464
Ni 8.531889025271408 6.886169819691929 10.378353933397058 -0.4853492006384673 -1.124056220207206 -1.4292749618072482
P 3.7632264898607124 3.013624209725578 5.549339136377753 0.6788866771114179 0.061977727254377134 2.183487248234859
P 2.713746277989808 6.564052314165621 12.470472194465813 -0.16407006314145292 0.14340790680641108 -1.7313068210388762
P 5.057860288971565 0.3819218758455287 12.09163128163105 -0.8548028409581794 0.050380509335080974 0.007593238966225632
Ni 1.8418402243873506 4.65761274518486 0.10220208629584907 -0.06858700504077865 -0.555025839198999 0.13320371257989963
Ni 7.232600001184841 3.584958212560102 13.13212959322575 1.8844764352177417 0.7895610982405499 0.6864991993513532
Ni 2.4303791242991166 2.223716751122778 1.2592383559306952 -0.07318670859631912 0.1535236550841743 0.5118397907298281
Ni 6.476528531669936 2.169233034558107 10.30209338906329 -0.21546898643871923 0.773761412204132 -0.44260718168525065
Ni 8.663133051873004 0.14289412043744004 7.190242081366056 0.4496129235791225 0.326270934284651 1.0350870519656494
Ni 0.6635083828457086 8.42377304482152 11.188470436248306 0.6079831081223207 -0.10724045574691854 2.3632083876500074
Ni 5.370075029638998 4.33356096128892 9.73568763135713 -0.6953250251730992 -2.4159003187270844 -0.265521165900104
Ni 4.075154327994851 2.109936759370431 10.764685778826934 0.6392677771682151 -1.2904431044072935 -1.9513261458524396
Ni 7.953641596876528 6.375316721859974 3.9294309783823103 -1.3935394560788517 1.6941600367852498 0.13250411540971374
Ni 8.845103297345156 7.241975235579271 6.152208355081559 1.3128050170422616 1.4498676983569352 -1.2610523099500024
Ni 3.062906661009232 0.25833907237493814 9.083416572896137 1.7449393242206463 0.7543480406745265 0.37909810538801164
Ni 6.146757206948964 5.56515949735884 0.8713072602507107 0.9338550071963402 0.702262632833197 -1.200903665484564
Ni 4.458817054373048 6.569855149274512 6.273698621043186 1.23583030215842 0.41536531525016207 0.7635168516579882
Ni 1.875194957612945 7.694439040425578 1.9023997962135653 1.0664835639990602 0.8460731743946655 -0.20475905622038285
Ni 9.017281837003582 8.072215637411022 0.22692972342348902 -0.8828273511955634 0.0997757719387572 0.19254760175585547
Ni 4.548108526670643 1.9382857501764517 8.153368332683483 0.7536078200743924 0.8522775034331646 0.04827246185314267
Ni 6.891102692280509 6.09043176121895 6.622562846608886 -0.1450385004312986 -1.2471349285379618 -0.6673912748773086
Ni 5.042312022651088 7.299448291442462 12.57809118568867 0.8183199155407972 -0.8248505175704632 -0.5127512468005041
Ni 2.2550816764561685 4.637548077695102 2.4670711818313564 0.4097613387998233 0.3506701890646219 -0.1867219962130139
Ni 0.331016111518653 1.9170734725535152 8.625659879056569 0.4266943671097361 -0.15664266032913024 -1.0122546274521664
Ni 3.131633700113911 8.599005708221465 11.423201132101276 -0.8163905597285682 2.5326888231737543 1.401365894101806
Ni 5.443401764196818 6.968223944214159 8.434004359355619 0.40047939927726517 0.2412358109901781 -0.050585683367351586
Ni 5.16017343431256 7.758982855496414 1.6956948504032536 0.07823686942571687 -1.780866634244875 0.6005806450106624
Ni 1.9999605399143434 3.441655024639706 4.479500876039497 -1.0383040162410506 -0.30268003433858837 -0.09136929304261683
Ni 5.386206355946493 2.458597376686696 12.686062789379868 -1.2398743903208067 -0.8546436896724958 -0.787499844836147
P 8.81701461384358 0.8215241177718552 12.287471876349928 0.04367224407696995 -0.41349843724475244 -0.11138301716038237
Ni 5.745797034289237 1.9521403660584482 1.2868272737291129 -0.008171222956882702 2.6502859395646485 1.1053815266158382
P 4.0713875753803075 3.5673183342227035 0.6710807587405978 0.369121453791274 0.7156817344525803 0.12170959589737104
Ni 1.7789160203915635 8.342079862196014 7.001268637605388 -1.2314571127913887 0.20962229784995512 -1.212078451154461
P 0.9544969635095624 0.6841181651487263 2.0974814874572774 0.7822599365934463 -0.709096882146211 -1.0678367355928449
P 5.924824215065014 5.191917811383534 4.8904989353963595 -0.21128014516835222 -1.16846868488431 -0.2152116190122745
P 3.523163108856635 7.999740355532656 3.2844204049977552 0.5995812572118706 0.22696156045935104 -0.49119126124154117
Ni 7.569173692421021 6.097095303927726 12.346544182463225 -0.3497145100195719 -1.4290775010844616 1.4749331259659955
Ni 3.4214515333435154 5.025051596051273 8.50614738959059 -0.8666831373355333 0.27214535608484103 0.057969377425932424
Ni 7.228463051753142 4.15933708421572 2.7411510228716915 -0.9206531637940855 1.023321169678973 -1.0745210895915558
Ni 1.169933001252456 8.581449124167927 9.037172511989276 -3.018999873504859 1.9402413487931873 0.9301688165940044
Ni 4.840758365551477 5.072251690238435 2.575841485155564 -0.7967370471636989 -0.9879206786924921 0.6142756259992518
Ni 3.6830048395833948 6.92181977318388 10.312387637056306 0.5933033946229588 -2.3074105639540967 -1.5981763848990735
Ni 9.210293202547359 5.647926250754092 7.549373715655528 0.38977178305177385 -1.7964693737791382 1.4761909096324963
Ni 5.220635829474271 4.726052881756245 12.235538815855449 -0.7399210666159193 0.2208006830642778 0.36076022631077226
Ni 8.145745980218276 0.39850761874608026 9.895835699950084 -0.1503794530282378 -0.5795047981769698 -0.5411115431107519
Ni 0.4319262109226339 2.6828440986778603 13.075698641402846 -0.05469816287382838 0.2853137751459989 0.7108105224032081
Ni 1.3899132049259175 6.446866511695454 9.225346330624891 0.8117833999738601 -1.7701741875280352 0.763604269165472
Ni 9.150089945157655 8.195417138159943 2.8503276172027263 -1.3934188713405875 0.7660247056815066 0.3536603820411974
Ni 1.561286566507031 0.37336014895679465 13.319247425440432 -0.3736481380170339 0.6654446926738992 0.3888040198218659
Ni 4.303149292759701 2.676097261685225 3.572222516557954 0.6973155732405669 1.0497384833302374 -0.9204731865727954
Ni 0.774099129018272 0.39921932212705924 5.229935173521185 0.10192958505696638 -2.4289088151716105 -1.6421412205157975
Ni 7.537234962021041 3.0628881511683743 7.8339791776996 -0.14090390943763476 -0.24165104415072572 -0.1545454114804693
Ni 1.924903135236327 3.5661151945669527 6.976047128452671 -0.07655073997254559 0.5237411701531044 -0.14111294012464728
Ni 5.982278761087347 6.220704021175518 10.56445557534865 1.0008304447756247 2.0727794027646302 1.0143143381946724
Ni 3.4271525643276903 6.266173445242484 0.8295897809256025 1.0653301671209072 -0.672788277523164 0.8584273250846443
Ni 6.484182350864599 0.8214870980901398 7.7734575510471435 0.6305530230030366 -0.19418076648390428 1.428624729817759
Ni 0.6783754870226216 5.867277119838392 11.947818147595024 0.9282641433721239 0.11857002182712484 -0.14044162508923555
Ni 8.809046127354335 2.5876017125445108 10.743459618823355 -0.21473082272111405 -1.3384412295531272 0.7098461016074098
Ni 5.6559965413680535 7.084419470198439 4.028597450777495 -1.2641260637793197 0.3311958823900942 0.05547360758727221
Ni 3.046849374065168 4.491348099680474 10.727950223168678 -0.20923843214797513 0.6755570985175527 0.3083125500340174
Ni 6.235974639883128 9.247349903944494 0.22091680162086175 -0.12616840299967302 -1.0392183005252038 0.07868244160356772
P 7.626045178456337 0.5151242436098715 4.911548326419749 0.7707174831714855 0.9373452797377857 0.02969084219621338
Ni 4.442380315691401 8.884316395202218 7.177225035782871 0.5721876956902662 0.2645724288335895 0.39338058344895477
P 7.367111014697823 7.234747142724335 1.7279602794943718 0.4592792430242929 -0.10387642437069207 0.07018443143488558
Ni 5.196360173189385 4.435892616470773 7.280049052731538 1.0102676789291247 -1.1410550687580479 -1.2222368797447016
P 7.683009213695941 4.264547019650946 11.016144743355062 -1.4581785322154759 1.908948709327493 -0.21715717277441954
P 3.183590823401505 7.25007329095452 8.112907671552612 1.0292969276464337 -0.22533482348920547 0.7935370521691625
P 7.865497734712109 7.600769990765133 8.552094367551684 -0.7293106380899246 0.743387685008281 -1.9430351094882408
Ni 7.901758512952365 1.231774379558067 1.076517536411762 2.119063373432834 0.27861013787357825 -0.43893950302567625
