# total energy = -340896.83103384374 ev
CRYSTAL
PRIMVEC
9.02909576751221 0.00000000000000 0.00000000000000
0.00000000000000 9.02909576751221 0.00000000000000
0.00000000000000 0.00000000000000 13.21499433074757
PRIMCOORD
 96 1
Ni 6.298417218397978 2.2020519617296244 11.533227737003276 0.871003619087758 0.26291123908108266 -0.4161019363058705
Ni 4.7602656301820625 0.48527325986591796 5.984700387382036 -1.2478738635865154 -0.8307511993256145 0.4359549664760557
Ni 2.784229990581057 1.6375529021466417 4.865840136803718 0.38878962164416264 -0.8856329389651586 -0.46576099409389465
Ni 3.3675908309616855 4.1577540779432205 4.576788989264566 -0.20105846744034403 0.36183931830756394 1.2774281802048646
Ni 5.075101166148138 4.3802580818668195 2.7792982985410015 0.0403254390919241 0.5439659818404116 0.02963119260287155
Ni 7.096291313058397 5.995301448576155 2.613569248018839 0.4525064430768336 -0.2669951793424692 -0.8687071097440974
Ni 4.900234670835539 4.626517636426421 11.298714132965292 -0.3260102244240966 -0.823748028534904 0.30683545126785866
Ni 5.689440833678946 7.840794423374686 12.35114281235228 -0.38265162706722483 0.48176045484594454 0.4730891523241918
Ni 1.835867958843389 6.534744767750585 0.3692213906604472 -0.32416571501619007 0.4172417063372685 -0.5519019488580367
Ni 2.6173903612948384 1.5530766833133343 0.5487405789577398 0.3459825537809654 -0.17202659898436826 -0.5177340447270761
Ni 0.3819804057131777 8.949106884423175 4.77634825534088 0.5143322181343787 0.09374576369459339 1.022373203943407
Ni 8.829706123643819 2.3431044938602286 1.3284508419136953 -0.4738687108026935 0.48688569188765174 1.2216175009931478
Ni 6.729448186190243 0.6240540715328129 4.712770781282217 1.0178038394051696 -0.136249698495075 0.1698164787069269
Ni 0.8469941807759558 7.380256371022004 2.6451132965562523 -0.09729208628495502 0.14689869356848895 -0.5834087612170662
Ni 7.666921128582787 3.8357584691324664 3.8167811159105933 0.44683407528240465 -0.22122234398272866 0.10146164428161236
Ni 7.82193264257704 3.893048080985538 12.784673936728016 -1.535848216283813 0.1691096824478894 -0.30966854984127956
Ni 7.840026950245055 8.698414043902998 6.911825083258457 1.1090651461150125 0.10472385997265189 0.5676653823398805
Ni 7.009422383879768 0.7688861830994602 0.4204019164016528 -0.8925024123914823 -0.38681064354092093 -0.2741536447641214
Ni 1.929680262571271 6.5876281809300075 9.175844631293646 0.06889913696455877 -0.3694045322493315 -0.09174930208985489
Ni 0.2169556246511468 5.14671995278621 1.401211809150571 -1.0135219242003641 -1.08116739126348 -0.36639994109505286
Ni 6.487603859399933 1.8360304825649578 7.0265975296113545 -0.26103227689081493 0.28633655998355845 0.37643572806450004
Ni 3.3749314857192187 4.199522674386452 0.3405991574730183 0.43411817037763295 0.41508249390242064 -0.012999240473145355
Ni 6.128516725688877 5.599348517355865 4.906317572570042 -0.7992878386100105 -0.5538433888551236 0.04835602270588446
Ni 5.29028257350549 2.8747105580167744 9.177125859965349 -0.34179936893755325 -0.2492633092803449 0.031570318607113367
P 0.0900598115787668 5.615546714938909 12.231970487692687 0.8179404207141913 0.7466396162866754 0.6922690119555949
P 3.9317919303884583 6.252143103229026 12.489319577520678 -0.5998267975637734 -0.35343695317648166 0.5038197486388291
P 2.325741542939274 8.506455470538727 1.4537683690677272 0.9644976717828616 -0.31063605596087146 -0.2464960309478529
P 6.345711621374555 7.699750920339724 5.84534893687052 -0.8860170617774548 -0.5446452672956232 -1.0854613906531434
P 4.844949518215152 1.1373771199224112 12.674699551799662 -0.4700560219248227 -0.6328359054999424 0.8460770310494073
P 3.9396562726932696 6.263221803582647 8.024738771446478 -0.2412890328256167 0.3066477607370848 0.29283322345149565
P 4.840741959645644 1.02011625481038 3.699656590142767 -1.186227551529628 -0.3666537089770717 0.06877109602712672
P 0.24658550491230344 5.494267902265866 3.547895550579895 -0.12147125463431982 -0.45405810383466966 0.9888269925568454
Ni 1.2591073873775898 0.9195050420635281 2.8005085471153204 0.7060118154629841 0.18737068554060635 -0.8741115685891203
Ni 1.8446622979994003 6.5658138858571915 4.746600996836367 0.21037177442146998 -0.5400388788718634 -0.437337191535563
Ni 5.873697588459976 5.589949228791792 9.127728580613581 0.00022805685040605883 0.9964989072798066 0.48683529826569066
Ni 8.483783411379852 2.1994425530888777 10.175241820332673 1.006093750057093 0.9905172357750749 0.3528566551929794
Ni 2.377035835285578 5.263150141099111 6.789890758241753 0.19893165090532836 0.02834435547064796 0.6744073011838256
Ni 0.6669440816548712 8.942921953907911 9.041064611906041 -0.38524561304664623 -0.12258274253094373 0.14685189949095354
Ni 1.567604498202474 1.0631037791653795 11.495088837008419 -1.5994279979179873 0.6489610931965791 -0.5478964272430693
Ni 3.934780561046199 6.6577300795001015 1.5271243537074584 0.48621154863876265 1.1662775907702623 0.8771665533653602
Ni 5.5419324981637965 7.885434272232304 7.886628821585836 -0.09307033489412359 -0.2385135269630086 1.031349182189772
Ni 5.21200031428309 2.8249692701210183 5.018632299088989 0.623683806687029 -0.1495628706642134 -0.045392826312502466
Ni 0.927044336925201 7.428444654467213 6.779305046510225 -0.6858633655395672 -0.08416763308785505 0.9260172563194762
Ni 5.1635050415860295 4.637632453162611 7.086659976736305 -0.645144033443334 -0.7634435752178916 -0.7483517138817757
Ni 8.153706761968861 7.078088656242668 9.32332407370274 0.10114874102688386 0.12871276668808157 -0.04159427850201869
Ni 4.638643711874597 0.574660403819302 10.54203709299392 -0.20348918836902374 -1.1939424036753825 -0.2592255626993794
Ni 8.051425166528105 7.069682568199295 4.591959675763467 0.4871230047094385 0.03511612697684275 0.4205789982406177
Ni 7.226066504731241 6.059182300248414 7.1470384422087525 0.7019870105743071 0.3082978947459981 -0.4207764589634044
Ni 2.3649549053156154 5.081159689324404 2.5892538934529883 -0.08741545060119138 1.0545862983408418 0.14403911263250677
Ni 2.2705557103709566 5.232017819323005 11.487358125319119 0.40341714174935034 0.12024123888196066 -1.0173109589291511
Ni 1.2486787819102458 3.2068638994255902 3.7575646950473653 -1.4158455757752195 0.39441905201579813 0.5392078983301358
Ni 3.554800100017885 2.5951065532486006 2.58790584947353 0.7749428341067428 -0.7345148079986833 0.5429467965472778
Ni 1.1719224398514656 3.3637444362178863 8.1282519355329 -0.9256351903897091 0.7534782364750636 0.5822324815207779
Ni 3.7316168799893106 2.659095754068572 7.176891341132284 0.34933835762707577 -0.20737103992193318 -0.09894170607323605
Ni 4.115362473900641 7.001810856252954 5.830957461325586 0.24423551704845034 0.12090226950472727 0.2598639676143267
Ni 0.8252078758996318 7.644158778467485 11.308718370937427 -0.3046389578371721 -1.1424537488777875 0.39429975282911445
P 0.2749422826878363 5.650985915336593 8.003251329635926 -0.1115164574144531 -0.425850273941886 -0.00968251739508655
P 8.549578431328367 1.4486371340139683 7.979636632891952 -0.46939062042668195 0.9716278550697396 0.16936113633706318
P 1.6171832623766609 3.0461189096982095 10.341050326896491 0.8662149394498632 0.7711651122318655 0.7061581112328613
P 4.023852589561653 6.078992136088546 3.8183539843715555 0.1916960523888376 0.17690963810828242 -0.5520055643154363
P 6.8304566791453745 3.9504189546993937 10.281820362389798 0.3496669446110881 0.18895294242606167 0.8783397477378551
P 6.259158710543422 7.7249872426611335 10.191244989449832 0.420927639829288 0.219219454620087 -0.13430414473292998
P 2.4460361841872595 8.596963125261372 5.644335083486164 -0.04333285845968021 0.20439653067464156 -0.07778795481375636
P 6.907104672056441 3.993424537245679 1.6513592922939282 1.4815660579014807 0.6837684306837515 0.02195156457042671
Ni 5.42143921681167 2.91509770282667 0.6884360380132425 -1.468160583128852 -0.31872011852058657 -1.4866401299902783
Ni 1.4236445972749139 1.1508756179082806 6.966813178632198 0.08084808179631882 -0.14965414482643905 -0.5004055807509575
Ni 6.841896543324704 0.8534897121813301 9.287128235090195 -0.8439026491059078 -1.5795950223524602 -0.47387462433996447
Ni 2.615945705992003 1.60626708574461 9.107668638824146 1.0043297161781348 -0.8972952057944353 0.6521803714648252
Ni 6.4193890418191675 1.9572370624728586 2.567277074658603 1.0818361351957304 -0.09905200639885521 0.7342731243015225
Ni 4.1194526542267935 7.010063449670401 10.434440068948295 0.17332269208797246 -0.11297015914184416 -0.8505273535112771
Ni 8.182527635260431 7.292114339357752 0.13242884288224002 -0.25950427028206274 -0.40949085874725605 -0.018945173643935116
Ni 7.656302912106947 3.8333206133089317 8.266415157057832 0.5234848311679243 -0.27262795214821434 -0.3428908022295191
Ni 3.042119020328484 8.403785623985334 12.389347624745332 1.1015804077021931 -0.21610944823619557 0.6220213313829416
Ni 0.2551333497572684 4.773574517159435 10.195698139420823 -0.7581643290968233 -0.09650121495254349 -0.6640760944611466
Ni 8.57519397566677 2.340711783514907 5.755764055722561 0.808176399348892 0.14139704702396938 0.6617980970602474
Ni 3.473149988120749 2.424583052940152 11.53962394835658 0.35856990352767276 1.8562138408276225 -0.20148552767543362
Ni 1.1376660509829783 3.549301380771467 12.721110006312818 0.09537404332663575 -0.7818393041162599 -0.600059996620502
Ni 2.9800530168804125 8.452786526038386 7.859736563123553 0.9766345642557115 -0.37395949860986566 0.04777521050174998
Ni 5.64407865716991 7.707217982436256 3.5445520764633947 -0.178114457049661 0.4086835323546123 -0.10567645369390832
Ni 3.244136006238747 8.228151655543105 3.4898953488997413 -0.09608675312294421 0.6273234603221454 0.40388791073818175
Ni 3.5353423989078188 4.504859601736384 9.20277661777676 -0.9305524251856684 -0.38632007705774757 0.1525975437254791
Ni 7.049574772202953 5.885841722099436 11.324377531510601 0.719014141259923 0.17381608678462324 0.4867602220533811
Ni 0.5932296419181241 9.146744758946719 0.36349423529426855 -0.6130780061467248 -0.23589922926861312 -0.09640685546652429
Ni 4.549887701706639 0.26086231094257556 1.4549972289847017 0.5301061931391838 -0.37754644463017556 0.3488197661194444
Ni 5.652114552291933 5.545471903655743 0.37868207707489127 1.6076609273507407 -0.30748645458829627 0.028974018634846874
Ni 7.882671368965631 8.955978026207285 11.314255012385544 -0.1605077997114913 0.1291817359047001 0.1724973679731997
Ni 0.07125942863149096 4.857608310306249 5.863228352062238 -0.10660642170734544 -0.21785085640733445 -0.30610860040416316
Ni 7.863583860776917 8.667958904300097 2.520707708062135 0.3297792045482256 0.6070960775316769 0.441532203453517
P 8.440154821234218 1.5814370727271243 3.7530844577894467 -0.24900208519915823 0.38659904175074716 -1.659401807368458
P 1.809809988818493 3.2625734195411855 1.6095464532820467 -0.7923646291276161 -0.04135130925327717 -0.5978730162715122
P 4.760780288633698 0.8599716999432402 8.347250844527993 -0.34095656132128377 1.4739512216687003 -1.2613220186716212
P 8.54411582846452 1.7975123605531058 12.446251694214459 0.015186477932451264 -0.6490834777070563 -0.673518470820969
P 6.369115037280491 7.717303482269177 1.2985925255327777 -0.6981735503654879 -0.48235617944841447 0.2767540585014459
P 1.9171839942017437 3.2342310883186807 6.121502021284046 -0.2967850090103921 -0.09592888738884124 -1.6409831956519545
P 6.955518682892717 3.797050736112117 6.1128602738443965 -0.3790340849192956 1.0832222169099797 -0.9156690803159326
P 2.4865858527187243 8.524369196293888 10.201010859297 0.061011763796682016 0.48242457079250467 -0.1880404579141213
