# total energy = -381168.2767460066 ev
CRYSTAL
PRIMVEC
9.19824874335291 0.00000000000000 0.00000000000000

0.00000000000000 9.19824874335291 0.00000000000000

0.00000000000000 0.00000000000000 13.46256680912667

PRIMCOORD
 96 1
Ni 5.413408529072783 4.853906653883055 6.469113611026942 -1.500175959693184 1.3947980110763012 -0.017734698275601715
Ni 6.826452696441243 8.927599454422312 2.4816221984131213 -0.2759071371201184 1.4576486278539347 0.3987732152194358
Ni 7.084316401195198 1.3211444643579449 12.0816439888467 0.19094786136890338 0.5392117549848778 0.05839386655786072
Ni 6.497928044982576 2.9649634939855183 6.376356631235266 -0.0412032137111871 -2.4695037058748377 -0.6594529938668385
Ni 3.194597773402743 0.8135308300502716 7.526207628538561 1.2127137707456146 -0.582658513314603 -0.2494399440675253
Ni 3.652955705613429 4.270489332008577 4.8079135706087905 -2.45786406475338 0.35835470219307314 1.5971024351086043
Ni 9.072030355900752 0.8228642930314316 5.158775249271014 0.23066394901160273 0.23375467212178452 0.37610534130827483
Ni 3.885174692922352 3.010053309234997 7.014239543284519 1.738100446921942 0.09618728325655047 -0.3269743881095788
Ni 1.9359646073792454 2.1989701331704223 5.895513580016552 -0.261734188053846 -0.9733337820172526 -1.8381970925352276
Ni 7.066655763643382 7.614310294475435 4.489874002871641 0.8689716762593938 0.48950127513362796 -1.5798899278850598
Ni 8.034909415670391 3.8022156876724442 1.323346525102687 1.5046080273226088 1.2708471845532372 2.277432529534768
Ni 2.113122877820894 9.058196189818498 10.075815922927191 0.45208015417269237 -0.5859718939585522 -1.2908326265362284
Ni 8.784815039465629 3.0700074944239204 6.6078048053010425 0.280375200193801 -1.4478941195703323 -0.31058360545638125
Ni 2.2206780001611954 0.266569847172077 0.9312343802087591 1.3630456583653687 -2.098737260280972 -0.9093130561909177
Ni 5.791953257097478 3.3522373600501463 8.587825344773089 -0.6171868861087757 -1.532805315692431 -0.9336752870853663
Ni 4.2056876697416286 1.5931366791533526 4.906688044716297 0.6261723774368377 -0.08990582112321291 1.2212434054831807
Ni 7.330654700296849 1.8261099228577184 0.7026450218466828 0.4326508418034871 -1.7319251713491657 1.4156257464549298
Ni 8.906774619309129 8.376670347044193 8.709702140378065 1.0299607864826779 -0.6355828721174602 1.298991251087621
Ni 8.228569344324518 1.5279762851861338 3.0255100463923252 -0.8611406102507493 0.7251814464128995 -0.6440106911698392
Ni 6.45591964305594 6.9609954805404115 6.487664639055328 0.5627054672314438 -0.6745767368821544 1.3576892791494617
Ni 5.611134083663317 3.580804642615283 4.140587064391121 3.096197503032784 -0.22895750784345728 0.22755342840707907
Ni 6.281907173678208 6.785750445833543 2.165925424626205 -0.7447691387368399 -1.3097101801670217 -0.040340608600575686
Ni 2.1245195079910504 8.008308080357969 3.1119128759648373 0.4852952074720804 -1.3040910342080314 -0.8105940076514492
Ni 1.6320452712596962 7.554402100530136 7.12506372322165 -0.2882602593688326 0.9123096769253966 -0.5693988200912194
P 4.159760813858183 8.100226179865933 1.4438196679522428 -0.06301491026963986 -0.311468836274812 0.21038900081265058
Ni 1.7487802458274515 7.229897083764253 13.171842503519246 -0.30798267749842445 1.152068389149416 -0.02348291361328859
P 4.0238750854451775 6.0253680167406385 10.045430428089343 -0.9421077341234356 0.8734222558315797 0.9200888066501831
Ni 0.2846600429393455 3.1697533035967784 4.282052450480652 -0.1546168881483531 0.4137074679317649 -0.9657523701255689
P 0.04477983426744958 8.555539491748675 3.459125609357892 -1.2931322212036827 -0.5130399816855165 1.4164058191540638
P 8.475220383882814 6.620310744267422 0.22783234249201678 1.750163291623747 1.2730920147233558 0.8455895498900275
P 0.1800511196656311 6.083767697895054 8.096132039358478 0.1656474349309018 0.15284256985674968 0.2634249454927076
Ni 3.66912622687181 4.011512639158907 9.362030902049778 -0.9231057390996361 0.6194959938579266 -0.3122437667676235
Ni 5.7750744706872785 4.726961623230656 0.9476826885786322 0.46695321462978284 -0.6669662715247481 -0.10774182086336928
Ni 1.3281535298863216 3.2244552887637816 1.9304107047991483 -0.08488342820795704 0.7304403808189935 1.3975385499359156
Ni 2.4508825709993647 6.355585145964688 5.375777573714329 1.4286915784999523 1.3262032927260385 -2.0971444618725563
Ni 1.0805090794657344 4.56968996653225 5.919544004810365 0.2534449514618603 1.4651943014116768 0.117956556612842
Ni 7.921862938841321 1.0262578084862513 7.614805160256835 -0.9726709516222731 1.3262811971518254 -0.36879260969694555
Ni 6.69659182094305 8.346306928003285 8.33752903924511 -1.7998074370134356 0.49287224848838995 0.8120186559131176
Ni 2.9294490556586643 5.30898081129895 7.273151848393113 1.4958421082045208 0.07074158948993624 0.8242493936513547
Ni 5.652222660717462 5.480896079967403 8.830770409920122 -0.7540176539183014 2.542920271093775 0.30358069177598684
Ni 4.093708189764648 7.994860240722158 8.66155942637679 0.7511593585338998 0.11769430409039086 -0.3104319103698654
Ni 7.850521321730967 3.4742613276347214 12.690124698846796 -2.024534451715313 1.2578607995958981 -2.08930285434095
Ni 2.1568329557616375 6.750318791745213 9.088565127808641 0.09700206584836196 -0.5776739156158179 2.188108034836322
Ni 6.783818813601313 1.7146639413067828 9.704100894580739 0.9577076454442216 -1.1024360708342693 1.4524534568062406
Ni 2.568463784449811 8.864315503194973 5.2243514040806 -0.9874226560101511 0.9918974039520531 1.264224794140713
Ni 3.5251644360783394 2.0792917190106976 0.4491799196329764 0.11810053838987404 1.1196097544000783 0.23100667706300215
Ni 3.640298915367961 4.46581414368191 13.574306357528181 -1.3358719261640541 0.6219593677967546 0.6676051906603276
Ni 2.7944371608745247 0.8303553467929933 12.002080057201153 -0.764383827643974 -0.3543602363216994 0.7867002317529871
Ni 5.633200682354362 7.251099047075156 10.948337881524889 1.6095517166155504 0.41996733279854764 -2.143826439310127
Ni 4.50981856558185 8.160851837211773 4.235794457643111 0.634277008821843 1.1012729037641034 -0.1526402240379565
Ni 3.7709140472615963 6.032413875263916 2.257564817197805 -0.40801915929773597 2.1290071149091077 -0.5932252330868557
Ni 6.370523101893932 0.3142268936406765 6.082832235999731 -0.7124454869034698 -0.6724360363900677 -0.05670876554595395
Ni 1.1493027816792905 4.630517985350039 9.629572084287206 -0.31238157789706844 0.7816801528305763 0.5227775206882544
Ni 0.445435312577068 5.314591743021142 12.047462376760084 -3.416989673591051 1.2726616120541565 0.8969221387257328
Ni 8.67422449504611 8.156179126859524 6.487867000527276 -1.1025011197442496 -0.39430978013144347 -1.0853120095594728
Ni 0.8984922940475913 0.7501043059676968 7.668278259394191 1.58436544715791 1.001728273999546 -0.3349093266859393
P 7.5296956044550445 9.10194306075414 10.750276590855897 -0.46318037785091193 -3.9153095754575733 -1.4061620299388684
Ni 7.585722137438434 4.790116798975847 7.712381102555487 0.9960836741192588 0.25271527238468733 1.2265157096257135
P 4.40935529300845 7.189351203384875 6.4335853753270005 -1.9834921890620227 -0.14235118340712258 -0.2941946225753965
Ni 0.4006094870659939 1.509653373726125 0.3672833121107946 -0.3713961087580636 1.9182280777468896 -0.6616222336040154
P 2.595754988416601 2.6805812381576644 3.799338475471294 -0.8456476568214727 0.28850477127947083 -0.27922206042596426
P 5.518728476972933 1.0307925451076287 8.143008154510333 -1.401092328725445 0.08314587669156003 -0.9686325198868415
P 7.674448444638857 4.569156468106205 3.217795756686951 -0.537624613003416 0.23806075569630614 1.632688816853646
Ni 5.307076773812894 0.6576269529372581 0.6450391495572273 -0.9396538732663042 -2.5337087797978364 -0.5677728544520222
Ni 8.832544752099155 2.9075020342010434 8.940719836403515 -0.3744050707877165 0.3194461980533337 0.43256419562695175
Ni 9.299981355801322 6.57033665894502 4.650226153068018 -0.43935576462748854 1.7634368688042017 2.583215371168396
Ni 2.465452596979613 5.452593068640874 11.749064749350094 3.347217647103235 0.9750471651639336 -1.4221018410975765
Ni 5.136016942275857 6.026168264379706 4.262342443112928 0.8045632280763368 -1.0742007301376597 0.28265705424944226
Ni 4.992726623639304 0.30273736115839905 11.549589687852084 0.7880305205286364 0.17482781587858923 0.08126125807433747
Ni 4.849841027946647 4.457581711073121 11.613752071832652 1.2412956961483652 0.06796994028207003 -0.4336787688473693
Ni 7.596649656923619 6.552905977611327 9.525263943746793 0.7137814321060739 -1.111841166198253 0.7085613213577152
Ni 0.38063089083550267 3.1581359154572244 11.505203538630061 0.6950056941604676 -1.7432542232087396 -0.9353313346315504
Ni 7.098058584790205 5.841715782699208 12.461086465946943 -0.105581837097573 -1.242992367124498 -1.562850713014586
Ni 6.875424172652631 8.253947312556527 0.2206071181186048 1.3422109810082046 -0.5175509821819926 -0.9846918873425494
Ni 0.39047577644576725 7.349980220867872 10.585764072761245 0.6105850645215419 -0.5709929040512166 1.6034363477464322
Ni 1.4687395633977527 5.482919694686882 3.4212150272382003 2.4886627953017912 -2.3268930981587412 -1.1970313270133512
Ni 8.799311479456078 6.3409875252382655 2.5100420274984563 -2.459774137291899 0.9687556757282672 -0.88860282022676
Ni 5.724980808131453 2.1722032293809517 2.2018160713259074 0.07924062809988289 1.162129887150476 1.8551067238063728
Ni 4.0410758105607485 3.8877502025653254 2.511145817345445 -0.8733379236478895 -1.6811463981344015 -0.7812865169365835
Ni 1.3110999767503497 1.0522612576315544 2.897252425646883 -0.2461900696716599 0.623269859078062 1.0594199722840592
Ni 0.9832375991998759 5.490443862143853 0.9840249692907275 1.2764727582701305 -1.4225497272682728 -0.44075984406386676
Ni 7.617860818483248 5.005291431397523 5.507428428414388 0.4679443748984586 -0.21556386014537068 -2.5196548728079318
Ni 9.194155504221301 8.6608134484052 1.3244861881197023 -0.9440669147323353 -1.1840534266964446 0.20351361384905592
Ni 1.8229917165399758 3.2690392003333906 7.8229633685511555 -0.9688407792429057 -0.44834228439681495 1.6952512129668995
Ni 0.1139497448538543 8.924288084881347 12.405041536466106 -0.2782620105055401 -0.6131649094335762 -0.5674008158245841
Ni 3.511403855985883 7.689919898994145 11.668638941799024 -1.5792625787137058 -0.1290441818855713 -0.7887108344251127
Ni 0.10863499674060484 1.0268832893995448 10.380500553340653 -1.1112469842576798 -0.23543591647894938 0.2774271733090706
Ni 2.6942774305090467 3.1366947976794735 11.462042596138193 1.4414059407428272 -0.08947181890958786 -0.28742182262793725
P 1.7544739617881668 3.1772958675511993 13.380647348698927 -0.8196828573265948 1.0145256828745302 -1.160444529028253
Ni 5.131850135603475 6.757355452019765 13.014249827940343 -1.9304580441541785 -0.2617511573347105 3.0722654176972184
P 1.7963075969890296 2.0742142857145507 9.743815253275384 0.5972898900745326 0.8430467288635158 -0.8242576211814707
Ni 3.641623463184347 1.107919860665948 2.7001201580991054 0.6650862808932159 -0.9839843197525634 -0.5940991510513769
P 5.45635515236936 2.5447139062421096 13.010870391358813 0.15872396833819116 1.3458843160947338 -0.6821524923468834
P 7.22721119513658 3.9786840894597253 10.141122569049138 0.32334707576963667 0.5294225368085979 0.38190112205444554
P 6.331678897528663 1.296060840085132 4.224216621973075 -0.007731821426618941 0.27631774229497574 -0.832967747360959
Ni 3.9652362498239158 1.7188031532329895 9.842724941639148 0.6640717235857724 -0.8752009449985572 -0.5427323665436266
