# total energy = -381162.8938567182 ev
CRYSTAL
PRIMVEC
9.31965877290289 0.00000000000000 0.00000000000000

0.00000000000000 9.31965877290289 0.00000000000000

0.00000000000000 0.00000000000000 13.64026265969429

PRIMCOORD
 96 1
Ni 8.222250434180415 5.364498184942355 10.43849794182523 0.47207768034054176 -0.03044906051847659 -0.5711559119916422
Ni 0.19279764780648645 0.5699614480034279 10.66244375364129 -0.4150680957247174 0.6938075600873084 -1.147671802743617
Ni 1.4919003179990604 7.401421475667117 4.5440625160350665 0.33080558893021095 0.5997342378499672 -0.15300737756938812
Ni 6.6750193012316705 7.577367316232232 0.2959345851017832 -0.46561032744864334 1.699118666342106 -1.1787723808031634
Ni 0.3841414288229863 8.663582881871555 6.343622482010796 0.6061730514967754 1.1808027809696309 0.6733276949664018
Ni 8.549118831136838 2.1658421324291552 12.462712945660082 0.3847157086851052 -0.15058488417082455 0.2105188415222955
Ni 0.9293507947268913 9.086453085261647 2.8077662586733587 2.765500157545663 1.149187210946879 0.0035139266905294324
Ni 6.632680090802763 5.574181190762289 5.777974172150995 -1.6354887481962868 -0.399649447176802 1.8798407362179432
Ni 3.0217502870803363 9.362622537746741 6.1509124389980645 -1.8009145540346856 -0.8379654576858666 1.9898901221685663
Ni 3.1908741373232066 4.470603100573317 9.867229877642595 -0.663621009201599 -0.6480648066345548 0.49277737478173844
Ni 2.7279480399372003 6.426985898996383 6.270360643317942 2.7118144950967493 2.600419907972141 1.9490255227437208
Ni 1.7451340899062227 1.3755164175288468 12.288076517171845 0.9910576816595771 0.15202367349988014 -0.17491626182733747
Ni 2.371424488328614 2.5876126160678474 5.963727089787283 0.19343797478060878 -0.3422891640897783 -0.5511892390617281
Ni 4.174312504501166 7.487702877857479 11.748413280285384 1.3992748159007322 1.8834680485578852 0.011164244146935611
Ni 5.222671615647375 5.0306493634622145 11.026475222467909 -1.029517271187356 -0.816956202424051 -1.7020546090419784
Ni 2.2589455249417623 2.3256929220564055 1.9040165669727065 -0.22833504376810998 -0.7008881210831736 0.4497283661110642
Ni 2.936671120889387 0.17883120696370444 0.6402885261054682 -1.4350524877209738 -0.26952874439760033 -0.1057024218358373
Ni 2.6417039163824794 1.9448543803511842 9.78391492288334 -1.64532090379536 -0.23287021263430216 -0.06440819107274069
Ni 0.37492055829726323 1.3103626820878422 4.887892692207999 -0.6606303020043913 -1.4188892476975499 1.5054210101422074
Ni 6.332046533678472 0.6755373400355164 3.5281628449070914 -0.22514456185527032 0.7591786292939506 0.26874070127866617
Ni 6.397815366607548 4.196968595311791 0.32857109863931055 1.0270425843946183 -0.7519656564852791 -0.15076203317863715
Ni 8.18489724126845 -0.10860198528022096 8.615189621014602 0.9356856326471756 0.7730466455252945 -1.4495008019358198
Ni 3.860109524003666 7.118178402069205 0.7227889426759735 -1.2256543900666825 1.601878516341009 0.07373306801809237
Ni 0.6440611240323052 7.7382339486806915 8.573518630129556 0.3329493747460911 -0.7053356153315659 -0.5071267015248749
P 4.049531591352888 4.638543354134596 1.4563029488257717 0.13098510766202603 -0.959592006951128 0.8256305902695975
Ni 8.58085226972597 9.004989946727845 12.60840437750511 0.6370594566629868 1.1686648600555163 -0.12446710403785016
P 7.627339327308568 0.93658844183653 6.662558917268772 0.36891088044236464 -0.32690959630991445 -0.23392385070979715
Ni 1.1129163884169626 4.294331071946346 1.6309664043248475 -0.7328309925383573 1.1263645566254086 -0.010698360254110606
P 3.202449153689639 3.044602090728075 11.599706938782916 0.9014848183957507 -0.7826908534832778 -1.1838981320655029
P 0.4603231166523959 5.363631456663708 7.955001759204137 -0.9780034195787801 0.5588711810870182 0.6364801871207489
P 5.921021616763206 6.285615992988001 9.472862919063369 1.0214000413968602 -0.6288815488378847 0.8398495620824568
Ni 8.957413087991421 6.873602593289591 12.386627250317446 0.10819202102691045 -1.5149482329063522 0.30544242757507395
Ni 1.2137737371428314 6.038915301976869 10.123475763309525 -1.1925594072849268 -1.4731855471472695 -0.5056853410926581
Ni 6.554348357662778 8.456677134406853 5.247354732270962 -0.3057231920402864 -0.49945015881622373 0.6534196431885649
Ni 7.844040036287861 2.707966691233794 4.48318650403383 -0.2134714963927162 0.3710801201795415 0.500224575088403
Ni 0.9723013747803048 3.256894601042857 4.011819591572881 -0.06523428651846185 1.8296934259395907 -1.1333548719003126
Ni 9.27529733375844 7.994319536214366 1.107264947253835 0.09649992940096283 0.268040589887848 -0.6488865312049018
Ni 4.681441744098112 8.432939963162648 9.075740137344406 -0.961945594784969 1.2873202425075958 2.990748591968649
Ni 4.221693650400474 0.6614255125137357 11.037182578589805 0.7448362445293494 0.08694545294330833 0.45818858106327537
Ni 7.263406646866396 6.58336977550905 3.830308982672503 -1.0619072574822872 0.9763877383522281 -1.239987261749587
Ni 2.182300650064517 4.078972393850118 7.788616956714966 0.9317590438992599 0.11735903223815917 -0.304050946544186
Ni 8.504673377794232 8.774775732328804 4.063979858561326 -1.006899276677524 -0.5175180720615281 -0.22437477356878133
Ni 2.896214481560335 5.824656343632041 11.70910202703639 -1.0046971268198825 -1.6543434190089443 -0.6554081343735035
Ni 6.55990287437324 2.717519341616719 2.191935313445852 -1.285237134726322 -0.4748459871142984 -0.38714822938599774
Ni 3.0669785917713956 6.9840591906929355 8.908606034278858 -0.5124422002005175 -1.6796338181446169 -1.0787770366544325
Ni 5.0306959617567655 8.970236938651817 1.8282048696020305 -0.5092308923520714 -0.05833961628115759 1.1006560961157108
Ni 9.100646925781838 4.54218740066234 12.980388311279778 -0.7264250890120134 0.3398885250680856 -0.24499707780482324
Ni 7.136305138649487 0.7664049463755731 0.3584098505720046 -0.20282430109151522 0.636631882207265 0.9416693610344363
Ni 4.03597148763859 2.4523843652812687 0.31900074090445607 2.351491613433711 -0.7060994900807839 0.06696078229126533
Ni 7.814916102193577 2.3571747298549632 9.481973817613953 0.08062902380697727 -0.8522204249429839 -0.8618751744239286
Ni 1.3754604995753856 4.958263572706917 5.783866992479896 -2.3310330884690433 -0.8693812529929865 -1.924064481923009
Ni 2.4670628280647877 3.883166360147428 13.326155112574245 -1.2299535316626689 1.5440904016879473 1.0439833260140148
Ni 0.14115462188755673 5.919269520888095 3.2633512607358237 0.6246623685502145 0.06981830634471846 0.6893991466069675
Ni 5.5087758245307095 -0.025602034992130353 7.131224992577553 0.8546143790964572 0.9110220684622244 -0.8213337626664565
Ni 7.696360721197293 4.6205657320968765 2.6335529426996436 -0.4029186048463771 -2.4046797674209164 1.6104580304799037
Ni 4.415896702770615 4.850724028542456 7.933422088997636 1.3971788526036517 1.2056982586597298 0.4059154826911719
P 2.303707846687313 9.197813689579279 8.415128231053528 0.2778634895155408 0.18517007834486174 -0.09651869845404022
Ni 8.34097356903708 1.3954325286198819 2.5502650149512287 1.6709226635238645 -0.3149303124608512 -0.572057340759989
P 8.586686376203735 3.276801392474982 0.9757123699414272 -0.49708345835625994 -1.1525409579104602 0.5744572084507332
Ni 3.900547524014897 1.434770808879713 7.915662546978416 -0.02576913854430401 0.27047259636810833 -0.5187619717709583
P 4.349112027020331 3.3389355584290907 6.552891694975118 0.17277041912892827 -0.6539024963622544 -1.2748910156053075
P 6.9825866845851285 8.222949408598677 2.357050778391458 1.0369225625124914 0.2975614821651004 0.4986199496054445
P 1.5137362788255908 8.418457213216241 12.689454655149193 -0.14382134019474585 0.45674979173421987 0.7713525456523231
Ni 6.255383019483407 0.6262083854239819 9.224786646397096 -0.6362174203776655 1.1149745696209121 1.290038155659391
Ni 5.532261364984341 7.085904423263283 7.632272222769722 -0.980648313400795 -1.5767231001213038 -2.5794389348450997
Ni 7.160834480901056 3.5317499816216156 11.210631682532885 -1.3554529336197751 -0.060117277006870654 1.207508058174959
Ni 3.7366240434439018 9.110199576164764 4.130857730900712 0.7324640961172418 -0.6767398059717442 -2.044276410228931
Ni 1.9483678917603184 8.174356707041047 10.562392555411149 0.7735320698021452 1.2653493946634595 0.8808959385008054
Ni 4.001479430012047 5.311832792440979 4.5941221319051575 0.12635223687570496 -0.3465332840781129 0.7243026433523719
Ni 8.593051703239382 6.984944558289401 5.593326566061453 0.45883804172181625 -1.2279115615319758 0.7531141682674256
Ni 1.5691509707054665 6.243174266311083 13.408323749287549 0.04866095554081297 0.48038182933086304 2.0907277597129346
Ni 8.116789173952922 6.066259181219309 1.1214942024778838 0.6964269999880264 -0.5734303098481156 -1.662400742095782
Ni 5.704749612093782 3.7358411920954473 4.321262090299067 -0.10624055372749444 -0.5108473449095717 0.09940090509784172
Ni 4.967527313663628 9.42916490236536 13.294305178248736 0.11290588156281199 0.3554550120477749 -1.5245821564516906
Ni 3.4691964310165493 6.929716259587729 3.1001314144125462 0.4333679224751698 0.3802880119310547 -0.598156351839886
Ni 1.105619095490299 3.752290390071899 11.302049148748642 -0.06743309394199355 -0.29402904353180975 -0.40074113757908403
Ni 4.987201113622998 2.561620087367381 9.651154517776176 0.667865643410566 1.203218943881302 0.6512534887751816
Ni 0.5839996502198183 3.1958415155223276 9.11494235058415 -0.7896875965160851 0.7175591539809514 0.4300586555962787
Ni 7.733900307287462 6.828001502242125 7.876638339223857 1.695413706686693 -0.4064633847748419 0.8011012376696655
Ni 4.412625502493144 2.070250390987533 2.955258248619831 -0.4079993618033942 -0.3943956549770305 -0.010432765297549775
Ni 6.425140606532169 8.399407830403852 11.679488810849325 -0.2199830722589889 0.32088987247839573 -0.8035633260569129
Ni 6.758747116880645 5.944917222208885 12.257904121450167 1.1190322846300536 0.3992830649763188 0.5954831758830971
Ni 8.27869960819932 7.691635654129837 10.43336840156107 -0.10521931155183169 0.6255715106280452 -1.1275477783002323
Ni 0.8159212261312019 1.4307447162305191 7.53204395102029 0.11098938126638949 -0.7596730524318658 0.5860189451464036
Ni 5.811422427979598 6.32266163715593 1.9567089864849214 -1.3342549593859214 -1.596683859513947 0.614809901236167
Ni 7.2127543006896175 4.404517399241296 8.347282046153376 -0.004302741140411945 0.8581920691453866 0.42509796915689363
Ni 6.543183406288393 2.9197932186030675 6.640844112008073 -0.21151642954887445 -0.5625098062808699 0.02638440353079972
Ni 9.129248958977152 3.5139680724210103 6.733775090830842 -0.8872805018709107 -0.5516049864429081 -0.06147739057919089
P 2.2775662034442834 1.4266813449456845 3.984812152017098 1.1038085257017636 0.09760524664999964 -0.7337247079972202
Ni 0.544661369959987 1.1258707143021 0.6366044649382776 -0.5442626871452239 0.0454416772725669 0.344180210464904
P 1.628908623637482 6.694618543919759 2.0529279409711987 0.5914943664386781 0.7994978977382876 -0.8484779271814162
Ni 4.590481873134846 5.401506550474644 13.228640725499455 0.2089586961240272 -0.4749259484226143 -0.5808042337146836
P 8.438867266229517 4.873613110825836 4.94947886221819 0.7764394732569273 -1.6624871311620015 -0.4336160339302339
P 6.132643111636456 1.955376275260767 12.397730691943027 -0.38688083465722406 -0.28042507959512997 0.3679536587354179
P 4.78493655629556 7.177134564334945 5.561925839295414 -0.8958096223878443 -0.1618262614125987 -0.6569363980925719
Ni 4.771982230410423 1.4445564507353923 5.420572708673071 0.5382895002809245 1.482652348987124 -0.4418638757613229
