# total energy = -340874.794233538 ev
CRYSTAL
PRIMVEC
9.19722365523450 0.00000000000000 0.00000000000000
0.00000000000000 9.19722365523450 0.00000000000000
0.00000000000000 0.00000000000000 13.46106648904903
PRIMCOORD
 96 1
Ni 1.5265459939382346 0.36802138836745674 8.191785971988656 0.17019391665100367 0.7056968553257267 1.1093029731574313
Ni 6.693693429037875 1.9713145352649033 3.4283994168659198 -0.17670394985537954 2.3301239463912125 0.9040623493149398
Ni 2.7159309639410214 9.290023695871595 6.090270939292231 1.3280249193158096 -0.6554754972763291 -0.30921012214762233
Ni 1.2839324297277221 2.9041797388096966 12.148235710585453 0.06912256582927451 0.32435571953980913 1.197030555682403
Ni 0.46895172134619617 8.297836399406002 2.8394101302862613 0.615289669086063 -0.29569434704937464 -0.17521579534562728
Ni 5.087720211151728 8.43396450751775 6.012021879701397 -0.46540772451953394 0.11672037021289576 0.10287472257905508
Ni 1.2752502505467551 5.200478173819794 8.1900357403169 -1.108568923204884 -1.017250538004861 -1.564680567134473
Ni 1.143214906985357 6.9973765586738335 9.52934465399441 0.9133553445810915 1.5003664784374353 -9.975880265789271e-05
Ni 4.5570404031625475 2.805438345073616 9.020530325650178 0.35422936717078995 -0.46910317109325017 0.14634847749197374
Ni 4.858387437976508 0.6169608030447798 0.006415063536784284 -0.954980990541678 0.20127418299557595 0.29922550013108473
Ni 5.471621525974543 7.384864790743022 0.8788756609302683 -0.43719038154505346 0.9011819424433513 0.3259868273853289
Ni 4.888232428911082 4.375551587719731 6.929595779108185 0.39401436037821175 0.04743968153920217 -0.06408037541967675
Ni -0.11825606300109674 2.061686455426111 2.7432439591886033 0.5875461804242075 0.5798760654734594 -0.9215993297574387
Ni 8.627897166638371 5.582521649453461 0.7654702137131142 1.2432535912056848 -0.6534170720854037 -0.8760344966434462
Ni 6.81654994333804 8.769985075713326 12.664777546289695 -0.38866698002336936 -1.0443854465484401 -0.20401729295835183
Ni 0.14716937517398382 1.6274027491273049 10.282477711824741 -0.09865631362233332 1.4179479668302033 -0.11673579683186347
Ni 7.525527130143135 0.2578524441733771 10.29546787059084 -1.0840999915292426 -0.5846251501226706 0.7567106273694323
Ni 2.3422477646585187 2.887891455621675 9.894032048767482 -0.3516037566224848 0.41138113379143343 -0.919756620121745
Ni 4.966040941486272 0.29693328715617817 10.63245230783108 -0.18489959829229446 0.29571877252940687 -0.7891057558706861
Ni 4.730500042307712 7.178984938024862 11.324324497982827 1.4610090596857355 -0.8741673615277203 1.599759156005161
Ni 0.31094985608816283 2.9531365606108473 8.277276925527682 -0.12307176635222032 -0.3365792581891945 -1.0496515800433859
Ni 3.9951176262350794 2.4061224833151025 11.924647523338656 1.2287278867856837 -0.09989429979449248 0.2842922758600201
Ni 6.760823964887322 6.14832565478598 12.932369850370534 0.5571248878198728 -0.28592518347775275 -1.1957992543784632
Ni 6.968984729085227 2.768695436357554 10.194294730906192 0.4249886972725391 0.15245767571350516 -0.77808035129446
P 8.52124616051285 4.4408426788274475 4.316964352973252 0.47148915482692344 -0.2593602885050307 1.3596224916164326
P 3.272390589985551 4.454574133824464 4.361856921617551 -0.28706109685440884 -0.4937608217409303 -0.8256976960621071
P 4.054651255301179 4.166323945571624 10.832834060216209 -0.5905019206184218 1.1201874812804193 -0.8076277259342736
P 8.298093921669844 7.675349904357064 0.9364649969043592 -0.3087385818278425 1.1273058374927554 0.03316980188374932
P 0.27146065637269756 6.596653521687895 6.730829059206298 -0.6394310422189567 -0.8089855255137486 0.9655783064415501
P 6.29057911388769 1.5569612127427446 11.818345091991693 -0.33270589127671735 0.19448261399503927 1.0526091200098129
P 1.1754235844130538 0.6096113015791965 4.414139459511749 0.25167551826626333 0.6954906042166861 -0.6035075888494703
P 7.4577619858577915 7.1897089008691495 11.026727171274883 -0.3454192250783277 0.27814553953233384 -0.2563497838134811
Ni 2.546426130990578 1.1764628706921316 2.510636974373103 -1.317356640968686 0.9287395403466456 0.5156717628814087
Ni 1.3198383910862967 4.522550814255106 5.404645503483402 -0.4895820077728923 -1.2052632280048403 0.19929006268601163
Ni 3.41403703232249 5.078210281836983 8.935981167818918 1.4588164229097906 1.0315157896746237 -0.006713664574749728
Ni 6.947371253369896 6.873959013727442 6.869895680292959 1.0359781963213512 0.023173352792669768 -1.303883803293232
Ni 0.4454969614443936 5.75934747247599 2.863060791053058 0.8242108271039355 -0.5534672364626274 0.493994020797659
Ni 7.304057983238811 0.5779581364635022 1.4636213484907552 1.1771736688574759 0.24907998962494526 -1.320579261671042
Ni 8.263282429932598 4.509637912168159 6.685223705724579 -0.1625888506102361 0.5196387179489567 0.045882878575043556
Ni 6.376306436076027 5.274598599687814 4.994526582756706 1.5916689227978587 0.5971492507316103 0.7199793333866698
Ni 7.8164629077189005 3.792245265669649 12.32555818368825 0.23077039268248 0.45593758024556963 -0.7583949570503906
Ni 9.598130690111415 8.748960222315349 6.215607025104247 -1.194401345589672 0.6072410877499735 -0.11638047037497377
Ni -0.10986911470117762 8.453425832885255 12.337053793601694 0.4476663413757129 -0.9974396739265209 -0.33988081175860174
Ni 6.252576185523542 7.1957974629642765 9.102925493688874 -2.040175243576364 -0.24330014971837455 1.3117639773722571
Ni 4.840425260073512 1.6073436042187366 6.747036406825683 -2.6450568299552253 0.40626412427984226 -1.6040768095439084
Ni 2.1711610092301874 2.182961047248387 5.745533242465596 -0.3357598476116927 1.8383860686175821 0.2516323237331537
Ni 3.624129213499212 8.599146645325128 1.8303689213745638 0.1175284679364879 -1.5396539631831483 -1.703133958149086
Ni 5.279611086609029 4.233831567593124 3.374366647299964 -0.6071685826408253 -3.0033606243057047 -0.6351892362234673
Ni 1.7482358742115658 6.72714373166624 4.990878963833855 0.23161577140191075 1.231033652100725 -0.3701820338453044
Ni 2.5906463825817734 0.8801237241875323 11.082468785005908 0.3043715631083984 -0.7902730367059099 0.9872236526254675
Ni 1.9922474164257935 3.5083637586784175 2.7779064559017685 -1.380503963051132 -0.48182164710118314 1.212462316856441
Ni 8.579510572707157 6.935663187588783 4.730097203909272 -0.317221422487873 -0.9378785265334363 0.8772768536909795
Ni 1.7773358900257386 5.1026197135597435 10.803340403227306 1.1230766299027561 0.010882708350774805 0.2718563640895124
Ni 0.5425028390666515 0.45846412715122103 0.9370554586664547 0.8117857139667052 1.0128279834571332 -0.41262631905244423
Ni 7.130892655252324 6.772991891853867 2.8264604393044803 0.35393549007945496 0.23454708611609285 -0.7525199863268524
Ni 8.332252410523775 5.870137229270403 9.266746442387369 -0.4022622022093008 -1.6994948187346022 0.9982966226101774
P 6.141059848056145 3.080692856226132 5.333355063350533 -0.3540041385338613 -0.7249695875124095 0.5021266772071223
P 0.04819253251096196 3.883067849792581 10.359192674500973 -0.30460887593018504 -0.04135953678339328 0.2176084013792252
P 1.048446713891414 9.011807678684894 10.310355416608033 -1.1581667887376699 -2.3578016148121392 -0.5834025905694791
P 4.8503490644551475 6.6432742486670495 7.303947616554307 -1.3485307525786452 -0.29120622937103396 1.3597546463189227
P 5.78968911349083 5.283538301132623 1.4194286885706857 -0.12351373898564534 -0.4805111558198757 -0.12195539335958996
P 3.6578922217336705 7.629832844222949 13.085044683656514 -0.10078364437798126 0.4527650960548589 1.2975558041926751
P 6.773663289184599 8.030169597813122 4.784628463000237 -0.9505779763779759 -0.7148558961171754 -0.18086322343939173
P 2.48660738798951 0.9207800515916252 13.404705230319141 -0.08768207399901673 0.6501489428570932 -0.06025508813631558
Ni 3.4626903457412554 4.919116706124733 1.8214172635389334 0.39886937447766785 0.9920246735585367 -0.35285254142792133
Ni 4.104380643893857 1.6457512104260643 4.360457104169094 0.9939609713493011 0.31244971213084255 -0.2538216180749887
Ni 4.728807753145319 6.405553607469539 3.0993567822980985 -0.2969163923819338 2.111826232254447 -0.5266159205977382
Ni 2.2293702380822413 7.373892502858601 7.267966237961321 1.0719209329645474 -0.9428479547235697 0.9688199533072993
Ni 6.062993813217113 0.2391379333710134 8.172308091618474 0.9966369755195674 -0.5716937867729831 0.8815767666179141
Ni 8.082777717426609 9.420900189245703 3.8988631617898184 0.35669865464688894 -0.3637573612658832 0.49443907875487747
Ni 5.812038367102853 9.02437108627091 2.928643434152338 -1.749187557974039 -1.833931118170022 1.1407269959946675
Ni 3.6930899968666795 7.62784624390188 9.491693979298304 -1.0792534620702188 0.5367365539715079 -2.5098209174366453
Ni 7.115450516645499 0.8012952395030527 5.917147918534804 -1.1786685082354473 -0.14332306040208867 0.8872619899281493
Ni 8.257635334575486 8.02883600037537 8.651737290213566 2.2707916271794826 2.286795973027539 -1.9460358439877774
Ni 8.829371549200086 2.1952209464520194 5.1926329419963135 0.49487950872640585 1.394414145374321 0.2933243041553013
Ni 8.479389595414778 1.3347011045994772 12.577576828863231 -1.0125965841726174 2.14108872866399 -0.39207292038112473
Ni 6.11851745274624 5.160874928530341 10.630244974141004 0.02580436265761362 -0.15043421752557315 -0.18582133877561546
Ni 1.9766673194633382 7.562555152794165 11.641884398750397 1.593186902104282 -0.042574640137417 0.19777054071769165
Ni 3.5046572775238314 8.266906136073807 4.145052606578255 0.31219697269008817 0.9538900714703443 0.3076034397821347
Ni 6.592882659967349 2.5725094574283127 7.645818538750955 2.8335474880328877 1.1309871429990843 0.037509824019999916
Ni 3.4253956036026745 2.8220393338677314 0.760173532579302 -0.3027702800595496 -0.708398827637922 -0.011011777729471359
Ni 6.050237263933213 2.8338025829910967 0.6346139542311652 -0.2936577762353201 -0.18769104499450256 0.219955304344847
Ni 1.3905742386295339 7.412530039658645 0.6948520906333477 0.5139077290024504 -0.6481445108325548 0.04560159988919889
Ni 0.042322864340100706 6.224405089303943 11.936991117278037 -0.631667339113138 -1.5152624217126613 -0.4630441093833638
Ni 4.9189971422165195 4.587694749783483 12.767094820603699 0.4223288910521888 0.1350425655608513 0.5794562043272214
Ni 2.8031942224887048 5.608752131470533 13.081867962587548 -1.023636644036863 -0.3058028962382862 -0.5780894058866818
Ni 7.666079102858744 4.248905817251604 2.405640548792769 -1.2115079233629718 -0.6463545088116674 -0.29857603947254385
Ni 4.0522139910183865 6.199958868686348 5.282957036594237 0.2365000960774056 0.17332552030144988 1.5239499221843302
P 4.93475198642944 1.7196876918199122 2.266695331059061 -1.4238627896527412 -0.18993458961304063 -0.9798263317201318
P 2.6636539443810476 3.5929230334557576 7.389695172634805 -0.07016206283738238 -0.2595739471777336 0.7281181604437202
P 1.413282183966194 4.130059292488411 0.7492628660937289 0.4768090243779401 0.6426858017108287 -0.12618537228053753
P 2.2449595322684055 7.098334483323699 2.8853392260425244 1.048458845286865 -1.0273919973142371 -1.2506437130221686
P 8.200906858740526 2.8025504168290993 0.7009866388470182 1.0036658573418906 -0.6429274854079896 1.6833369780278171
P 8.445056359310383 1.0274678466119804 7.702099109791305 -0.023164353931605267 -0.4534801198440126 0.3350941890032358
P 6.800537576861277 4.500937338539775 8.634345340180506 -0.7591819717280602 -0.6352401440660608 -0.6722912832820873
P 3.91144128493377 0.582385679956847 8.464345696594537 -0.5749218067919776 -0.2507046697125618 0.550503268738297
