# total energy = -340890.09949190734 ev
CRYSTAL
PRIMVEC
9.09493438875381 0.00000000000000 0.00000000000000

0.00000000000000 9.09493438875381 0.00000000000000

0.00000000000000 0.00000000000000 13.31135580800045

PRIMCOORD
 96 1
Ni 6.329337571606865 2.1870770370106953 11.318326483564869 1.8993572089843163 -1.1741927318522811 0.1957691940169467
Ni 4.600845311036476 0.7497290842419431 5.885682129792848 -0.24709484087411634 -1.0832903511437535 -0.11027821413197783
Ni 2.558577817686931 1.8835154154318587 4.736113359140855 0.9919087168059626 -0.8799019500186525 0.2677595683123195
Ni 3.2543130055682945 4.556134614099017 4.685956615554465 0.7515100570050993 -0.8595994910158744 1.5555238403358695
Ni 3.717445249150327 2.786578725238834 2.6351025947479116 0.2191541485997903 0.1889899663115842 0.25507863041054135
Ni 5.356416071568682 4.507931462396712 2.634903415687104 -0.11402431143797136 0.07000676820644072 -0.23951908540938752
Ni 5.563444060662939 4.391061556854331 11.747857492436683 -1.4372708355285313 0.5738046624683989 0.21542219236118382
Ni 6.118689798667792 8.067279468897762 12.286381284267977 -0.9099841141160134 0.14362490791322363 0.22618662996653946
Ni 1.9273620936123892 6.152632093413642 13.2696646429353 -0.24547273188966112 0.9617931283675049 0.09393885354200596
Ni 2.9275774914352177 1.8228976784326394 0.37918418115889796 0.422993264109065 -1.4958773323178303 -0.6393806485969956
Ni 7.975620721189116 0.010906645192717763 6.788352538438779 1.5829389991240288 -1.3788137198329027 1.1694626733664635
Ni 8.69993219258909 2.4617804321081334 1.1035247563485797 1.6278667128746545 0.4938603234332721 1.2304893495614808
Ni 6.898998780450992 0.9437176660540136 5.007186056472339 -0.40535215398853414 0.09967498469483478 -2.005838675078023
Ni 1.3739626272670777 7.320257946592004 2.043891848612569 -1.265384361666453 0.780461964152759 -0.12838083726995952
Ni 7.693295771162143 3.929648255851871 3.746574504673373 0.25455283981405835 -0.14929084794974934 0.11246596581191598
Ni 8.017493798630136 4.022198307120296 12.593447184026228 -1.1245113054667537 -0.8397318055576699 -0.7973183735884655
Ni 8.167842157269911 7.353045184683855 9.036347445280047 0.4305759615523294 0.1907282891589296 0.05507045861158257
Ni 7.070911228276835 0.9507116705179895 0.2269768179515857 0.08299623848757319 -1.02027569798443 -0.5330935579022819
Ni 2.142157156584717 6.621148538091479 9.03829103273642 -0.3784926105935288 1.3120583686842242 1.0361100939135253
Ni 0.0016589160133019677 5.222847866681879 1.2404144312356993 1.1381006141154142 -0.9874859051479187 -0.09141762978204901
Ni 6.3304198687865965 2.4410439819418586 7.036635149442782 0.8252678076135399 0.010570833537310828 -0.08199659357846524
Ni 3.4469437136918453 4.166625863541542 0.11260074338972775 1.2314010627424727 1.3026769274693244 0.12364692212939996
Ni 5.856100856035915 5.994671274778616 4.653091161027777 1.066597463869105 0.11396903272000374 0.908097695726578
Ni 5.039075624550413 2.8685422730013195 9.194858507439221 1.5179281414702828 -0.7707997584726468 0.19240464842008798
P 0.020902887463661802 5.764369348853 12.095456785816003 1.6402036371734527 0.39318132295395514 0.7375769918637749
P 4.317583582778308 6.284908817632194 12.447262486301417 0.3878578538585127 -1.335917691800325 1.1777040874396494
P 2.7111635301604355 8.870353071192447 1.2799464725921592 -0.6889548599806974 0.05531522763253699 -1.0361702577274994
P 6.365171612683673 8.032364016183584 5.880051455977962 -0.6485751706120702 -0.44141496114936235 -1.6020950032271892
P 5.012891308748349 1.1861795191166078 12.664650515037959 -1.011364254427413 -1.1001377617183958 -0.07417015555551097
P 4.164206611022143 6.330547197866564 8.068052538311857 -0.07772419145535646 -0.35678607215437264 -0.4406492866279314
P 4.90579845756068 1.2228230093446428 3.7657557210771775 0.3460805128114104 0.43967612408138473 -0.7951784444273273
P 0.08356516568980159 5.741477399261547 3.426129956584161 0.5037888954008937 0.7877682680061852 -0.17258401414973504
Ni 0.5143912932035783 0.35284888944772924 4.881313984976194 -0.259074896054128 -0.3609507450550235 -1.203373210070979
Ni 1.9066984029203824 6.845293193507198 4.354397148277444 -0.16326453652102205 0.05737596681630764 -0.3385818904415201
Ni 6.125192676680461 5.535313428924217 8.91900733163521 -0.5932573718763718 0.1600120910219954 0.04350229415800896
Ni 8.742996706421245 2.1543170837216947 10.101015913889427 -0.19884166229468336 1.8557099046080106 -0.6856643621548837
Ni 2.397843044095453 5.268950088564706 7.280605852103002 -0.4015078405417795 -0.8100556186494758 -3.0165894642911533
Ni 0.9106302951308088 9.034462065403087 9.080235050664854 -0.49542072594185643 -0.16028591350867236 0.23729585250582363
Ni 1.4460854561348662 1.2584387719986478 11.299650036013796 2.081992436722466 -0.9152348209919915 -0.25994110070916526
Ni 4.147235463649219 6.99426821707017 1.5486699483982262 0.5783699132415782 0.3936865447251478 -1.076810399846365
Ni 5.722005144960672 7.88968268714476 8.010800836490944 0.41307857609851434 0.3728426113966031 -0.0366148230095563
Ni 5.351422952647066 3.1087667722301835 4.845825551402158 -0.3961406626925952 0.021239883215382775 -0.7283858122828101
Ni 1.1510457879796259 7.545694082675973 6.559023770481492 -0.7006909174707029 0.17890918503681444 0.5242715887352778
Ni 4.855257907747529 4.675487436700781 6.806588791170531 0.44978930125598665 0.036572914028027335 -0.027808537571835976
Ni 1.074266352758709 7.390780067025903 11.039812311002665 -0.17191604154843293 0.1104831310539323 0.7097903086688099
Ni 4.776332068035716 0.5797111112273434 10.38493429640286 -0.5161844408517692 -1.3169462929041449 -0.1872848106950194
Ni 8.096519682619066 7.434499416126466 4.497854275210646 0.3995746280748086 0.39777871251665037 -0.07354126372226044
Ni 7.566184969616593 6.357695576702674 6.7138350133741564 -0.41555249156030366 -0.16998797128778467 -0.07722591166269925
Ni 2.581806279846872 5.359735722582141 2.216194469119172 0.028616635295428135 -0.8475973243486757 0.481107651753294
Ni 2.6818596518991473 5.160556661774504 11.334219881225206 -0.3156995865267079 0.4738779667740742 -0.6377688240251855
Ni 1.4073592259559198 3.7786177771408376 3.6122759765636094 -2.286169395187134 -0.7842173174301332 -0.5240885261901942
Ni 1.7342129742346815 1.392388964125355 2.5128111988791635 -1.8828682101903575 0.520321345838278 -0.19720258402936358
Ni 1.2166475489661779 3.350973967132841 8.086023218962533 -1.1888660175937398 -0.35911240629470415 0.2820237915408175
Ni 3.5445960230932885 2.6422512130947062 7.118300383360771 0.009628524228699547 0.8784191948255388 -1.4781112665836609
Ni 3.8071213011851817 7.031493783092346 5.858673812944704 0.7882670620194746 -0.09661537193290456 -0.16720423789506042
Ni 0.6525906386275151 0.13818388403565487 0.39494388328526664 1.0186492181246005 0.7810561460933322 -0.7670611173658209
P 0.318249030953186 6.0218924130889935 7.8213269800571785 0.16341648871785405 -1.214278029908941 0.38173605723149096
P 8.515486925320648 1.6828175005988844 7.940250521760763 0.5483008617703395 1.1876344591794836 0.11912666566154322
P 1.9768385361143779 3.464851639295966 10.226009414733788 -1.394915767601088 -1.119988735006052 0.7257059514578017
P 4.035449626371289 6.138926027448477 3.646645733220782 0.05705612158304368 2.0437886719592346 -1.274530289831779
P 6.862273435814405 3.761064553973772 10.0699203335743 1.09889489045023 1.6191879541537337 -0.9466369894523569
P 6.4025063179172506 7.888136548316574 10.161223469352462 0.029553288177084587 -0.9059258848862398 0.43102770437776733
P 2.5901281447162323 8.89010726845611 5.648181563381878 -0.2723343321671955 -0.2440005182195088 -0.7261546089594463
P 7.143734367084449 3.9914119545708053 1.3548432564164012 -1.0507185878553194 0.5522109954580232 0.49633063935063554
Ni 5.375124351389746 2.8363371107036097 0.6703903345136626 0.29292989693036003 0.6529195636236947 0.05823342972059649
Ni 1.399401158457898 0.9485834558956614 7.052036511158383 0.22973886609417207 1.3368628293224136 -0.1889287740563456
Ni 7.088864628552372 0.5895145408914781 9.2025391794416 -1.258112767705704 0.8965518998705077 -0.9497531664838355
Ni 2.7699531853686805 1.7774684816867876 9.072327914798818 0.07489417820572908 -1.7075932794720206 1.5044637884352607
Ni 6.80292898961487 1.7655450228411798 2.4848306335561183 -0.6051870334344223 0.8740154093308883 0.9584146988135752
Ni 4.2812947949873275 6.735380912691658 10.249344287624847 0.832593908961308 1.4297555009880925 0.5384599644205179
Ni 8.418434881581913 7.356410310368732 0.1649957503032766 0.4887191455519648 0.19233959951010746 -0.680514185412512
Ni 7.869182705269855 4.208680839668232 7.938213256481269 0.6693856795995181 -0.7180021550556408 -0.07360399863939582
Ni 3.4441788536696754 8.281665259827335 12.552262593110463 -0.03290112160339495 0.7600324926538136 -0.4011214037366382
Ni 0.23093402385831643 5.130388764756288 9.884467347587249 0.3298033729179417 -0.6808219464609178 0.306688127056717
Ni 8.660387418324634 2.576076471248297 5.813721190755306 -0.0001900045236190276 0.7787619507425169 0.16792054723579466
Ni 3.804647479060082 2.650127426184177 11.418241612616034 -0.6616312324650799 0.31251887480588114 -0.08471913471595087
Ni 1.301112203656613 3.285208497329187 12.516721408917585 0.17617841636921272 1.3938173923305865 0.010859825532639361
Ni 3.40324255445985 8.438798439442566 7.8486017784798285 -0.882888543450802 1.2541093029732662 0.48415826565415965
Ni 5.536241112221129 8.171625649931828 3.3243912932091626 1.6362850188453366 -0.9932986551749539 1.2741412819234768
Ni 3.17369550807976 8.694993643273175 3.3338554818245245 0.3421480105262236 -0.0842031143114808 1.5876752282574333
Ni 3.535000867424245 4.427686857213799 9.21313568737525 0.37123747169301224 1.0631411298893885 -0.8002172924028154
Ni 7.254819894422553 5.944276243913999 11.067114394228163 -0.1965577513565131 0.7546149211826682 0.05527537553353706
Ni 8.452841017976219 8.979237624433956 2.3783662423274365 -0.3062757221096467 -0.04220800082661764 0.42940893782742173
Ni 4.896485244854424 0.5053281911901167 1.614747374447803 -0.553034519800583 0.02143811526911792 -1.387379864235359
Ni 6.4291635703020535 5.880975501301161 0.19018053282758843 -0.9424622892493768 -0.11878316627919544 0.10078827236367156
Ni 8.259992031429865 9.038572975699207 11.184560009110688 -0.015471356162721744 -0.34931676036052095 0.8706629479188877
Ni 0.4945852548145011 5.209196370322415 5.471406054194672 -0.6220668399088964 -0.29546449042675565 1.1397646320813983
Ni 7.263460081991835 6.06691233779209 2.4643179187732165 -0.7254017899538218 0.9767240386457242 0.7054405163405464
P 8.693047327336515 1.8884175850106404 3.543069893120525 0.5723234499371821 -0.7390576901743594 0.3354135200158675
P 1.8669353502331225 3.5103535955160847 1.3936986346621723 -0.6922826388023496 -0.9969586205250442 0.14978732797019365
P 4.995656408281204 1.0731749606446948 8.003812288987538 -0.5343022334984023 -0.7927130136059702 1.2403996666966575
P 8.823523254566943 1.837140345520528 12.3326117447242 -2.038306308688425 -1.2433790610399553 0.6091930692700218
P 6.6947083665760525 7.921987893719588 1.3063818085804462 -0.7948902237629472 0.470520620266067 0.5952384068621426
P 1.6857096897010226 3.4057163765849494 5.914248408883748 0.5118557315694282 0.14759931917993932 0.6214289492145814
P 6.880690677738399 4.376664275883623 5.8514460686696435 0.6376940049231922 -0.29580619003689057 0.5038907110860805
P 2.6709821104961367 8.803141506837724 10.3170060512266 0.36753585447170894 -0.6386717954554291 -0.48744439260459926
