# total energy = -340866.7398471824 ev
CRYSTAL
PRIMVEC
9.30299983986108 0.00000000000000 0.00000000000000
0.00000000000000 9.30299983986108 0.00000000000000
0.00000000000000 0.00000000000000 13.61588062727088
PRIMCOORD
 96 1
Ni 3.6957934603108313 2.168399030606492 11.089917309000446 -0.20788217523039682 0.5568297251769571 -1.2794310695675062
Ni 4.303307261636075 2.517512707196119 8.555593150716707 -0.2776822267426701 0.530150416113558 -0.5892490220479272
Ni 5.293946507121273 6.178392008948022 9.186321657948676 1.2546448637617618 -0.860146107547964 -2.0070272960694853
Ni 8.408339686776968 8.453803447202622 11.517414341399851 -1.7390556117463598 -0.03172972700311309 -0.6694980368076663
Ni 6.8426727155561275 5.544039052961841 1.9413248973751325 0.6550625781086267 0.7888776990202802 0.19269132642257136
Ni 5.206293642228597 5.150094219938567 11.205447543340945 1.2976373081628876 -1.1162824897990582 1.466798669784319
Ni 1.4872240762118139 4.205225733875145 11.262471211420563 -1.7205557531699593 -2.7525857634768403 1.0377879958365805
Ni 5.989187597338253 6.223660406376145 6.775057582110313 1.1425769047192127 0.5852874662970178 1.002494462741609
Ni 0.7699218520735336 1.6765587298199383 11.033111331118079 1.8834500508357563 0.2710672925293138 0.25861595413983846
Ni 4.622186188607659 2.445247004109056 3.67673719535157 -0.03941732545535792 -0.35609290274209 -2.4159746236084456
Ni 9.295706330566814 5.625142605937254 2.3010570180306162 0.9957975103374075 1.1619897620281858 1.4221015839872606
Ni 6.532771183471131 8.016534543726664 5.158077124137719 -2.486086549934183 0.7909515508301733 0.3624517550805822
Ni 8.448547252269023 0.8111099537532019 2.3469561588507695 0.46878409719093456 -0.12122982804747508 -0.5013553462587366
Ni 8.90138007454836 2.9558049406591484 7.44440098125446 0.21867849451495244 -0.27136116962064877 0.09327602314702646
Ni 5.39438169385247 7.241110897522636 3.0928334774280595 0.5457446710073891 -1.193991768856079 0.827551204331078
Ni 2.2076204781110054 1.3690108567052082 1.8421465459280582 -0.8778754065069269 -0.6026267289064138 -1.2325387758913418
Ni 2.894172566437754 4.878995500363373 4.990983152348626 0.947391351119878 0.2598282292803848 0.22913491396158603
Ni 7.666174265152785 5.13168358317115 7.97712238472456 0.6998455387512722 0.04884401808589652 0.6025930474550009
Ni 1.7370468350557886 2.747166562294889 13.366260907843266 -0.9353737578337117 -1.4007873958905166 0.2681146376588931
Ni 5.997076541238592 3.8809789759713724 6.834518636159138 -0.1958283293896563 -0.6075249375389796 -0.39066961227569497
Ni 8.01768811571209 1.2154462376451987 10.41741461109621 -2.1494419857246916 0.07062177608262031 -0.278467698758443
Ni 7.438483343029218 6.436708406684697 10.273998634607992 1.565960205177845 -1.0584408962002418 0.7011611722389021
Ni 5.0466820732449795 0.5699724755995054 9.68351862606756 0.35289830706419223 0.02768615306135877 1.1659952836431533
Ni 0.651175570673662 8.68766225824827 0.18635118154581493 -0.25950992670901757 0.3533932444227398 3.3139802252063446
P 4.8904660992184645 6.423116723856402 5.115826619871472 -1.6265585355861922 -0.2065264325334508 -1.5846528964913418
P 5.122110796292084 7.782675732681016 1.0330488310494355 0.15001229949680617 -0.27379266188027684 -0.07807488992655585
P 0.7220923387777666 0.6234228614242636 6.190991061688859 -0.6434391349370854 -0.15326783031962637 0.7132949793879587
P 8.854697621138103 3.060891627331582 9.565782650454924 -0.2694009605704844 -0.44953887580807744 0.8741686470793011
P 2.0431341371889706 4.64388078433359 2.449646392753478 0.14473202493447332 1.1180370105963198 -0.19815054976492968
P 8.107638821575739 4.285659470859021 5.811584956881918 -0.3041039112693085 0.15233066321733765 -0.008388224063695231
P 1.7056213014527892 8.606233100276969 2.265396758881114 0.11024324712898431 -1.2794714358871384 -0.46332513095889233
P 7.681021852965215 5.049779972205843 12.262407874988305 -0.9865171134767462 0.603094926792084 0.2974470680744232
Ni 0.3046444068514099 7.8763197294980065 4.022308289585951 1.1816152495685972 -0.47298605108742414 -1.5734295169716968
Ni 5.655181992557765 0.8610075239228431 1.0209512100022655 -2.357836581815133 -0.3855397472482973 0.3586112982885695
Ni 1.7817384464911972 3.073366950173981 9.22433743666842 -0.08562699124220093 -0.6695348035828728 -0.8944207124601177
Ni 3.9802605907171418 2.672342534240145 5.8203669887709735 -0.19847656564578076 0.29477492055889876 0.9710848380820759
Ni 8.599153517366405 6.443964746593028 0.3179756056829961 -0.8272601554532204 0.566848799975856 0.15722990029116793
Ni 3.594753578587274 3.777631950276961 12.701288058043907 2.1267010924837506 1.7407083168584345 0.16959022162873374
Ni 4.31347544050762 5.425425804460288 1.7060157486478063 -0.23295351637672781 0.39670399139523294 0.4302682005039235
Ni 2.0504183860969483 5.2041446492557455 0.267882672515823 -0.7704081794611828 -0.2936958285621071 -0.14176445766571716
Ni 3.7167996340454597 3.1636153520338675 1.574418303210284 0.20341719748050777 -0.3312583601969134 -1.1835227510039554
Ni 8.220260938152977 0.339970688305131 4.909219086381557 0.5826721401613578 1.225991204580811 -0.42028126449454073
Ni 7.5095489591314415 9.067345592451709 13.674292536951887 0.39908817535669333 1.0117910575521865 0.5337610162829517
Ni 8.68574584027248 0.4195587825996901 8.258970720663953 0.7342774951768967 0.7758578897218444 -1.4050181461424125
Ni 5.813984200551608 4.646262352303504 4.052970977198588 -1.2757752179824737 0.5231842692083699 0.9099542893193425
Ni 2.295412888001919 2.9100620902370204 3.5946605485884495 -0.9087949789039188 -0.43959256322864293 0.9880973134796726
Ni 4.995124847896304 0.3632979605104363 7.31349753960817 1.1631290178389515 1.2671368255811855 0.8030894717442879
Ni 0.04220864076677584 3.7127993440959948 1.1993287903488112 0.24873674735291354 -0.9442589761384835 -0.03954562350310609
Ni 1.0694170484899936 8.871610474924442 9.719287730315687 -1.3586974086990018 -1.2153545508025714 0.500748565912673
Ni 2.898665915380989 7.228440211682705 1.010840709729992 -0.699141570705712 1.830733951388963 0.9649769254121253
Ni 5.871160437829297 4.4066821963301335 13.728347617769005 0.17308923592092773 0.13367705267189237 -2.030148455467981
Ni 3.468028114188204 4.701066324611162 9.627189892079164 -0.27365510786114805 0.11754338033482337 -0.4853921380612608
Ni 6.2491785350537725 2.1322289670634307 5.066305821197071 2.055702392677685 -0.36247849455345965 1.525774376987579
Ni 2.2433533006595905 1.7279857131702583 7.158100229571313 0.15300557779717522 -0.7751750047222069 1.0887809419446797
Ni 3.946779094140116 8.973134112641887 2.6937115249701895 -1.5536538770066661 0.5889384327860437 -1.07455734214613
Ni 6.6315225272236 7.237836241564004 12.610143777295338 2.142344712558278 -2.533056748036134 4.3024485488721895
P 4.409007946300752 7.95569292449528 8.990797718518742 -1.4332192911669768 1.4276816491781994 -1.281311831529987
P 5.894073726539832 4.068546059601826 9.236931837909315 -0.41405045309348043 -1.0705034837917307 -0.5480314101590368
P 5.992294799298999 3.540247302275855 2.092706102362725 -1.3504734781273129 0.04980355378568842 1.219195007594584
P 1.066105180531833 8.46331111308251 11.901573348846748 -0.551542765746405 -3.049385684885568 -2.1526610068826217
P 9.297185507548129 2.1194745542245577 3.8869114989964264 0.6896642273428961 0.4417389201476844 0.2596945319159979
P 1.7286090141623842 7.074531381627044 5.539688970216795 0.4187481156794659 -0.40310346716367357 0.15112070206963651
P 7.004870518507073 0.08568807131749773 6.697134724794717 0.5984417442907887 1.0949094234399206 1.0888004823287054
P 2.699898019892035 4.055307890769066 7.41254006725696 0.7860775105673237 -0.25103145692436124 -0.46614923067124875
Ni 4.544534048588643 9.015946518101035 12.917862825607907 0.5562327150229065 -0.6122884203658938 -0.20896512388193042
Ni 3.530293092401607 8.651324740707324 6.225030738258833 -1.6102191749962202 -2.0531276899719737 -1.2342159064834486
Ni 6.805088596030929 1.9659936621634904 8.157559649245085 -0.6137148683997753 -0.19057530852083307 0.34823021216456157
Ni 1.02308810907527 5.605717942182647 7.176195494642715 0.8833122612517819 -1.1996528237965984 -1.9837960934556869
Ni 6.1552368422405435 0.35092869186669795 3.1821943730991578 0.6053862939294219 -0.10473105906150348 1.4793207135107296
Ni 0.2956800361646573 6.271570855770889 11.914304504185916 0.9614419156756733 -0.021213915073453788 -1.2262963945260557
Ni 7.1548255736126825 2.377186256968871 0.8225275255089631 2.021683098309447 0.6796564653979069 -0.6286666046136011
Ni 1.8380681107795813 7.980327268184073 7.613782560714653 -1.08868529690708 0.41387844629199044 0.3004686285095664
Ni 2.6465360125661603 0.2221863370931074 11.726282503861206 2.1079140416842344 1.0932230368764333 -0.7870326753917414
Ni 7.881371258434189 3.7958193150471993 3.496353888230363 1.0136965021050155 -0.7210085459821325 0.12900921488257783
Ni 8.666051389521282 7.418472590282015 6.1897928353039955 0.21197665701474458 -0.06911099586504871 0.8143017955203394
Ni 0.46808881178660744 5.417062407565943 4.655010893392983 -0.40710384657231824 -0.39053771468352094 0.48306194726618734
Ni 0.4415603773217427 5.019870827583687 9.39789885397581 -0.9897885851391662 1.2488663094067718 0.2570948895096218
Ni 2.6763056121900792 7.156983869585416 10.294354528650834 0.23620287655196096 0.909847331427833 -0.849481428745266
Ni 1.6658137649556801 0.36582558557850464 4.1538238686245075 1.2803777497514917 1.9778889839426326 0.376227725818752
Ni 8.779417746089116 3.114504815654284 12.473698538619058 -1.0066987306309436 0.9836421059217962 -1.1666398592056877
Ni 1.114676142918233 3.3490799576908827 5.752110878633257 0.076849502159887 -0.10691135454227393 -0.6439731530636845
Ni 7.754813248033004 6.700783361348623 3.9586134402906117 -1.0800595029112818 -2.27639303252666 -1.3099127830961312
Ni 2.7310072514990305 6.791050369208275 3.4669164057022486 -0.29252443396182526 -0.08447462280531258 -0.0976795515313608
Ni 5.544011143962193 7.61220756283455 11.000774103526597 -3.7011971030467485 2.0976368281279423 -4.086336529532833
Ni 4.285585046859961 6.476608973180632 12.974150626396819 0.3113166269676639 -0.8378374167484346 -0.3697302910198665
Ni 3.6049403634585837 6.262398097886769 7.053884303687878 -0.3121113549548173 -0.2960496735062643 0.29494564180880817
Ni 7.369957445894909 7.848913091844236 8.311759663197067 -1.7903295794299874 -0.5131325413993227 0.2125189026714598
Ni 6.108675327828758 2.6551040754579196 11.07706335406283 0.1155363772071236 0.08673230849123773 -0.08315873220736646
P 3.704194069204706 1.6701210539012659 13.314860903192606 -0.25523521059306364 0.12930540596675794 0.7671644757129046
P 9.162673432247427 1.5261664337198528 0.18273324489152054 0.22210294681546913 -0.4363326615304485 0.8118350791474017
P 9.241190751255512 6.938800613341738 8.338079710464566 -0.17675820013208268 0.9252978616549483 2.0003200592526387
P 6.2382289041921 0.2979053137365453 11.661865741774989 1.2410177598966303 0.7438967634342156 -0.4867411958899875
P 3.9312151753367353 0.5336954275577953 4.610078334260619 1.1852068235745974 2.098730575412753 -0.11705332807228229
P 2.8136178904554052 5.578236880529817 11.58887068349714 2.0055314282502494 1.2491002797944486 1.590525810332351
P 2.4555640309787203 1.049527234741263 9.456447283736164 1.6519304386920775 0.9091739595098923 0.008939725691791056
P 8.197208104444204 7.866319004624345 2.145712735093089 -0.44316588240219806 -0.5081589994441313 -0.45413343715729537
