# total energy = -381162.9334573091 ev
CRYSTAL
PRIMVEC
9.29578931614385 0.00000000000000 0.00000000000000

0.00000000000000 9.29578931614385 0.00000000000000

0.00000000000000 0.00000000000000 13.60532729696793

PRIMCOORD
 96 1
Ni 5.156272078701074 5.0715223675268515 3.6222279401331554 -1.168310304929575 -0.20291634658468924 -2.849963724607382
Ni 4.619691232138654 5.60312996680637 0.9062818242050351 -0.3174263394098275 -2.3298110431364845 2.250124328638118
Ni 1.4407729773297049 4.996533235132156 6.603971348648515 0.6513077390518848 0.645981698853281 -2.0554625087527376
Ni 9.197597891311625 7.540130769287144 1.6175779604998897 0.4699773461680874 0.6618832005748859 0.9200186155338801
Ni 5.521094626111789 4.434686433214736 5.808889474531285 -2.2860043303641793 0.017046671069641608 1.4388605486131543
Ni 6.255043671385525 5.462131434494142 7.76449208100797 0.551956456245056 0.3780100145301554 0.9418465100422488
Ni 1.4701197841934779 5.297493709956834 8.805572146052906 0.49307845096192504 1.2670812897529016 -1.129140319598333
Ni 5.611505472978135 0.6736500487316911 2.7936905202754367 -1.8310566248357045 1.3768918202198415 0.15373474265371587
Ni 1.481962619779302 1.8571685638535695 0.03722591788617823 0.5046286176933696 -1.0661976573275251 1.32324318165645
Ni 4.557930007937543 2.541561756295258 0.4807930965743785 0.4300383438813046 -0.8843551006939996 1.0955632549738357
Ni 6.978098051583448 3.088051914266225 11.808376094837687 3.327222177817915 0.15158838573467442 -2.6377307286074574
Ni 4.769399919037945 8.595881449027173 8.579124859210056 1.3085698959149914 0.007226085434794006 -0.08512665456701468
Ni 6.808254685030393 3.313800157752675 8.662593610616831 0.5710420121215972 -0.62126234172973 0.38319618671678524
Ni 4.540360966134397 2.8941510449689685 7.935062378285367 0.09584224121230592 -0.3789782919806957 -0.4484196746019697
Ni 6.2596636786744995 6.305036426315322 4.967373273633592 2.5200955598897763 2.686564976501341 0.44362148188237793
Ni 1.1803328481240278 -0.004302091294442213 12.085720616910573 2.8951485486741366 -0.7765119783660757 -0.35511588354080137
Ni 2.9790773761401526 4.311349900598791 12.813619962498866 0.06817382876276001 1.2309603756606284 -0.11699367847894045
Ni 8.980838676091652 3.9770268379267644 9.479158053838331 -0.7029208352424862 -0.5787566071570356 1.5060745845658061
Ni 8.897845869097745 1.5374212988256335 11.759900412723908 -1.0189472089809934 -0.09214088110131874 -1.2364674215217866
Ni 1.6986939476313336 7.382120942530599 6.994022668256975 -0.32260376984570893 0.09854909862050769 0.5193805791915636
Ni 3.4158400370506268 0.08721960239490699 4.260222129793775 0.04573555436390188 0.4578759349188631 -3.0296828071400017
Ni 8.80384684755626 8.175154024683062 7.880327841226582 1.509957207449664 1.4418450851627749 -0.015133770317644905
Ni 7.61196862910445 5.078587167405366 2.949362456019552 -1.1475411907030235 0.19940524810763724 0.15257080425260175
Ni 7.002369357481867 8.832793935479536 11.789872826208503 1.5763207224765627 1.0555810581539433 -1.1587679126567785
P 4.8359298831570525 6.540693981210318 6.589685579631017 -1.2855202131843795 1.411129401246473 0.013934350692905034
Ni 7.2916822082963115 1.315558695272366 13.217494120816996 0.6293877990503419 -0.5583335634159934 2.9008353146462684
P 1.3268809666566153 7.614580745901637 9.245105881757835 0.5972780629999908 -0.9955900223122918 -0.024019502843048955
Ni 7.6940783361135425 3.5525253231212366 0.4097909282163857 0.6917169961068667 -0.6908811304691327 0.9745452858268506
P 0.23928477188525474 9.251736568275392 0.26669340667709324 -1.8613817581818073 -0.154790694722056 1.677578478277485
P 7.2928720693284825 0.6997275264937886 4.355473294155834 0.27612131001345347 0.7124848247818375 0.3224155650943028
P 8.781323150048841 1.8353234589660605 9.071610199583375 -0.14978707085987752 0.306504293180685 1.9016416341431186
Ni 5.435759280210796 4.082645596110543 12.698532513320018 -2.5457669965139513 0.9405013088682642 0.6856319662550514
Ni 3.608123439007276 5.140274025291966 7.753431021303439 0.644953771809399 0.01620951988032692 -0.4251236801885065
Ni 1.388632895068412 1.3008341649992534 10.269723103927973 -0.9432770718411884 1.2759019733683252 -1.56257483364538
Ni 4.104955490463743 2.6870036758994993 3.1416058860821514 0.17604291923261295 -0.6932169776911609 -0.20418390044320323
Ni 2.078389757944183 2.707816948173173 5.895392371570096 0.5245263850585611 1.7780782728664604 0.9352323471598409
Ni 0.727436415280464 4.094218853806265 4.400452829908681 -0.3500590378431842 -0.18935583429143515 0.3762266973774876
Ni 3.20823717430478 0.6669682353729074 1.8310734240917759 0.41482101271091787 -0.2509486674025678 -0.6434851576836724
Ni 3.023260262748804 5.673210922443363 2.9817434085153605 -1.3096376750578733 0.7705719587325568 -0.5774011215704056
Ni 6.723542157013426 8.012830951684899 7.1369603022200705 -1.860145828892177 -0.37720448790972455 -0.4677122042829945
Ni 3.517443014250828 1.6216225584303385 9.727101853469422 1.8862474110752352 2.07946581364587 -1.4270445298148329
Ni 3.7751501813982387 8.738980829724328 6.301974393315344 0.6377549400681145 -1.0086692240937531 1.6712772186498057
Ni 9.063236552569474 3.605195265373418 7.200388261445151 -0.29309496175331456 -0.9899888740754305 -0.31069570555421333
Ni 8.973420636219213 8.732492368783271 10.127833105420546 -0.3815208558968913 0.5089362439297881 0.9987223972936865
Ni 7.0436798451925435 2.9180133361375793 6.1976895808981025 0.6874206827243581 -0.8712532732047188 0.5170796989725288
Ni 0.9749981579707562 5.330056859923194 10.89826161669856 0.2673865012436169 1.8656713866960966 1.908958736629822
Ni 2.637894020954516 9.223430889814768 8.564090779152794 -2.062608375768899 -0.8551036600280499 -1.508021938100164
Ni 3.5888718593383264 6.760260524803069 9.553470452770982 -1.5545308802949809 0.2929484088731213 -0.31986194543451363
Ni 5.614610266608955 0.043797111352127244 0.6435419167231152 -1.1819541209652549 -0.7966763691290925 -1.175404749882511
Ni 2.5312527259462168 6.8908105899265495 11.981925692590167 0.41111656727613716 0.1862306583988922 0.45541333231098347
Ni 0.04860303442737923 6.619559457748884 4.777986439627133 0.023912544951539463 -2.466383929298933 1.0654774913320488
Ni 7.756936463453686 0.323430256754077 2.325627077587422 0.5524297963370486 -0.0734060236959768 -2.5200204836774662
Ni 4.436777985810349 7.530602585240464 2.675746475040447 -0.6227553813354888 0.7383804616016767 -0.05266544871451575
Ni 0.9322096397591799 3.329835394319038 11.97038868847277 -0.2904094445013515 0.9631576128151993 0.055787539283265214
Ni 2.42430466989056 6.681097583006462 0.9927791437702572 0.3798118436255846 0.8438059756270435 -0.09889054112032646
Ni 6.82815696995131 5.302810901444347 10.249736227324298 0.2854716408801019 0.3300684536538702 0.15721318812061957
P 1.8030577742577438 0.7802764704770886 5.304281495313796 -0.49118174815984444 -1.7170215147644559 0.10792025542276254
Ni 5.631826068418175 8.597071310059343 4.533893885508763 -0.10948065793134693 -0.5536549269934014 1.797004677457318
P 5.406384585979081 0.8616899228665751 6.97828117863293 0.15568338173965446 0.3741376760589427 0.5661715714031733
Ni 7.575529134994222 7.861002824822053 13.61770852688227 0.09717150154669071 0.6804355096557765 0.7058907165040876
P 8.416593560531263 5.105163829053616 11.9240222209543 -0.49673430254695733 -0.3547245616396536 -0.2403924891532763
P 3.530670922444414 0.15085764645848077 12.808681109636426 0.6429511395570734 -0.6934961994944766 2.3363822685960987
P 8.06227525504518 5.182337471937063 5.877841921345578 -0.15751400719049002 -0.8111262260058353 -0.291494192925098
Ni 0.6612308742084093 1.2337464535213158 7.251816286245004 1.4865658251089173 0.13861717028598705 0.6306653802111848
Ni 5.463999888146223 1.3598345397741554 11.857273805786317 -1.4541910083226377 -0.7583854439686939 -0.03692978314681382
Ni 6.2861566782189255 0.8902670383751624 9.650462718471521 0.49892591088163746 0.23064312307599633 -0.1787577470606147
Ni 5.150192632489826 7.06224353645227 13.150623930809001 0.160011319691047 2.5375638918778685 -1.3128145301239584
Ni 0.4459719993836891 5.458050582985369 2.5822094542278586 1.7007474601947805 0.09686605449112995 0.28840552669744524
Ni 4.57361200450998 5.623850281186906 11.23699367224214 -0.48282334889282014 -0.9641577719449396 0.46849227698212864
Ni 3.368338553656937 9.017650001774433 10.771731980453312 0.29169473897167825 -1.780159323765205 0.7323134294719904
Ni 1.546122157623382 7.766380985396541 3.5606089415085465 0.8117877708492341 0.8820840452716358 -1.0789652414058386
Ni 3.239573280081713 2.1041112069755603 12.07225194777376 -0.517951817164837 0.69365869321427 -1.2126836888386276
Ni 5.478148079481878 7.700743417051562 10.881445533829835 -1.6592408563105616 -0.5270609785549567 -1.595316032632143
Ni 0.710176923261469 0.7459313176992673 2.334156893861796 -1.1245287889682505 -4.394584544877502 -0.47921943359164565
Ni 5.059475024576123 3.2527733009073567 10.311082859322012 0.6610784452854034 0.5570834930589761 0.4897617278838662
Ni 0.12689589034421178 8.758102268342885 5.571462930929865 -0.6352290883224673 -0.325954945706129 0.09291838269729158
Ni 4.493584554307186 2.418327477361766 5.51985828613305 -0.2424563136608405 -1.3875899233636362 -0.024285354909925914
Ni 0.5236894459419953 5.6374128377957895 0.3490689732605616 -0.8658662978611926 -0.24626694565618232 -2.8218440835530303
Ni 2.929214762260749 6.493006582030352 5.103630023816834 0.8965606416212558 -0.14989968517834185 1.3209466723127896
Ni 6.963038872895036 5.573532173631125 13.50470240493079 0.5181446499019334 1.677166330440731 0.010404740273091757
Ni 2.816122189468649 4.00160490487254 10.24481131814583 0.18362201713145151 -0.5009874213963565 -0.17796276196314512
Ni 0.13046361428286113 7.344435812652317 12.173407797507966 -0.8382755327271175 -1.4021912182165785 -0.023446918169030585
Ni 6.3623170800671645 3.166341051867332 4.062006155097038 0.8343276038229631 -1.9045027577409974 -1.1085452690558006
Ni 2.9449246462011276 3.915265613725653 1.581727819432159 -0.16157660729563786 1.0687219664112757 -1.990808777328094
Ni 8.298081542569198 2.702313840899383 2.6084812139866154 0.6718665370398429 0.15444205313338563 0.09332744521025217
Ni 9.14632231745652 1.6997071886665414 4.894176369418602 -0.47722631442101676 1.4098129964278947 -0.7245121882600167
Ni 1.5815577064877158 2.520627638760505 2.5398290211671597 0.6296770481559866 2.8930651837825465 1.9824555202673921
Ni 8.626036989561248 5.985856204435529 7.795253707005308 0.23173609902985895 -1.1696089691363405 0.09580058934109308
P 2.1147177025826447 2.9281178591217167 8.269725666846279 0.6680237662549849 0.401194937287051 -0.06983964650095714
Ni 7.67700197114403 1.0600081512457649 7.524997224284222 -1.7599471104833881 -0.9715895456326363 -0.8991919085965159
P 0.6977614670539128 3.6334916480447275 0.8615235282378574 -0.5031072959528368 -0.2464309820378724 0.9566162121522559
Ni 7.735862909079225 7.868392977326551 3.75306989304109 0.8287832769659662 -0.49084879030045786 0.6736459975377689
P 7.105217970450123 7.662249553502976 9.476640754092145 -0.0066691844900594825 -0.40136745830917325 -0.7273964517863473
P 5.873144759005297 3.712124729850447 1.9642281693809915 0.507294851671623 0.14191383875938784 -0.7310656731078184
P 3.2063315374954438 4.2198235590147855 4.511866583150703 -0.6505191817123185 -0.772659694499521 1.1091173395091867
Ni 6.572271777509411 7.085817658152151 1.9256980522540827 -0.4603704192059426 -0.20694089436305008 -0.043864048372801875
