# total energy = -381178.9497356692 ev
CRYSTAL
PRIMVEC
9.14003226521900 0.00000000000000 0.00000000000000
0.00000000000000 9.14003226521900 0.00000000000000
0.00000000000000 0.00000000000000 13.37736110877575
PRIMCOORD
 96 1
Ni 7.125386421503278 7.908522673545715 4.2602348878176866 -0.15547512238359032 0.8232569478310984 0.00023268483609637346
Ni 6.2407501101843135 3.466101348848503 7.975956918240563 0.574120651046921 -0.15198253584929955 -0.12520526775545532
Ni 0.060596586491806395 5.295908405758238 2.014202639608904 0.5406713702495398 1.5910495440463053 -0.04994625001113979
Ni 8.167350109708945 5.0312313488892935 8.535478622761712 -0.14243834380429016 -0.5070729654688042 1.898709290987672
Ni 8.203462377534388 1.1641659207610155 5.824101735387337 -0.5002842246817448 0.253556280228744 -0.22669879371626767
Ni 4.815828206433654 2.9599172171246604 4.312727921625606 -0.3861326436372899 1.2317065097980335 -0.28723053255273756
Ni 8.502277455240598 7.578914826843323 2.152805746217904 -0.19059510601517496 1.3294811921463618 0.4300100617465304
Ni 0.3113442340552648 3.050696018451491 2.3203297431972585 0.547859917578179 -0.6812744606173041 -0.23795431202542888
Ni 3.2183790519937823 7.001264782153866 8.799989331041838 -0.5061270566157672 0.23306330248171472 -0.05482954624537009
Ni 7.076011966734093 7.332042552997401 11.248554642150449 -0.8129110858204 -0.625190987360175 -0.33014507252807657
Ni 3.8143914216797756 9.02789329574624 10.23163464259113 -0.8853164361660043 -0.7117158078262968 -1.2990971805378662
Ni 2.826893186263737 2.4871216235851628 9.599380216620284 0.8919524534252833 0.1341280241663819 -0.32240013847533505
Ni 5.673894443703373 7.317610441912517 8.932505176103952 0.3784980099101675 0.46686862533577655 0.2995507446809873
Ni 8.71609023206687 2.372624438303124 12.428785997777775 -0.20372572985986206 -0.01593518317301772 0.2664994706529733
Ni 6.535415613202406 5.821478546102117 7.1172910948485075 0.13255579458325556 -0.9358419557193818 -0.8585759348473665
Ni 4.669651669017222 6.292382152944611 11.06302386743308 0.036390108593259904 1.0407185392198142 0.6281755239097957
Ni 0.7149790307884937 3.6077901303797684 10.465443982198599 -1.1840732241907868 0.6081787690728945 -0.3172337637830472
Ni 7.834881432880162 4.11434900343007 0.7176095320995952 0.996592238324561 -0.4998813328163714 -1.2696374805158521
Ni 8.992640190961948 4.79406578940192 6.310717057844088 -0.09170713599800981 0.6081520296000172 -1.5604030228050416
Ni 2.382842994473422 8.705186173470121 12.46751322885932 1.1598416053369316 0.7019998660901137 -1.5753647863211966
Ni 6.599185618927063 1.3532640501056385 3.8831134969331162 -0.3811711858669564 -0.16867439468268372 0.5306008733874152
Ni 6.8407292539113715 3.693541913912624 5.424653987474872 0.08607513452321305 -0.015328917047586502 0.5577409241373169
Ni 2.770462626518283 4.264071873399343 11.122084928489635 0.6631918920839804 -0.5258739002253912 0.38728706895670717
Ni 6.62024425346764 7.746607000417967 0.10033196314185301 -3.5321722670031814 1.3931157382778716 0.7045295744905028
P 0.409870126804228 7.79809280266062 12.240620151733124 0.3532621181615142 1.2874169159864601 -3.2486649489383015
Ni 0.5689386798541168 1.721589073853989 9.043015479273752 -1.4889142707364358 0.053842242631436305 -1.4388690332535865
P 7.101220175962788 0.5804935087543764 8.809286571950985 0.21022522154127665 -0.9356822902130659 -0.09815032052019226
Ni 3.63308973993199 1.2703091164727032 5.540381421111581 -0.2646960988956473 -1.032516463024996 -0.7218145868231955
P 3.812755355888646 3.179661874947824 2.170423158577697 0.6488315095972502 0.4102722169979709 1.3901486852297478
P 8.574108969500319 7.174559795560703 5.9338095437165705 -1.464905309416348 0.08447976501163515 0.38503015460173046
P 4.810006005824995 8.660244634391988 12.004255259079844 0.10011155801162112 -1.1506645668233537 2.072315575754334
Ni 1.1164823719770771 0.2557445032506693 4.727305165091465 1.4967579351505707 -0.12565675347057714 2.150997760247586
Ni 4.337594293644311 0.903979361786943 3.079094098971272 0.10413096358365939 -0.6656197847991827 -0.47552912922425195
Ni 3.5193603173675765 6.253537015445715 13.295291226918723 0.04006061546631165 0.4868756645853227 0.09267412789696942
Ni 1.3010470452747704 1.6001911641456763 6.6389301356094625 1.0431014376296939 0.860720234883879 0.2923177172676579
Ni 8.750840635071764 0.7257542149290696 3.3710413563676767 -0.38406239137182246 0.1014791277831091 -1.893312802562449
Ni 1.0748586646429665 4.678572340593439 4.0276430005195945 -0.33981961950336315 0.2030094205191278 -0.2108926799219465
Ni 0.8481163980505902 6.999363655424508 4.408161741429657 0.5289455971721794 0.063733019382587 -0.5343423427077185
Ni 6.062766260180551 1.469973123217026 6.498187347426699 -1.0292185090000145 -0.02396396701476518 0.21413535522896027
Ni 3.0820280493564822 8.040285379941968 4.442835368162789 0.7203693697362368 -0.4736193137960488 0.43434494167645843
Ni 6.7292574193380705 6.031242288596153 1.7354718689944766 0.09274277635137576 -0.5615150464677685 1.417665402592778
Ni 3.5875083985891685 8.578158003832558 1.0661043416555684 0.9203919397128987 -1.4889654356893454 -0.11505069581995671
Ni 7.437408845959111 2.365787694103319 10.129498437062859 0.8949745280810587 1.5232647231918475 -1.088655215000093
Ni 4.476129764013901 5.324279066180961 1.9723851635889167 -0.16940535931143727 -0.6683060733820941 -0.265189236481982
Ni 4.936010491839061 7.54737257519422 2.8375257858996115 0.7919913049485974 0.686824958121888 0.0822948415451744
Ni 7.174386134946002 3.64318033564935 3.0332632347452217 0.6158902787845394 0.4665004433630805 1.2197591076281702
Ni 7.789610852637332 4.552604414708785 11.647187099177055 -1.6951499115023452 -0.9142374900757287 -0.6874602777130419
Ni 7.6312323720300705 1.7509651378355067 1.604413859092615 -0.36617342690654353 -0.07430333869926559 -0.5200963743116657
Ni 3.166326567745262 1.6208476372627358 0.9712838180223823 -0.34505489976037346 1.0414770146523935 -1.239313375611014
Ni 5.8502239478513 3.493393485453609 1.257368658667777 -2.5579409128723234 -1.0955717396142681 -0.24501970351264252
Ni 0.955946843734583 1.0318639524559539 0.8737212846833917 0.15743610276470305 0.9037743857608758 0.28433932704787157
Ni 5.447020560645118 1.0257035706502466 0.42094784601567775 0.1620283501210758 0.4023889575951522 -0.9824478285033789
Ni 2.5820317195354052 3.5344596508142065 5.462083333962337 0.2321086518779293 -0.4708890593490794 0.31878979541625746
Ni 4.4373668868061795 4.9436332788211965 8.60678001514498 -0.6625997670259363 0.2646313070959829 -0.6545357590708792
Ni 1.7332700352007158 8.674256303988647 2.5951942801265018 -0.13511352800810278 0.15016476591427044 0.21708441055495517
Ni 4.402150342151299 9.07129016935677 7.445223573620654 0.14786362858491955 0.6421785230571069 0.9726164442352541
P 6.205094843976505 3.0072808647762552 12.436544971241963 0.07713103795604781 -0.34338008316111185 0.1621157676285595
Ni 8.529194850519243 0.2804975388682007 11.005260690970603 0.9598570876870565 -0.6601808731717985 -0.6910726776546485
P 2.450753434853844 0.7086696664554377 8.362750291360742 0.5810873121727412 -0.12390017579078662 -0.49044255600097475
Ni 5.531054018095669 5.6051888205082685 4.143410650298656 0.875012226026519 -0.7264374303071875 1.0450359356482455
P 2.832285805351819 6.661941081060573 2.448980268577424 -0.7176134042576545 1.497978437821233 -1.3215174572145951
P 1.7105479147719502 5.49423796777907 9.266792719370917 -0.05702861077921791 -0.4316095450231664 0.7877325296722433
P 1.8767776831701646 2.806684574731959 12.73804356244692 -0.004923662553862488 0.09116900410635266 0.02077657042571906
Ni 1.568191910878939 3.9368678552057053 7.744154729737742 -0.1961764567576944 -0.6987857300281901 1.2600588356884816
Ni 6.374779544604032 0.8497561198546614 11.332096365860426 -0.7854702160006279 -0.7401990028676543 0.9147478540532439
Ni 6.607896069759168 8.10519788971071 6.740384494724225 0.5051850044174719 1.0814684674436665 -0.3791796093582244
Ni 4.437549687453234 6.869538635887023 6.701817214208851 -0.2531762711815059 -0.6716701047583207 -1.3279233607409389
Ni 4.177433506728277 1.7498866140178904 11.69700393151211 -1.1201003208832516 0.6923600290075044 0.2849970152365285
Ni 0.19569723270325903 2.783989874400251 4.740776658776082 -0.5155833169326605 -0.3398335034604341 0.2323030272769225
Ni 5.109031304275318 3.7764602874161484 10.585813638267236 0.19162251883842482 -1.2877128499603243 0.5859292136460748
Ni 3.186169577982933 5.488827068626282 4.133457155066586 0.4390760286035406 0.10543939798243777 0.46485468022954135
Ni 8.302933349628619 0.14530914834616235 13.374150512054422 -0.6935746181408959 -0.6664487084583812 -0.41379719943209387
Ni 8.391719623902565 6.504558863979753 -0.12755463550107896 -0.862350057177818 -1.7198630979783092 0.6010179896583971
Ni 1.3527156481644778 7.420828827271347 0.663193435484672 0.46574556747492696 -1.7249687946359904 1.7755614199818777
Ni 1.452643621876342 1.330569349773931 11.071278230650785 1.110143723891172 0.3025923597207886 2.271244398446185
Ni 1.4135791236009823 8.441971521777605 9.663819272713157 -0.29288670239725045 -0.3316447970020546 0.30673672090646525
Ni 0.5470254522885634 6.712595140359133 7.742749906765135 1.2836559062821313 -0.3601223356164572 0.19026394792800136
Ni 2.3011859454345673 2.186405419149596 3.5069024532708726 -0.21243996980440835 -0.059208392039356086 -0.3972783758414642
Ni 2.419476244142969 6.4492890883430904 11.220957228464764 -1.7668289252048863 1.9728545068425185 -0.3681012400568757
Ni 5.981301151821103 5.43952573411592 12.987999683208637 -0.4018883638096498 0.22183066699068893 -0.3981983165525723
Ni -0.025475098173393284 6.051313799642641 10.649824026842769 1.3823924383230968 0.7214924275970864 0.3068171964354135
Ni 5.131954505415841 1.594350683472313 9.151144804015676 0.6985491885373517 0.0629647737579948 -0.031069981931927133
Ni 2.292905076123038 8.271080336879523 6.768744187108124 -0.8920686672881735 -0.046797677079829084 -0.28818466893589084
Ni 2.23325722498944 4.4376136676797024 1.1305863559004998 0.6392366668199636 -0.2606180721715318 1.4821296437144347
Ni 4.07136343127541 3.947278352055409 13.021362629302395 0.2532690880056283 -0.8664491669478562 0.3224883273137672
Ni 0.646868423699548 4.822253649177589 12.987959467066284 1.3664019764321114 -1.1363049556675722 -1.6911955548402873
Ni -0.07788861369984412 9.00260282622637 7.48940923202322 -0.36961176316413125 -0.29480603090715035 0.23483273567731172
Ni 3.6918053077656143 2.7200736281579507 7.4517385886816445 1.0798882674407402 0.1641453964640786 -0.42422045164794686
P 4.752387241873693 4.512662473327569 6.271627881481377 0.00907188039428115 -0.14674776981292145 -0.2808007177669938
Ni 8.299149376234608 7.723583258921562 9.29231625971578 -2.015156095824207 0.7072958243817303 -0.6306666657627654
P 5.115200826113377 8.598841897046675 4.962438895386838 0.32345326233019783 0.6427382522153189 0.9043117463215846
Ni 7.912270086810315 5.734684798881056 3.9688625384562664 0.5169236330106388 -0.5400743600954893 0.9274629876270671
P 8.536013314654344 3.0220420170258353 7.517194016372137 -0.35704523935303023 -0.556743593221054 -0.6003093936271467
P 6.225915837675912 5.4137234227843 9.943592921019027 2.476197830065561 0.541453499831203 -1.105394639241961
P 6.413862322944098 9.03672256699893 1.8990364039586494 0.7485296342205366 -0.5418029127508217 1.5025799411489866
Ni 2.356291200488883 5.658950490806739 6.392251630449418 0.1377028860018338 0.9425016271277445 -0.05842986200211872
