# total energy = -340874.55868486036 ev
CRYSTAL
PRIMVEC
9.20286917012249 0.00000000000000 0.00000000000000

0.00000000000000 9.20286917012249 0.00000000000000

0.00000000000000 0.00000000000000 13.46932927074502

PRIMCOORD
 96 1
Ni 3.2494133964023235 4.550855517689789 11.439271964082922 1.4517762282335578 1.210855120270321 0.5566456341906091
Ni 7.384501699715305 7.207521326531888 6.962322846526323 0.3770358235423442 0.9970120994707992 0.09305233717199458
Ni 2.213676508048746 0.2688691792861561 10.736805932075328 -0.1761557906613934 0.6667456708735098 0.4592504466688865
Ni 3.535548998452076 4.547367630349738 2.1150079483749904 0.5623650531728895 -1.2897100828960113 -2.7304207973440264
Ni 5.254690936600284 3.6439403891938102 13.186594007307566 1.1031588079329067 -0.11544561726553021 -2.955029541300485
Ni 6.6113870831902934 4.90827654278976 7.437184443427321 1.394151635741554 0.08966670852921331 -0.6142964519348582
Ni 7.1244930426745325 2.43689209494302 7.023555055512501 0.6286496353327367 -0.005978843291254219 0.444467374822441
Ni 7.043167289576833 7.1547888873274275 11.417196121995023 -1.3637987344813092 -0.3782254729750712 -0.6631381560279096
Ni 5.448853066152763 0.501928154831929 4.016082323499969 1.6596463192790967 -1.766636349578106 -2.9768841752817314
Ni 6.159875925729694 3.7483929520159087 1.8314519104978397 -0.8475597862425209 0.33609640501550503 0.618069288713729
Ni 1.7434007007560532 5.255381151773117 5.205101277149457 -1.3435608101678798 -0.6442870847596774 0.5850954048908698
Ni 8.266504661906488 2.2133728133726995 13.316074692583495 0.2980031976882094 0.6722766279940681 0.5072223465624749
Ni 4.183513799838962 3.946852821377896 6.366898144382402 0.5138714764478763 -0.198243109478736 1.012086220195102
Ni 6.84996225839735 8.025628769456656 1.7621386622681303 -0.40603041100248133 0.19558638858217928 -0.07221457449103692
Ni 1.2206409317211198 6.887675615440958 7.091143686097024 -0.4766079641107276 0.12054128662088272 1.2636635223206043
Ni 1.1976705707692292 5.555035768341431 9.180883317138038 1.0826403762645807 0.5569289697589829 1.5397740337007804
Ni 7.1949962218622066 2.39925236085118 3.7909967136307654 -0.6418211397176882 0.7985928694255149 -0.0879191297104873
Ni 2.0999934676486243 8.680753402903065 13.1170120353039 -0.09131529987622983 -1.0287140585597703 0.13164665250542487
Ni 0.30095314138013696 4.205701916928308 3.4617659167630985 0.3382070236006046 -1.2683023066441965 -0.6454751915305077
Ni 6.261263933184413 9.595923504866128 10.70977342475959 0.8836369915810524 -0.5166035306670587 -1.694921597541623
Ni 8.842926359911964 5.920362057887584 1.675140260736639 0.1900322915331695 0.5357178828990065 -0.28830576789478735
Ni 2.3518943971258475 6.94937164902328 11.191948541631929 1.7222894480316144 -1.017292961207022 0.8278625649239097
Ni 4.353150283583433 8.841343466448933 0.8781037066081249 0.18652273571801425 0.15466548199810137 0.8849243429339081
Ni 6.303541913237692 7.475646914005178 4.016904139699088 1.5139830407796053 -0.5640002747834674 0.04919754477057334
P 3.6901664000356957 0.4907402270237505 2.937633999964573 -0.4179397608455576 0.12624399343261483 -2.018540438915408
P 3.1575871698085876 3.8954732039121893 13.474986152829034 -1.0455409003091218 0.7286616916520161 0.9010593008225579
P 1.466431156201526 7.245786855713763 1.5026923005214936 0.2735139542975935 1.5782719326656625 -1.2512291532119935
P 9.068516287000785 6.284436757253668 3.9940598580521023 0.2595022133995337 0.4589082328381193 0.6183053159839351
P 1.2321077064591228 7.864928271483131 9.704773198482624 -0.8732471637062961 0.4161492446040381 -1.525475357689921
P 0.7828383678798854 1.0616061530313674 12.503604927190429 -1.3458300658180307 -0.9792462908469457 0.46205192067342366
P 7.800213696878286 0.5006986515373886 3.0184904067447453 0.46874784463636043 -1.4676759301829496 0.17426860094100957
P 6.334500364456506 8.854982118264118 5.813241583350761 1.14906559776735 -1.6450938753862185 1.1005056865807756
Ni 1.906484741793094 7.80098673787186 5.103582588955348 0.5703475571577338 -0.3822682755858771 -0.9152389347570495
Ni 1.9640578900763581 5.813912472498755 2.960181028943792 -0.5940886095284156 1.56567429850631 -0.023170010358560096
Ni -0.04815125103064185 2.443508957733248 11.018140397382854 0.5448861796618357 -0.5882424351602836 0.0376535486867158
Ni 4.090435983065155 8.263467715146023 9.884682844859546 0.7196389193281155 -0.6679499755942561 -0.15511696771322317
Ni 7.77073690756382 4.823904640062624 10.112839452104406 -2.0500315675451533 0.6818100214058 -0.6736848211955043
Ni 1.1083107130597507 1.346214078831916 8.94852375963407 1.004715638762644 -0.27832397409172716 -0.6830742328302043
Ni 4.430794889092688 2.233996442736957 11.056648882305566 0.29662637194534075 1.3410730107490194 -1.399134690778442
Ni 2.842002387051283 8.753336430478209 7.919103720542262 -1.7250477275030422 -0.32107422057505997 0.32578936666254216
Ni 8.075885636907886 9.102143570221221 12.618633427034126 -1.0083174971812892 0.7752781059589745 -0.6085886029168035
Ni 6.525018157896426 1.3579109252941965 1.279416894978908 -0.0399135483654861 -0.41311662842530145 1.1490226603445566
Ni 2.732074117191374 0.9100873574303208 4.86844836645659 -0.47050956452247356 0.41023365045055155 0.2456912756583704
Ni 0.16684617387243045 1.9887767961327596 4.615036325894311 1.2394121059724075 -1.5592624814426952 0.4530088366345489
Ni 4.160709090528551 8.693131261669206 5.941765170253695 -0.007264394871897167 -2.4447059301048673 0.587049186183131
Ni 1.940286879523981 3.371885176669856 10.071097999312144 0.9737096772994327 -0.840497737189417 -0.8934128400208936
Ni 8.23351237664506 0.1944897516878507 7.968872835938025 -0.06392945166410925 0.07778589793122734 -1.3847136302571055
Ni 2.523270223105859 2.119052609287793 12.354971231011826 0.4817985071727315 0.7473775228939644 0.800916375352369
Ni 2.3713584649997457 2.5430379856558027 3.1533179588928895 -0.6431743113114728 1.1071722999676739 0.802861672004198
Ni 5.52120602200363 6.354148489709826 5.933535964819728 -0.48965297022014387 -0.4967121910597704 -0.6309348318224876
Ni 4.039212814371957 6.5537771234311455 8.041188980313008 -0.17628845958451575 0.023126301604818236 -1.2107877573674954
Ni 3.9998061294376637 7.432807558944661 3.5969845908425153 -0.4447283417933115 -0.21256646807994362 -0.41630505345561214
Ni 5.273869715536077 1.4805115457273244 5.899337183436186 -0.08773940959951342 3.10166881056 1.9137325038693815
Ni 3.9041054950070904 4.813818295670287 4.272161355490076 0.8883539374407475 1.1148838096793185 0.21374711865160606
Ni 8.49095343324289 6.974541495659267 9.088631917997837 -0.720991576701268 1.3924968737469503 0.7947159029686119
Ni 5.330669822825768 0.3442931325126825 8.169848769676715 0.26529362327033024 1.0194118073222378 -0.7326412451250544
P 5.242800829889609 5.723917616830271 2.5291895084280767 0.9561721826363017 1.4422047824950386 0.8579197893206063
P 7.73425673496234 7.123922464798324 0.05384230520237628 0.055824563168787734 -1.2530651779794677 -0.15075354853820488
P 6.199337827877813 3.6315809361656095 5.341424295505408 -0.5281169306232969 0.6203974226262735 0.35036654178127397
P 8.871151559046359 5.328424322796817 7.667415377338272 -1.0122764818290373 -0.057071805312327514 -1.5976711631278806
P 3.437492429564899 6.408923965825873 5.832502267820397 -0.4596759642420793 0.4906009359557099 0.3939130589136571
P 2.196485548810713 2.964216486987624 5.469692042650944 -0.22767324181439497 1.0489185585321033 -0.9082450199377197
P 0.30474012196174877 4.511531658576236 11.011674461643752 2.2787355646169076 1.0898623479343166 2.2729606098063435
P 5.810093281875744 4.541100476580413 11.122190794830916 -0.09913171059685508 -2.945898525533494 3.480474067297941
Ni 1.8659092924994698 4.130560491779194 7.326519944049722 1.1016248877868833 0.8762139596441039 0.9483413737379731
Ni -0.06948258101877776 9.112110277316932 1.2188150825172512 0.6837997981423192 -0.8577015026622131 0.39304839692051663
Ni 6.875914348895879 2.7171746723271464 11.195328755405017 -0.24999427390909845 -0.3219733353505616 -0.3693096585426801
Ni 3.276626279949896 6.545015992170648 0.3237955824533291 0.08220613848611004 -0.12440848288577286 -0.2811285334200578
Ni 8.875789805007798 8.524000935718146 4.696499201739679 -1.6698870231704983 -0.4595551223934989 -1.038441313149863
Ni 1.6433379064331741 9.057399221283683 3.050304724777873 -1.1182200731414031 -1.1328463076950104 -0.18656593025112383
Ni 9.140372287927212 3.4522354256566175 8.708568154081346 -1.8327607520110047 0.005793980973957763 1.2677466912510422
Ni 3.0654848571457185 1.7385691945462205 7.052796251381306 0.37042603153531045 0.47560369121592927 1.049006233149903
Ni 4.663885154392962 2.5869356706479976 3.63560074933219 0.3748089910943545 0.8823247005275321 0.23409302929780976
Ni 1.2473016431304254 3.621420968821504 1.1351867716029804 0.8122675386991302 0.19659786056582915 -0.15558876514331915
Ni 8.63969020155397 0.3108287400730351 10.249068601196852 0.23491938185384703 -1.3340495282433347 0.6203040915815188
Ni 5.540817335781065 5.931902455577356 9.836623622518612 -1.3035138215483228 2.6612329254944553 -2.2973416097538695
Ni 0.09583131516996285 2.0495985571628257 2.2846140626518565 -0.5871008653566727 -1.4474261787949783 0.17478205024231833
Ni 0.09864463221443119 7.232240232588289 11.850248164873369 0.6370854248049157 -0.3397175467078601 -0.24812431057989523
Ni 7.216622963944315 5.012342585115072 3.6388337172017406 -0.8600322076779189 0.6019978370731631 0.5625792260662247
Ni 4.418435436064487 9.36419526417358 11.973492986134476 -1.6444341303150325 -1.4362385376092748 1.9768430591766213
Ni 7.970503584319705 4.810836566123648 12.929101414643494 -0.13643790324648114 0.017913132834994957 -0.19036139273781408
Ni 1.2594954445171462 5.2926619739750835 -0.4903297790676389 0.12747323785402564 0.5411660504977712 -1.0446479561812074
Ni 8.50397549283701 3.940806536463877 5.593004044855539 -0.6239689420276158 1.4725206598697609 0.9298515424639017
Ni 0.5061761991489934 2.381113506109122 6.955413332502814 -0.1182828296040092 -3.022982255191374 -2.1413931472782863
Ni 5.695416331626743 5.848009102036717 0.36548733975314884 0.49011628300980753 1.3180711505372074 -0.03589311435218335
Ni 5.467764961888394 3.5265301868603887 8.869404854515642 -0.7195910968093157 -0.7917154255793913 0.8528441745699119
Ni 4.246240554746048 2.3497133171796944 1.2915352328400658 -0.25681901014041575 -1.0211552723759059 0.4152529580420138
Ni 2.280673394158427 1.1507727504924523 1.2732141612923797 -0.8749443489030608 0.13856471978149681 -1.2668308643049924
P 4.646096008671806 7.143607401527528 11.777082595692354 -0.5187228910029066 0.12019444480442525 1.0866929490673995
P 6.247155935051701 7.826616727956401 8.988501022444572 1.1562744568109635 -0.5673331958114423 0.1662426453127395
P 3.5599826155703735 1.3644357593947138 9.214542810399871 -0.619980646803829 -0.11726210164897868 0.235911056343155
P 7.11112127405951 1.857230987059713 9.096781058471754 0.4099737119209456 -0.1433634267217208 0.5652755419514651
P 3.4469621817361715 4.787903016647641 9.156382519076251 0.10922431894616673 -0.44971011127861904 -0.5321839016038189
P 8.222892265852398 3.749073964319771 1.637600837916584 0.26101942137500855 0.5857042421194623 -0.751689262895441
P 0.8659034632131244 9.297934607581585 6.268221302126572 0.253908264251524 1.0712287919935293 1.7135492399451393
P 6.150737476841382 1.2581886371232487 12.69725353665432 -0.4247925221013329 0.25562396139105004 0.3454881306430502
