# total energy = -381169.18954085774 ev
CRYSTAL
PRIMVEC
9.25170545475703 0.00000000000000 0.00000000000000

0.00000000000000 9.25170545475703 0.00000000000000

0.00000000000000 0.00000000000000 13.54080610975454

PRIMCOORD
 96 1
Ni 3.302507173089402 8.094548126734063 11.688220338393071 -1.3701604150332791 -1.0976098530902194 1.6281109676749765
Ni 7.260414390578002 2.7532889486753764 10.527718825578742 -0.36299888583330386 0.28917454365298584 -0.7915148795328111
Ni 5.132522206506412 6.665178184757141 6.338600394392011 -0.04384476509909223 2.049617105715554 0.7191331833362906
Ni 9.496875334562981 1.4584758063729633 10.66698659351468 -1.9658449082939047 0.5878323442060586 -0.15688434402629112
Ni 9.13538345930981 2.2611815001408035 4.3469913781755745 -0.5694646403321483 -0.06553176315422263 0.6308944655028553
Ni 0.48012186451516137 0.3234192582275555 8.574986399565292 -0.04470531332717462 1.002170503743287 -1.258944262468064
Ni 2.77293957041002 7.457966050606178 4.286586070092871 0.5903689945849833 0.12947535588571896 -0.5596857065685135
Ni 0.5339843667171023 8.630175596285476 11.868624888099689 -0.7007801347503996 1.1744873802745643 2.465535722366025
Ni 6.016753926039639 6.3810028094269535 8.678979266112414 2.3708090828154007 -1.4550186464302552 -2.0675140406006327
Ni 3.6845655888868816 1.4460507663590145 13.35986005723169 1.1391228847323414 1.2480996064440764 -0.7824818227962653
Ni 8.428284886542821 0.9191939132880375 6.335417807821052 0.3426748295639711 -0.5194718533537892 -1.4843950427098433
Ni 2.373395431882561 9.053385596581869 0.18857750603448342 -1.0310961856387018 -2.1534616484070463 0.8823262431894289
Ni 0.8607286877748983 4.264379202225797 5.580965307423837 -0.9391586787974405 1.5207566120580132 -0.14341227768178527
Ni 0.7791971109864233 4.336523998970972 0.6093173010563253 0.5219216004458624 -0.2439724931950508 0.062454924001111786
Ni 5.536534918620422 3.31299860672739 3.623533015195134 0.6946441970559908 -1.0436565388022156 -1.3215799350214144
Ni 0.6309533387157593 1.4507506325742685 2.232269921552874 -0.22479514893565156 0.1060394934602819 0.8946456839867303
Ni 2.5003380782201536 6.310847129288629 6.3095417136922265 -0.38432978610059615 -0.2377555657510615 -0.4381092938148971
Ni 6.149451132979373 2.0535917400268975 12.5245004701435 -1.1861779292386152 -1.9713010463124694 0.8739711863565142
Ni 8.472211982586177 7.730743325193859 9.85815349542723 0.7333999776679498 -0.4004560022384974 1.4287810528899652
Ni 4.847319891904783 4.650480613173013 7.2324418600626075 -0.4817332011524349 -2.0033246504069173 -0.16809024004443954
Ni 0.9357822206186477 3.8457672993880263 3.0102698618931285 -0.5976508729583772 0.3500212426267133 -0.03498757181877845
Ni 3.226661694284972 5.032020933482197 4.158963423426891 -3.932191695924893 -0.5283488441284449 0.18881153175219093
Ni 5.125074583862162 4.4454998339108815 9.87486300009528 0.9828427499489524 1.5519754608629788 -0.4716753026958006
Ni 1.1526514409961353 6.600684548169475 11.188794791086321 -0.5976714417836675 -1.830473241528409 1.7664545725846033
P -0.2152640495342856 6.538096762842326 6.333346351038384 1.0999837526390344 -1.264216309500281 -0.5443583321828238
Ni 7.215053280236684 1.8011219582393776 1.13775156985506 2.37860929558611 0.6884432104516014 0.24602346218680857
P 2.836785587637316 3.651268702058735 1.989456144428465 -0.058229830176170685 0.580761039181574 -0.5291178610839855
Ni 8.430255499739376 5.507993408238418 12.842357603235996 0.2976676687256615 -0.5270216406765892 -0.3080706092265404
P 6.472751969381032 6.621454626227044 2.9777852747769886 0.14702082096865002 -0.5136619315402314 -1.471193199307589
P 8.819067660294996 8.694252906141474 4.727081956288046 -0.7359847076759906 0.9275756019455316 -0.3565060790201086
P 4.30767718231908 3.6048714007408265 5.369173422831647 0.014428002499871926 -1.2174916517502323 1.2540769070734337
Ni 4.750556307760414 2.9828607602212562 1.1029068727556304 0.5389037368261558 2.2219751198974116 -0.2468403016611491
Ni 5.955211583394229 4.428994791926605 12.302079301506616 0.203337750392824 -0.2282684521962327 -1.0134105954334804
Ni 8.655414247929594 5.675430768009408 8.380892101750973 -0.1144364592747255 -0.7711008346528332 -0.3632364557654067
Ni 1.050919691187217 2.123479120715927 6.352262387384265 1.1249162542146562 -0.5695224901532773 1.8005718259832861
Ni 4.539321375818142 2.7382456761045053 11.113806020178608 -0.9660408479002651 -1.035248003023546 1.0452290254956578
Ni 6.9916986145503515 1.2025921453857804 3.9906786074643312 -0.7473003897991258 2.0897895641693816 0.7839848897043531
Ni 1.9866834083955685 3.8404938274535882 11.974229401683617 -0.589232824098011 -0.35656675705471497 -0.14333283059410154
Ni 5.233800622763072 8.307725916757445 3.904030837728936 0.14063857159139007 -0.4761032565601672 -1.6416452547159859
Ni 3.618600931180662 8.46976953242707 7.95894680954833 1.5004423259806934 -0.5268614609496409 1.4360356775698493
Ni 2.444716826869552 4.099245517036693 7.39690849731053 -1.1197941024967424 -0.2606882632878349 -1.4431674035186242
Ni 5.7142139159904 6.146879158948191 0.26628535308523343 0.08442371496271912 0.3301484149621862 -0.3735378376914147
Ni 4.394550693660089 5.342646933830908 2.0787304732554164 1.2106041806017795 -0.04984726253943028 -0.09614743115755055
Ni 2.2395602652096063 9.072619891584848 6.359846010094194 -1.2116573044566423 -0.12308230787518157 -0.4295562620385634
Ni 7.630362324336569 8.855399106411731 2.754200241632468 1.6742617551994263 -1.3071138801947553 2.4255429840231715
Ni 7.823824730689269 4.668613955263361 4.276606255749575 0.26060933042078344 -0.6091771284304219 -1.9341910288340494
Ni 4.603722495354327 1.2944245706861919 4.833932674555428 -0.17078835570189296 0.049035051050780064 -0.6191218983479596
Ni 1.152984502381468 7.285190456964713 7.988682715064957 0.4488127962753303 -0.08448542143858997 0.24933787127202223
Ni 6.69582908391292 8.163325302805317 1.0227584258868017 -0.7815482552384023 -0.8787382687278544 -1.6619325442101123
Ni 2.233824208017761 1.419868440789786 11.612052900249484 1.5772877143755224 -0.542915171978394 -0.9738109787639875
Ni 7.152659780717645 5.155429428453201 6.398138817702335 -0.38470002495582134 0.9403313589493031 0.34045288221198783
Ni 5.241044707894063 5.436237183109466 4.462927270898428 3.5409878084122823 1.4076105894599371 -0.2430723499782846
Ni 2.4382683883813003 2.6727528553608413 4.589534080339143 0.3732146500240411 -0.06466838671266281 0.07635533613228786
Ni 3.454068606826188 1.8626550491796392 6.84317081493164 0.27212864391429264 0.5391562191565941 1.2033323295307146
Ni 3.3579248869267446 5.620734687173621 11.215213035136825 1.1233018585396848 -0.15598137259604752 -1.710131729623158
Ni 6.109641045726938 2.397579389139792 6.3752686025761385 0.2212107740185029 0.29270261141090237 -0.5809132484887222
P 7.884913739782419 3.021875200830952 2.663761123127366 0.36037173262310196 0.7378464434750777 1.2642001115503647
Ni 3.3980125253336233 5.892105702578784 8.4442903364491 0.15394814421610262 1.2490964231397068 1.6257730635704197
P -0.1369067327821364 3.8593210474300474 11.155362829363012 1.7183582312980086 -0.45837318627025575 -0.35711363069712043
Ni 7.027798768038384 4.58130561378039 0.9973995020757572 0.7406080653806149 -2.482775483283079 1.8137842109085018
P 0.6881149989735259 6.951944037528805 0.02204588819749647 0.8152783005009959 0.3681966279841594 -0.05698670179768896
P 5.643096058516669 6.698789629560324 11.799282432843885 -0.6249616449581882 -0.37411556457175565 -1.0542942210217197
P 4.314245892974257 8.587580745783452 5.812946262990291 -2.224650609847046 0.028298332724060942 0.4509632669594298
Ni 7.505233012208012 7.609027892264964 12.40367597642037 0.4197246206601223 0.604752517000165 -0.8020785139812703
Ni 1.7699344601850069 8.409531680207547 10.075835015516724 1.4748235969713246 1.159398861372558 -2.1583467444134894
Ni 5.258659954496117 1.8849609102917984 8.79761018054492 -1.0798486724520564 0.6947344427769518 0.24532257946504202
Ni 6.729079712215325 3.7532039893809124 8.22559297913434 0.8306676384728727 -0.045321349644618716 2.0490285802019357
Ni 3.17129023897337 3.359590193853409 9.34589120722744 -0.20445772292988015 -0.03796619483112816 0.8228149751976733
Ni 7.78000865510769 5.296813986527035 10.528653247798703 -1.4817624901830029 0.8789866372932346 -0.4277127810719215
Ni 3.4356577135813944 1.6755948227894502 2.716569856112934 -0.02300494553560554 -0.40420107110322645 -0.6823689792330635
Ni 5.412080980967678 0.8419690052460203 1.3056209842564677 -2.851050787023974 -2.4757088062442842 0.8458525737434271
Ni 8.486774166489347 6.489368031827087 1.6802919134931595 -0.3893256966532908 -0.31566539085466283 0.3355618726682737
Ni 4.494755912119564 7.751180341866094 1.152383141546839 -2.126322368988093 1.48290431709693 1.0237500296862756
Ni 6.334855304148045 9.169735040524845 5.934068661619191 0.5824574530473905 -0.45827342746759786 1.2402808817306057
Ni 8.824498411216952 9.145032987779318 0.8395857659998601 1.0631637555972078 -0.5407701006109332 -1.8587296652709406
Ni 5.2600199551528934 8.899538991673493 12.355930701662379 0.8660745572172567 0.20766671678548104 1.3056558075919902
Ni 3.2663237542550365 6.1387654135332745 -0.17074021850887464 -0.9354748021879502 0.18386781459367044 1.1211675858055015
Ni 4.137899141145611 0.4534066407294 10.253056978652383 -0.7362014516724871 0.683901613827506 -0.4403050159146353
Ni 1.1195580916812478 1.8047393749522993 0.09729000616729747 -0.014890801068903389 0.8882014710232833 -1.0088594857276882
Ni 8.213950633375925 2.84550994559201 12.861991571901372 1.5769645267081487 1.1118573641481688 -0.22334504675268632
Ni 0.6927713821745834 6.12557248199203 4.0008749117080935 -0.59877238815733 0.962733123683271 1.2945021049680157
Ni 1.1986786741081186 7.897283269565479 2.1575374228777653 -0.19555296424108257 0.6376268991306825 0.29741775749838456
Ni 7.293739032521592 1.2024441181034102 8.190778812661899 0.711698067214484 -0.18398402845656056 1.229030505627767
Ni 7.335353202277914 7.031221898943195 4.941202495066022 0.4126432883333087 0.7018854519994364 0.02556447873266565
Ni 8.067699678394169 7.956494182513558 7.705611993329459 -0.7068412533428149 0.6399817725161042 -1.8663532432544694
Ni 2.1042448257129496 5.768327139401856 2.1987556196537463 -0.24776821279205716 0.320014668962294 -1.22239834502323
Ni 1.4477530801062721 5.053438630900134 9.602706514923039 -0.4678572145012911 -0.8352683704696775 -0.26504396915336936
Ni 0.09213495605875534 3.072213728541967 8.485900805523363 1.3004724636188378 -0.5702850793509145 2.5945611351985187
P 8.038307011138537 0.6390846623704572 12.469606402817544 -0.5861361874505583 0.3211320703961889 -0.6602168686160566
Ni 6.776170891419344 9.340429000507978 10.473325275501296 -0.07353663573657013 0.8740704309385399 0.31991439593900384
P 3.1402137613807763 8.811934595625782 2.5795502525279903 0.28093518646232907 -0.1377936459434272 -0.19143559963859935
Ni 4.700541589729584 7.394952686842214 9.972153006262579 -0.9149548278577275 0.8501928529899937 1.1532169009315623
P 6.147119703282042 8.609747831318387 8.438887340642587 -1.124943765018482 0.2663899416583025 0.47464929772246
P 8.308947141836999 3.4509137753706725 6.847706925965772 0.09727897365883248 -1.0157865518648248 -2.6701011745183627
P 2.3185790788798473 1.4915043937518133 8.949863641826788 -0.03533569918681656 -1.292787179159438 -0.24096404538603014
Ni 1.4671909126225084 0.25131239347348794 4.279801794707742 -0.058075563986493536 0.811301575241435 -1.3858516005162906
