# total energy = -340891.115481714 ev
CRYSTAL
PRIMVEC
9.12748584911351 0.00000000000000 0.00000000000000

0.00000000000000 9.12748584911351 0.00000000000000

0.00000000000000 0.00000000000000 13.35899816058576

PRIMCOORD
 96 1
Ni 6.457330935035447 2.2320170641332346 11.607873373052435 0.035850434039706 -0.19062441659121362 0.47359720230886176
Ni 4.696949304813885 0.4717787354349811 6.238651897717635 -0.8268379803141374 -1.7289136382163515 -2.216552406219944
Ni 2.521878623096174 1.4425260730428182 4.83284478633845 0.21987122927147293 0.871735612157776 1.7268161322573743
Ni 3.6337341492325037 4.159696377203672 4.919210880214418 -0.8696861858279151 0.40861874055494785 0.3101876555695432
Ni 5.171879761013104 4.739519897470721 2.7430166050241387 0.22813809726595546 -0.34931881724305003 -0.16508821999332216
Ni 7.306670848949809 6.211135266996673 2.5575534004116203 0.486832212941897 -0.27666612677332997 -0.5692715504847357
Ni 4.726659270315172 4.766080880453438 11.249211566175811 0.9883595660021236 0.11272436167962521 0.1772431101883012
Ni 5.867832280073663 7.64248929771274 12.477009890400204 -1.6386833438741841 0.6117379471790626 0.8446716660614485
Ni 1.9010453102032312 6.671972885489598 0.39615021557305713 -0.17005456285966195 -0.09023157989374782 -0.7531013127516192
Ni 2.895594391908674 1.6954760803967852 0.45201407820103745 -0.22845768538890332 -0.28944090994049504 0.9412821528983466
Ni 0.46554101180254504 8.91612950541906 4.678655085503831 -0.19622093684238467 0.7142018074729442 -0.23366956860714597
Ni 8.75825138766921 2.3796267606268784 1.3883736139575389 0.24120367220066202 0.5671539899211007 -0.3051056130609455
Ni 6.933301924588629 0.5089741518449025 4.724556297641901 -0.3386582522054103 0.07516877202335441 0.32208132168333564
Ni 0.6066528513252623 7.483196419700926 2.5295667041842638 0.6182886038133868 -0.25864295072303195 0.18008649317436726
Ni 7.517981267174168 4.102886907071564 3.83097272296736 0.8585178279159216 -0.2913298994330918 -0.10447394874537491
Ni 8.083739332191607 3.9063173780283345 12.66255341688566 -1.298057940640074 1.4070014951210286 -0.601013618783023
Ni 8.044244702168852 8.824918542207273 6.890904754157453 -0.16990312488346224 0.7535024048447797 0.45416326195396617
Ni 7.091344337078577 0.5737281854093661 0.39367666698600684 -1.3086681120557526 0.6748767846210765 -1.4254866984094094
Ni 1.7894709267046967 6.672611809478873 9.358351617110179 0.21145292330079066 -0.2832651201470863 -0.486898290293142
Ni 0.1120179792968027 4.92584838771443 1.2558872482900338 0.4971891306961889 0.35437874826446064 0.07512840570372223
Ni 6.297745977485679 1.85451338881289 7.03929667616368 2.7033213700240735 1.5365388145929344 -0.17182708137905248
Ni 3.153938743229234 4.487309216447201 0.24555035480960638 1.0574301955475403 -0.048908038554612544 0.2211495817632643
Ni 5.855218095028262 5.592839395089709 5.025454812145287 -0.5659764246732317 0.5042570932865638 -0.0718492207318182
Ni 5.195967195408771 2.783901351097845 9.569584451707268 -0.17568296479003292 0.36022980772859897 -0.7442968270861117
P 0.11800834807053374 6.00277302660854 12.249238964715007 1.3195883585126822 -0.7577321266554111 0.9217615663669156
P 3.8169866768421308 6.3696705637069195 12.461126240026829 0.667454009794444 0.23042252242475797 1.2770083190586266
P 2.57237187322002 8.380245700643005 1.5787930432297188 -1.9236471918799323 1.2978643365720293 -0.22108813239770955
P 6.377912683168567 7.662323323836948 5.924074020603871 -1.2316242344968724 0.6892628781394194 0.3606072456726757
P 4.875911914209809 1.0411814054369555 12.989407762079065 0.6979544923761464 0.6423225048341389 -1.0063079229504281
P 3.923750875449981 6.190735336767679 8.308975555136493 0.4053112734482697 -0.21752124098205763 -2.2034850315130243
P 4.7355859511939 0.8846897527438332 3.8432902647320257 2.5646823453612155 2.040793336776337 0.46924021089174667
P 0.18608661187633957 5.56507358401293 3.848513924718627 0.49356567501098864 0.2173363786647612 -2.1567791428160534
Ni 1.514258982067277 1.1860984936900834 2.5303808758963116 0.05579088171737488 -0.6768058833229892 0.15687200273111693
Ni 1.7332273606773758 6.706849007818452 4.919384302440078 0.7552795513498606 -0.6885239430908658 -0.5081487150314862
Ni 6.139238063232116 5.742913512684842 9.08899404171163 -0.08943042414869115 0.8673739927549706 0.7461223103306246
Ni 8.764622372590837 2.4520168486117346 10.19485189708578 0.11607605176067752 -0.12207674942880267 1.2977609782249455
Ni 2.300363676014536 5.293056259321885 6.97332959976815 -0.4633711537054794 0.08879124790279547 0.10126186956598045
Ni 0.7004085575114737 -0.049343186943151034 9.334038733821153 -0.5477506456938245 0.7349048443482504 0.23684359545975336
Ni 1.7240907476307434 1.1351214868315005 11.549535049088849 -0.9420642824800098 0.4576928723737795 -0.18885986849162312
Ni 4.141642210763873 6.871782671907008 1.8170103761395606 0.5170125931800192 -0.2665094979553023 -0.6941664860886239
Ni 5.68589411038483 8.033428631778982 8.198376899844437 -0.2877930899244269 -0.11855613787005388 -0.7207025847059394
Ni 5.515794289468706 2.8044016836680115 4.672362596958028 -0.921952085111167 -1.1195282504298654 -0.4532137535565034
Ni 0.8257727461956746 7.420134621959485 7.177254969425048 -0.4510571122248167 0.29428898206141574 -0.3333047012029808
Ni 5.262862537085862 4.3847071512552 7.419640824990631 -0.3997003550193955 -0.1950189461144835 -1.0944972756031668
Ni 8.233411840422052 7.399378719793608 9.043734491808502 -0.6664888176676974 -0.42847871270366855 0.6043141439111657
Ni 4.705538268726853 0.6051267357394511 10.763477818066507 0.02762418947517178 -1.1994728465753084 0.12618460094958914
Ni 8.015876477045042 7.074960500496454 4.680872151746614 0.5363125790602119 0.674258177200471 -0.08295201551319907
Ni 7.497499189575125 6.057045055754669 6.9594768149321125 0.04448651244814919 -0.6246978497738402 0.1669828659128737
Ni 2.201941999209505 5.461321455640234 2.6439459639957157 -0.5714824420931255 -0.8087458986991167 0.00022985662261895898
Ni 2.334956846290996 5.32222770317507 11.286762954522613 -1.438060678419678 -0.5971312530094813 0.25419211404052994
Ni 1.2575301956910268 3.2225135422495614 3.9287746435027944 -0.3758945108490494 0.40000554496464014 -1.1371619043512287
Ni 3.908936966384362 2.656509035121974 2.742869652506606 -0.6569443685123718 -0.2937683336712554 0.04591218915108222
Ni 0.6984908727950926 3.384526410958576 8.073937325447572 2.097126978371059 0.6754609392593206 -0.10681108151898379
Ni 3.6361803153628705 2.4544265047998572 7.204934982137552 0.08948544575634267 1.252834035805268 -0.5949586708381948
Ni 4.043302681328892 7.15766464716532 6.110472792486399 0.46565352198175286 -0.8169945118611541 -0.5781680816434172
Ni 1.0546718290962187 7.865911889276641 11.422196585277788 -0.3196819682132236 -1.073287731405087 0.9883163714690139
P 0.21091611084812162 5.567638407455592 8.119278109972194 -0.06173167268184208 -0.2800116462067952 -0.13801296104308491
P 8.560979042237777 1.6785172122243148 8.192311685689106 -0.7335601573948979 -1.9027968307934846 -1.1438339170547656
P 1.7426834357186456 3.189745869085316 10.698967488366526 1.0508805673544805 0.822890565630615 -1.246099288184596
P 3.8462950329787304 6.123958652402882 3.8978753666328996 0.34475819445556105 0.35813770108626064 1.1471313568591148
P 6.680123730095635 4.150614529070405 10.466694886802609 1.2872688204443703 -0.10374606944041487 0.5979776601701766
P 6.34683359483312 7.969435830510312 10.35641569350519 0.4136629878470747 -0.48425776734650156 -0.5748621571986358
P 2.2510661264991905 8.556944693619783 5.920560851411414 0.3380668984783145 1.1324246467765595 -0.06505045264242991
P 7.205994683211193 4.151764592251101 1.6300511766435826 -0.7449838258508072 -0.8247954959628118 -0.9520990410081925
Ni 5.43700583410554 2.946945625675261 0.7983848130211244 -0.5573920254383303 0.31716331555642796 -1.3349039058238301
Ni 1.5332715344909884 1.037767725837115 7.44204423830028 -0.593429635788178 0.7931588428941372 -1.728748316283081
Ni 6.922303304487538 0.738472910546809 9.48157541043031 0.09130810078737824 0.5817776533715464 -0.7846551762985002
Ni 2.9091760904235477 1.656227892484179 9.416971067629046 -0.29252931905783164 0.15884069642171356 0.01148511782146409
Ni 6.615017375588515 2.0012559741782323 2.571633459638129 -0.5428182413892135 0.049270306990037725 0.5583829285966899
Ni 4.200058118354729 6.931330387707438 10.219459598158428 0.24782169173781188 1.8749479269020162 1.353176735991089
Ni 8.4083127187433 7.270252181561134 0.43011450209435925 -0.8615270470558906 0.24868738217221684 -0.3114971184095861
Ni 7.567342709088441 3.7929996447876353 8.37872323605142 -1.0072728579668586 0.32244513278065756 -0.2675675069061714
Ni 3.13797477098292 8.638599179449127 12.588717535187929 1.0619275691972614 -0.8374828616224932 0.5388091202298205
Ni -0.047582494978420396 4.9782584098061 10.260832664709651 0.40825287257509685 -0.6919748777539437 -0.2861969490819007
Ni 8.795016899509204 1.9852828744463575 5.806955602375543 -0.1432029898844566 0.29956205753489695 0.10723222821680241
Ni 3.847919725408601 2.711885490020993 11.873437565451804 -0.49682197716475734 -0.1720368833970134 -0.6307731094336426
Ni 1.1916662598823369 3.1209428829259616 12.848643679756224 0.3237581951651263 0.17819621813018988 0.28353405753775685
Ni 3.0543578757579466 8.417869196125741 8.00483130676759 0.8429942783590255 -0.27007124716463166 0.8643568031952018
Ni 5.744136595750025 7.879256273166929 3.443147686974556 -0.7235102293580636 -0.061866141377177324 1.5103104770240248
Ni 3.226274066300723 8.727601291155132 3.756416682658862 -1.5590897033102569 -3.5617360967032274 -0.4930128878313122
Ni 3.244191320457106 4.283711523521947 8.975790402040444 -0.3280313686191834 -0.7866529234548194 1.320207737264236
Ni 7.350190700104996 6.232621368007435 11.313107616097533 -0.6665001305216071 -0.5411943326325453 0.13793248551413664
Ni 0.5928603078939275 0.24743061683518702 0.3164517498994515 0.2197151633095829 -0.16274491657212617 -0.25657012735440327
Ni 4.555391131247232 0.302464791025666 1.6624875220819615 0.4000546530350207 -0.24516137129682938 0.044187236040175513
Ni 5.976796202701731 5.446644458858031 0.37186927848349544 -0.38900045210338813 0.5888808400752309 -0.27160928107571286
Ni 8.055252449755503 8.818711852025745 11.541879826948778 -0.1607764799918457 0.6117214921188303 0.07692380704124817
Ni 9.285299786422145 4.422586216333645 5.609763578817047 -1.1110708636911317 0.9936524389699468 2.2630909161011155
Ni 7.845073839740717 8.995173530377935 2.3971789153608185 1.188192902786115 -0.5762754926063947 1.3174674555149375
P 8.540588239494344 1.7219731709805748 3.518572663908468 0.9445885915637603 -0.7369486142511567 1.1246437172795598
P 1.9856844838110446 3.3101282761502846 1.718140539793481 -0.5954962885092197 0.08679812873216665 0.08226013165249704
P 4.850126767499782 1.0078752106246067 8.282498545020937 -0.5672331798984682 -0.48390732598561825 2.171552701580802
P 8.490533108677429 1.8155664079237992 12.36062623475954 0.6508973909873434 -1.6598406946780897 1.0884945210525123
P 6.290042379672134 7.793859518257546 1.3860360649053485 0.3466803511789384 -0.7146494365333241 -1.333402895798271
P 1.8928397006838282 3.23792073787665 6.191281160404231 0.3348445348862749 -0.8945883483862335 -0.909351365628021
P 6.840384121576923 3.7705551577929612 5.890449276545441 1.3855350977171363 0.9098740709007104 2.420759960812231
P 2.662158948684277 8.714530731831678 10.250185452802661 0.32873945042980157 -0.03923760534438404 0.15755231662759317
