# total energy = -381170.8184425958 ev
CRYSTAL
PRIMVEC
9.22275667400597 0.00000000000000 0.00000000000000
0.00000000000000 9.22275667400597 0.00000000000000
0.00000000000000 0.00000000000000 13.49843664293629
PRIMCOORD
 96 1
Ni 2.5943982969948975 3.2392995458835316 10.936339134664177 -0.41504778400974324 1.5892248321327405 -1.4285563384736686
Ni 2.8363757595203336 1.3578203270308058 3.9496150398632257 0.2464132414260595 0.19894399220050255 0.6525102440004181
Ni 0.6323868905816337 3.4007070075467416 12.043291261894915 -0.10874506531690303 1.3857029907535683 1.866921971273746
Ni 0.48264806045355235 4.6872723177893665 5.703265008950542 -2.560097297093694 0.7319125944891458 -0.9512035257771168
Ni 1.122806045669631 0.42297682584061763 5.526732226612647 0.4664533921752289 2.0093004083743784 -0.10395844256153709
Ni 2.8200883715255203 3.0536085663322443 13.405148389449689 -1.389595126719123 -0.20580035300070365 -0.5356973140737161
Ni 4.023925555882824 6.627832514838453 7.983852559798712 -0.8982840520702658 0.5115646826915706 -0.41621635039654764
Ni 8.348134840940693 7.84822454712933 13.134478009149246 -0.009324876945351683 0.3825492971614057 0.558248974121987
Ni 6.117795634380259 7.689122774593359 8.22872781241926 1.3907917181303853 -0.18634918625462746 0.8473062754708182
Ni 1.5480120117584628 7.195465509695068 8.733839740901674 0.48077906476928167 0.763298307889279 0.8678133942852345
Ni 7.6266478220017015 4.738615403274715 11.431043182426233 -0.5005030255607703 -0.5382769018754342 0.33782110101609564
Ni 6.6606286369842955 4.251967433323229 5.565986122866058 0.8616306625132903 0.5764433856428266 -0.41283252152597927
Ni 0.8742518354776599 2.658155212741299 4.365164779887182 -1.2250257553437482 -1.0879360774458813 -1.1005817912343498
Ni 8.556799706955784 1.2342446125673263 0.08891198412457452 -0.36377484476738 -0.9366652229516256 -0.8329854879727718
Ni 6.3110400515123795 8.821243804337033 0.8182199005831586 -0.46966290025146207 0.3190736452052633 -0.9729249766146083
Ni 4.673050827252559 0.7878097055461833 5.420701884131803 -2.7271794075885936 0.40242315326719724 0.23169624693085902
Ni 1.8269819506413143 0.9734988405461686 1.9370122026200924 0.43868804913650256 1.8179139168061593 -0.18905141567713893
Ni 5.601671734626155 0.7768788945317707 7.557086103308564 -0.07440258328129122 0.15067898654652762 1.2585670816343035
Ni 0.3684583452892357 6.564997874742947 2.042920804715019 0.5397437162289479 2.0757539120119217 -0.2510841645391676
Ni 3.639161377085757 1.4615855605130514 11.530418383810218 1.364865742293243 -2.304306985328109 0.8223429206572612
Ni 2.272358085215229 5.969244695290532 6.246617252746033 0.9630995058837543 2.081742525495189 -0.4147749899643308
Ni 4.854287215410021 3.3417274796719787 3.6793227925796494 0.7227224433494457 -0.08975129782321963 -0.7564985113586261
Ni 0.48881255090413744 7.716348351807792 6.281362143342216 -0.9050540238042478 -2.7215695176009835 1.3530949749105599
Ni 1.3355934838442258 6.677976641977639 13.167454897322663 0.8629087578947654 -0.26973340420923875 0.39306870863549076
P 4.551541010247085 8.900633292366113 12.919407016463033 0.08690791483715356 0.4592679301703832 -1.39597094833848
Ni 2.927090792542409 7.637087982369838 2.1482492954255323 -1.9516894427291294 -0.13034078920980777 -2.6596221293639095
P 5.098192234045828 5.680083610465285 2.073751557448803 1.2898982876474174 -0.5870263033649955 0.3570575806482044
Ni 6.594621368649708 1.8846795153613327 5.897237101571219 1.0146051299622139 1.3627129576162984 -0.3453076392011279
P 1.3257804709186984 6.578167971037735 4.239750970051468 -0.4179891260262544 1.0310704746070887 1.1868186481464076
P 2.94921618540739 1.9195415349651803 6.948914482216842 0.4762639505077475 -1.3607272946448372 -0.2453279787816807
P 4.77738787163836 1.1257296594829693 3.043519792987099 1.4449571484291954 -0.1126549418942705 1.5150924717937004
Ni 4.998023875602075 7.874085156380439 2.6302379287886946 1.596005859610316 0.6288658651086008 0.9344558740051327
Ni 0.45371350645800984 5.2571279969646385 8.29292649820244 0.7415848274715874 0.04296416226635181 -1.6848750119388984
Ni 4.880498289408469 3.478888314473148 0.6875860105633763 1.0576507961987784 0.9439396451258518 1.2323153470266262
Ni 3.1640971893095178 8.009244653019165 4.394510668823025 0.47041597636740273 0.19796131657225907 1.4372137570383507
Ni 9.097474584536725 2.5121958682305876 6.490142293813671 -0.45165900747487375 -0.6786948728155859 0.928920031788568
Ni 7.2182733865417115 7.062547142888017 2.0887883396610016 -0.2718620205164673 -1.0189927175069482 0.36451583669846255
Ni 4.655905722902413 3.155160338252341 6.055479313200556 -1.6325715745494915 -0.42411812174212765 0.6883987303669112
Ni 7.143439940228056 2.567643080362421 8.425805207156502 -0.3890757854260138 -1.0682067173377539 -1.1019195362091667
Ni 7.697303359616801 0.25289812850768845 9.1707300172117 0.08413626562928736 -0.380728441902583 -2.072842909012714
Ni 7.866651614634221 0.14429463696084546 2.383675834002658 1.3493650755544826 0.7367308418133957 0.4096086152720429
Ni 7.473476281900988 3.542986472210381 13.368257363413873 -0.23530350466614314 -1.786761145352439 0.31866329714072217
Ni 6.316001894514198 1.8115246107323069 10.477432294015975 -0.7818922688413825 0.0735093820430605 0.04086228543200059
Ni 7.164172696860185 4.496997628253129 2.0121583003794017 -1.283069694761358 0.31067847916303265 0.7224905298442976
Ni 5.501678608556072 8.725742160686812 10.557261707530532 0.29392234275061635 -0.4811973832536228 0.5947300997671564
Ni 6.431655261136485 2.140232875467949 1.829956289615452 -0.23488518618180196 -1.2534703838376864 -0.6144448045872644
Ni 8.495505267197276 7.813685324003297 4.252844517467231 -0.4827960951993105 1.1339361983250793 0.3830126099510694
Ni 4.04248174197884 0.9362204587369752 1.1133066064654078 -0.24403497100187008 0.49230120647626824 -1.0137900902600863
Ni 6.38662976385977 9.067611298960731 4.369930178175359 0.20228616919985806 0.1259449741349573 -1.0050108014055594
Ni 3.3097614056119427 5.730854885047079 3.5067318163736814 0.6119798879865396 0.9344790139335842 -0.18404393516021852
Ni 1.2339863753850757 8.64707204766543 3.330833559683602 -1.1700493991078686 -0.3962931291100594 1.2227081629541652
Ni 3.4837394843968577 5.401362686008175 12.427875596940057 -1.0569031193994767 -0.11883921632811147 -0.5538793842993815
Ni 8.14960578432894 5.687028346116528 3.961372209860841 -0.2159613526941055 -2.0790582937948066 0.20951971083381982
Ni 4.218202921743948 2.6395713583757563 8.770069495295798 -0.0329617996380013 -0.24608902531742136 0.22996358051046845
Ni 2.630348601866802 3.190667950811815 2.2597597998239976 -0.2185021168380882 -0.8172212831599798 0.8879245632128128
Ni 1.4828071232401554 2.5269153876188786 8.592334987784787 0.8956964938487477 0.2863944098046874 -0.06665893478013035
P 8.180372900042814 2.317651042430704 11.444014989456079 -1.0735029327396866 -0.6816009907187874 0.6981331840458558
Ni 3.0640118356743447 5.2216480526746905 1.3124867896866916 -0.5855044674038304 0.6131728798533762 -1.6019332808383444
P 1.8938377125747246 5.484201484971604 10.99698705919141 0.4669038494490862 -0.15468245127896588 -0.7849392831978224
Ni 4.95317361069903 7.732193047490175 5.95200090744574 -0.3757127338555465 0.6689910152642606 1.6620371881087763
P 7.05731783994744 6.990784874491844 11.291266773879125 -1.157826631789432 -0.07574315646958568 0.47303490204748855
P 8.231863549632305 0.9682418693360647 4.84261766159924 1.651195360298266 -0.06058238956874728 -0.9255120345482835
P 4.360869742180962 8.754222032786462 8.666346686493494 -2.2912120998173635 -0.45734783032953497 0.6444061268360451
Ni 8.063059437248913 0.03621684253501288 11.241510924788967 -0.2580883637711426 -0.19462196778638094 2.207057065134999
Ni 8.385892806088352 5.614362247582477 0.38327839272347447 0.3185295997763353 -0.8328065391927464 -1.594880487756621
Ni 3.0100956011229973 4.7516840492479036 8.924558967301643 -0.9565658185302944 0.3802455887288935 0.6179139940827874
Ni 0.8915177579380734 4.78276473868308 3.231066391147988 0.8432902123328895 -2.699079564028584 -0.3727474805796354
Ni 7.476962483861373 5.381681323618067 9.234347669334815 -1.7469720383799592 2.8109333501777978 -0.9940152216260041
Ni 4.627462741828797 6.896371516109678 0.3083315065047586 -0.6798109886979001 1.0571689714663535 0.5116158476444802
Ni 4.549844023049437 5.447605587144073 5.414898003460717 -0.2425815263847951 -0.2805574914079362 1.1048976450008843
Ni 1.224994187788845 8.381428991938018 11.453274636991068 -1.0777069435187052 0.9957265478901561 -0.06936502085738376
Ni 0.7743887502743529 1.476618653622647 10.552983270786026 -0.7266307772649163 0.24595507084271837 0.7411935055704396
Ni 7.462879334672199 2.7164983704169448 3.7559399200021373 0.934832540618261 0.5207952001509031 0.7676810103380068
Ni 8.860265287126419 3.7395049679031804 9.682036871241175 1.303065935377627 -2.9723536344012293 1.394131581136896
Ni 4.833748136664579 3.544213098826072 11.902003243555988 0.005061987903939669 -1.8530881507144472 -2.576938794131065
Ni 5.786172978587788 5.293843790626786 12.678231011478227 2.060076867596297 1.9793773955627008 0.7731232643995009
Ni 9.160429120466848 6.451982216482221 11.13002808866003 0.535519136624639 0.3559643475840257 -0.9399168971197038
Ni 1.8295643224638214 0.7590937308799031 13.239266046328336 -0.03223906253936384 -0.46401187261327187 -1.8203808902894134
Ni 0.7800201653987205 0.3622809429795381 8.036051517088092 -0.7112062151797299 -0.41047533414771237 -0.4677975649079492
Ni 4.742230723826225 6.070768798941101 10.181479571297535 1.1272166202130587 -0.5710296708264231 0.5540377642541168
Ni 6.143093655484321 1.5011972997190104 12.79724699512368 -0.5394027879497614 -0.20632562937655433 0.24317313722220701
Ni 9.094735425853566 2.416721892849892 1.952724090608747 0.21156759450178403 1.5227201635422873 0.2816540669062246
Ni 2.214190159913254 3.868273094281201 6.765146447397671 0.6889530602084843 -1.2436276867156517 1.9202620774577834
Ni 2.7350453337564518 3.9141470851567397 4.568667669084213 0.4570439259358709 -0.9800615876593894 0.7480825193807891
Ni 2.3694737112545186 0.23075429012968904 9.680376775069565 2.5185634395159657 -0.907817702592314 -0.5035441263799393
Ni 7.277907730128611 6.328258937914598 6.779509046109067 1.26929758067793 -0.09259519502991795 -0.2644297326081381
Ni 2.6901028412883172 8.205634030120839 6.879032733872843 0.8978698473509827 1.9019519662946855 0.27446397691568863
Ni 5.420444569225203 4.888448305519188 7.708727588104443 0.6174668792430399 -0.8879034801668902 0.46461633896649013
P 8.562370251887193 7.402728516720799 8.530458592090561 -0.054453650963190096 0.6309890820991907 -0.9729686853683501
Ni 6.28925590063823 6.722070640846949 4.617625749736347 0.47035375567089965 -0.514940798252655 -1.5681387008864025
P 5.945376201445358 3.8538671486142144 9.717308381234021 -1.5574513963758854 0.6289427410931233 0.88990251287479
Ni 3.3514021512498715 7.7205262605063485 11.402305073144332 0.7248685431581711 -0.18880150444986193 0.4953675041064178
P 7.940701126644616 4.1703275927059655 7.393835934894866 0.725546543061802 1.2852826432522766 -1.6879647066078154
P 0.5784808010624463 8.641888858507398 1.250070862736692 -0.8919074591199607 -0.19762013118275643 -1.64620484906221
P 0.9970260924005113 4.243122809831142 0.9738068806135678 -0.31554763432987587 0.011752512550237825 -0.4872168499748254
Ni 7.8648162860889395 9.328541526112069 6.772259959493028 0.21123155131860397 -1.1587689410980433 0.2685069880013053
