# total energy = -340857.2538716905 ev
CRYSTAL
PRIMVEC
9.42337179559384 0.00000000000000 0.00000000000000
0.00000000000000 9.42337179559384 0.00000000000000
0.00000000000000 0.00000000000000 13.79205715187019
PRIMCOORD
 96 1
Ni 1.4160972005598944 7.115710566670329 12.337629656691046 1.157301355413581 -0.0670595126526587 -0.20549593438640737
Ni 8.033914493639921 3.869038579329103 2.33884319274772 -1.1622373592626178 1.457377376470419 -1.7954064797322626
Ni 8.506308123079732 7.313488294471701 6.8032079986213025 0.5120382798938794 0.8031128687830555 0.6949990092922482
Ni 5.732039188550139 6.738492992633313 1.3373347741967623 -1.1590916145447845 0.5592097953733595 0.3701527232692658
Ni -0.03042429826469922 2.8178049123475053 8.522760387943864 1.9467151294429894 2.2607311576196873 0.4111919005987628
Ni 1.0995661410569375 4.748154359980796 10.130293387068885 0.555259809586676 1.4475087112064555 0.02982222556775509
Ni 3.532991716782662 9.255522723164344 13.725317275881796 -2.804068247626848 1.4208941939427207 -2.7556913989853573
Ni 4.485279979632642 5.573255373348447 3.3194995741308255 -2.246918677216627 0.1791164159516141 -1.3986222699183979
Ni 3.681221355543648 3.4694593439583414 2.0077238113270335 0.01870169017456134 -0.19451578122581986 -0.04086691341769091
Ni 7.362395594228185 2.0334505587384366 8.64210268038433 -2.7627963854612547 -1.1403927525837005 -2.1345812665627752
Ni 6.448865659682333 4.704147213571781 0.42351177278724456 -1.375358671404767 -3.0465759833509147 1.3733460118501122
Ni 6.049738746159031 3.640559506131464 10.024604618061403 -1.9577608457341897 1.061116643260192 -0.16960102026201113
Ni 8.146674560862678 1.910447286345102 5.501403105542431 -1.4535574885036966 0.06527850949283595 -0.8459397341405946
Ni 5.6102515311218495 6.46518693967814 10.016964148188077 0.21379802649419954 -0.3014304782022035 -0.050539403510448444
Ni 1.4622340290006948 4.5949962977568735 1.8602998708568337 -0.07452702467429746 -0.7302904855046907 -0.48913257894029954
Ni 8.167245781550234 2.842503569893122 0.029885281396477455 -1.048086292438795 -1.7646918242572254 1.929635034032251
Ni 8.317925496984953 4.954978524731343 9.044762416003723 1.3568171609571535 -0.31427082449998134 1.7251690835722546
Ni 8.354723763950094 1.761049149478181 2.427774379644036 -2.4158440115678523 -2.40409381301046 -0.5226499939714547
Ni 8.172249591987747 8.64012942632479 12.69589211830799 0.6974325584344053 0.6151001787830762 -0.06759841587526423
Ni 8.892449630232239 6.481790920828607 11.251560611094842 -1.1347098432663105 -0.06804013139837314 -0.15100860197180443
Ni 3.7966576603638686 7.900253387715839 11.080621588579877 -0.2487012661292878 -0.566374945663231 0.36001897726937354
Ni 4.566820416008917 4.785565146114369 6.949982668772962 -1.1207240705101795 -1.0654623218233972 -0.12303140003258811
Ni 0.7892234098295267 6.785638121859074 0.7351445636170953 -0.5038742560258485 0.4276695865388119 -0.33376724266169616
Ni 4.47767531857224 1.8018240793522295 12.156815882843745 -1.8043312930257183 -0.0804899271259517 0.38162344291302663
P 0.7637322467136752 2.215783380123453 1.8010636132461897 2.6636780446008386 1.2064703609390641 -0.04016140271023406
P 3.146614625334605 8.114550286321279 6.694222934150463 1.696905203630555 -0.5024346953658443 -0.8535144611640592
P 7.124323528515691 0.7747198982581959 0.3857504372218903 0.6476506019152717 -0.015418391437599254 -0.36646267601218824
P 9.58432301277962 8.30861520562476 2.2292512631315398 0.2686800232440598 0.10681956615941604 0.6592887003748322
P 0.693304792727154 8.075254825823293 5.3599516981330515 -0.59769252482959 0.7772910226239452 0.4967664413364735
P 3.760566146285383 2.880046283232204 9.958706978909746 0.5052757643590653 -0.2589661383904056 1.0293887160292916
P 8.577982289158312 4.563154724370136 6.620891196968382 0.26910425526567205 -0.11146632090280803 -0.0006535744235988745
P 5.263575105160127 2.497900285732251 7.730130429200663 0.13826647181478768 0.5388656844993688 -0.007135839713832872
Ni 5.2047921117341245 9.35638107177584 1.2231800479443413 2.368345194655941 0.3864645730554118 1.1710526435614026
Ni 6.89908609522484 6.2761729476712835 5.4959554542920985 -0.5896007489603909 0.3563870369437411 0.5989549364817813
Ni 1.5855011558050467 2.5617059363394117 10.533118031695164 -0.33280847829285265 -0.8097954230095538 -0.037311591966264775
Ni 2.613807759143575 2.600294643950743 8.063926048218814 1.0974098212642713 -0.3064916947751947 0.26081141912926054
Ni 5.988562216290225 2.318187161713767 1.8650445385692405 -0.4580803376201853 -0.27590456601695706 -1.045810866141057
Ni 0.8570547248790708 8.662820905672307 10.424009521053454 0.24957698386602178 -0.05139943751789858 -0.09403089903518
Ni 2.150743267807603 2.3662275112626228 3.8052696798720484 -2.0546443837268162 -0.651152444420943 -1.1691968212995865
Ni 5.807143461971949 4.565604801043872 4.797815529483047 -0.27245440268482757 -2.525246765073412 0.1922948623151011
Ni 5.348385451558657 1.085214345771942 10.11993615909926 0.2801070341340789 0.8774869128192566 -1.2164701524642534
Ni 0.7052225310705119 5.899388848738082 5.7874778273164935 0.7203937952162689 -0.1383672590587101 -1.397784861618767
Ni 2.9393475621084204 3.807711275511144 11.980580925364782 0.6808232320124985 1.5033109057777398 -0.2709330809442947
Ni 6.767743138768984 5.147121076183124 7.608140169278201 -1.5246646888631676 -0.280267213861027 -0.9411155454134954
Ni 3.8483637015515058 6.569484819004687 8.575860145823984 -2.2175749339471875 0.3058419770063378 -0.8542245998572062
Ni 1.9197670010771182 0.22274777845546284 1.7225999077698166 0.06457402722664363 0.10367587832411176 0.7807283304402683
Ni 8.124444826734441 7.568908787708605 4.151602152762267 1.5104138353711083 1.0632758556950397 -0.4920950040027331
Ni 6.761514289994603 1.7040189032110808 11.93923211214677 1.304733809998353 1.0515202578210083 1.228472576241768
Ni 6.930202068981279 6.61188056883213 12.97845003771806 -2.135096258525981 3.8919917266672392 -0.547697938079018
Ni 3.3259225443647407 6.295255275610952 5.290646567730538 -0.25737128309946 0.6833783943341843 0.8064041379398176
Ni 4.270879423937159 2.6159939814062927 4.386991384517022 2.3269483768767087 -0.16610097752855266 0.06406263480786387
Ni 2.3532044114045374 8.732318272859992 3.9627615507969356 -0.13900463553239287 -0.5450833832743064 0.8098252478062248
Ni 7.226849813939691 9.395139400079968 7.536366115458308 -0.9955041474667048 -1.5688601524334593 -0.08182252989444617
Ni 0.4319862110668221 0.9757618820587284 -0.06493362821426095 -1.7405221689895574 -1.2244408293745557 -0.41911964008627167
Ni 8.379403574752066 5.191731318388751 -0.18419393731987344 5.493940434124551 0.10825681282657484 0.8396351320788057
Ni 4.335533178008305 0.2088812868193032 8.101826849687136 -2.6161437464653012 2.28947300563907 -2.9311856448033518
P 4.705475908998691 3.0538226830027915 0.04557331080584104 -0.3599814391632187 0.3797231405665202 0.778882278370465
P 1.9647164846683391 0.6241871874238989 12.18164175590896 -0.13246889129640413 -0.21301769668474926 0.07240972122097851
P -0.048153430010720755 6.8586221366209195 9.159043415438559 2.1109407443257004 -0.07493583007694192 0.08391489364710064
P 1.4260200110885224 5.020857317139357 13.204405531941752 -0.5949057061130721 -0.1402441643664488 0.19400336036577556
P 3.934983335339871 0.7070770506450931 3.029893914935037 -0.6881961274378019 0.37697797372121533 0.09581575884974466
P 6.599356907680614 8.472016473019261 5.54417296323121 -0.13900334998081224 0.04440577980888481 0.07784657596583368
P 7.097033443719008 4.934624041595696 11.792139874364706 0.47252710917313456 -0.7381387779045159 -1.3801136695912488
P 3.1297656365167636 5.78573356119223 10.377047205241043 0.08170065960460124 0.15799660325386336 1.66965048167966
Ni 4.704062403225382 8.087995224526718 3.127541720766758 -0.39337492702199994 -0.3705419882878844 0.9615745845987956
Ni 1.9105320966915007 4.696297544844006 7.484024939009863 -0.03877429255472032 0.8287927900476629 -0.18834590496968207
Ni 8.907903960020414 6.077735583842368 2.4861559374304196 -0.2413707939061456 0.14890158293113065 -0.1479880699779258
Ni 0.050121972384348845 0.6924595162747154 3.999517412588877 1.472463067158948 -1.8280206662228584 0.573637026542283
Ni 7.6430236070890984 8.108717219163426 1.2991343095045003 0.42189128929413794 0.798972878472753 0.05786113398284228
Ni 5.80641786234165 9.008696345029156 12.008495779713266 -1.2950374086461955 -0.6825571839844697 1.7035193665129629
Ni 4.283704632986981 5.14943922565135 0.16493256531558514 -2.8481508397683593 0.12424958871040535 1.9235600314827646
Ni 3.061926782769762 0.6969148864721847 10.217335187914879 -1.0242053720561395 -0.5937381681675323 0.1416533860091496
Ni 4.989788460242028 5.388161504019568 11.953493443062273 -0.4529216762373813 0.5262991606882679 -1.936751590472374
Ni 7.318991543615782 9.383737120175276 10.502376165800062 1.7636489848150079 -1.0961278692280543 -2.104054044508196
Ni 9.274699284822233 0.8779331474880243 7.41254112504209 -0.2226981571973068 -1.2706759490826955 -1.4302072438135305
Ni 9.004257936900967 3.5924531929798538 11.973464394964761 1.7966881746581638 1.2318772310479429 -1.334420024208876
Ni 9.14680528245325 1.1816908264861807 11.30116995205207 0.47320433774581727 0.28235957761368147 0.4504372192526307
Ni 1.401443857376593 7.941753917220186 7.903027628380253 -0.6692008172822216 -0.21479278630730103 -0.012558039170668694
Ni 0.5467741879056854 2.9523046983637515 6.008372028534557 1.564972644453595 0.838198399632279 0.6588454421898265
Ni 5.530859623521004 7.140380954100479 7.224210327492332 0.30553550150951253 1.6516167641064006 -0.7432650433874877
Ni 3.0531818937188913 7.16176258476473 0.7634372951756448 0.4858310253708923 -0.5143651282548432 0.915059985977024
Ni 8.232427244443414 4.723879754167172 4.347118271326344 0.5952705456516587 -0.21148686186251967 1.9478875524845358
Ni 6.788870338394039 -0.05423433184749533 3.382957502317752 -0.27491803373397167 1.1200327008701099 0.587313238477795
Ni 4.3918943648760385 0.25367528477546 5.4191201074665765 -4.0746639782909115 -3.6652829056486427 -2.0177840203653568
Ni 7.409126095093775 7.421084353935968 9.054057629969 0.3007547922914175 -0.30718126464305157 -0.5658465839635868
Ni 2.1791264637356442 0.6728400561411888 6.741695054378448 -0.2525234680888554 -0.28416012115753 -0.8501915674384133
Ni 5.976274139434261 1.2212124479078952 6.0653052140718895 2.8430186607481165 3.3805561133543653 0.8152700729708798
Ni 2.0359760223867482 2.5495874801762444 -0.0073097095223710554 1.3120162025923792 0.8398804153203921 0.2668226583203469
P 2.673222118481656 3.395617802360688 5.7017741452692325 0.2682650471938283 0.22453521040604554 1.222115523675489
P 1.2375243045318793 0.9996407062558255 8.9219438416981 0.7023911879912613 -0.8787431538238608 0.5524629635678292
P 6.5865976622335465 2.31261794896693 3.9270950307876253 0.1370038030522802 0.5580453427516131 1.3468335673818805
P 4.863797978981102 7.647527978820042 13.355856079191517 -0.14265740179363173 -1.3177009116819822 -0.8543032756139415
P 7.8954380447147665 2.8537173823613715 10.373047926239762 2.289116907851232 -0.4523838014560403 0.8957571718833541
P 5.603494973525434 8.574900846572499 9.060126281422408 2.02893849432028 -2.3652778685845264 2.8752523239708414
P 6.551316558131758 5.630577744142031 2.9361634047697467 2.6198062829185527 -0.5690872023880715 0.45275249764936865
P 2.118072437700525 5.688757641771422 3.5922788606011453 0.2579261271616655 -0.09750111697196756 -0.11829439956823498
