# total energy = -340892.18043296377 ev
CRYSTAL
PRIMVEC
9.07760758206160 0.00000000000000 0.00000000000000
0.00000000000000 9.07760758206160 0.00000000000000
0.00000000000000 0.00000000000000 13.28599627498642
PRIMCOORD
 96 1
Ni 6.47697275792686 1.9542182508100596 11.482196653602712 -0.4056689138980046 -0.728097848728746 0.3478085512461107
Ni 4.6601168628099146 0.4289904798824171 6.063808178845089 -0.5856813593013268 -1.2009170352210026 -1.0975401761945485
Ni 2.646667223492217 1.6386261507554212 4.714854835637661 -0.03366319658040009 -1.0911350439991532 0.7161872133340892
Ni 3.5039927800003077 4.168655196326622 4.96534868949999 -0.7964022895320994 0.9600740887938692 -0.5697250930823865
Ni 5.283530630955584 4.544858481218884 2.7621988410670135 -0.27248885546718876 0.018127048618013942 -0.07357494517367329
Ni 7.329305630346185 5.973428795948752 2.7069951869778963 -0.6030247356757809 0.9601813037956949 -1.2576000897353439
Ni 5.020062152787665 4.686605321302678 11.269992147897504 0.5336766840992616 0.1246105715942499 0.8258635322160099
Ni 5.551447136766221 7.7764231845137965 12.381911005785174 0.5040431775035448 0.30794411095100516 0.765387843428456
Ni 1.9347467828638707 6.634623566235233 0.5103031484735528 -0.2331959714048371 -0.39664202780904595 -0.9573875431006414
Ni 3.0806131692729206 1.440280428319885 0.6994741330754233 -0.6087570101738677 0.6522731882889475 -1.1025427716154623
Ni 0.34868542571646877 -0.1386477449057852 4.876438971247239 1.7955203796023076 2.125541010737378 -0.16515378312393492
Ni 8.778908761500912 2.4400154902544604 1.1357067281687818 -0.7043735085286127 -0.1931332990559964 0.35898487957790437
Ni 6.896984576296188 0.6220185398830455 4.880995930179168 -0.48077906476928167 -0.16283104852802924 -1.0267114263074446
Ni 0.8224366800957915 7.401899256996846 2.6547018138321574 -0.42375713885828314 0.8413261466279833 -0.6113679654341536
Ni 7.448204132518296 3.9523358111715265 3.908076120604985 1.0073227373681877 -0.5805707775476389 0.4102740167701838
Ni 7.623846758761097 3.8350985111598583 12.294010717479097 0.8053132188684841 0.44382999834875825 0.9507348136708144
Ni 7.903909103318588 8.769268342405875 7.006901693672982 -1.0225724644384067 0.8554949819291975 0.3246107729734087
Ni 6.88354971729369 0.6959238808079388 0.4094137116899926 0.36002643346854124 -0.0845386432740286 -0.5844598281893999
Ni 1.840866166780195 6.367551277915969 9.12883418839288 2.548402377254269 1.3804715671513 2.5020397308293294
Ni 9.305909261088786 4.911847994565513 1.3691619128772667 -1.7662720242601515 -0.7180054974897505 -0.7862374331839557
Ni 6.495109817580232 1.8435622161881289 6.864808088985204 -1.1059163160733856 -0.537934430934351 1.7617954765460369
Ni 3.4179098287025416 4.581640946541941 0.7325765363446877 0.39572388687015075 -1.9086234647775904 -0.5539865993012072
Ni 5.958704916690609 5.549577149634792 5.19663160274949 -0.10226897067425612 0.523020489936996 -0.7898868570110849
Ni 5.242581543820265 2.692127881522293 9.523627505549479 -0.9870123079456098 0.32837229689837 -1.0256097086028337
P 0.2582070968991015 5.605005020627532 12.571634816679781 -0.17799438653202893 -0.34903959543973434 -1.4362719619503717
P 3.925057600831994 6.1776023423569955 12.69822386787008 0.9871056389903644 0.27488152406908145 -1.1278617099962254
P 2.59120304206974 8.429965531733313 1.4050475105858322 -0.2818260737077147 0.9218875504218188 0.6593316377976258
P 6.291108745713239 7.724045389618921 5.774877919585206 -1.00999437066308 -0.18000627475573516 1.5088565181863176
P 4.850946326289998 1.0333857526928607 12.746120047974731 0.29443219250749936 -0.5928745346156564 -0.25045604403686544
P 3.7568495350777384 6.1645941309039 8.027425384392437 2.0176981455197702 -0.3770278531225442 1.2439711860979996
P 4.843103273466919 0.9516600529634726 3.8181034145216977 -0.076705520382855 -0.848495667793229 -0.06974014480861537
P 0.12948026915806674 5.585451854214436 3.613259940684818 0.36249546383432407 -0.6811135095594076 0.971862853898681
Ni 1.3247497185058315 1.2024108031161873 2.5393254233444837 0.33505665089708103 -1.3009843702582498 0.42242247920725956
Ni 1.6097412039000492 6.701988491003843 4.951862995895861 0.7511279910753322 -0.4787990582247754 -1.3449805733335416
Ni 5.972593656064814 5.58107644743119 8.927804217439075 -0.47229802388146397 -0.1099938501223396 1.3374374708789611
Ni 8.526342489861372 2.28873716236484 10.267657259193795 1.168406207077491 0.4245238418209786 -0.8123999505119364
Ni 2.2121584660505977 5.3062791151854904 6.8186920276983845 0.26527562554820117 -0.8260967312727386 0.2672060098016946
Ni 0.8266114717547436 9.320978089429426 9.485510631933606 -0.5096803211846641 -0.6236472970221388 -0.43961827426025585
Ni 1.735992568093799 1.2932594983168668 11.58271844728519 -0.4192772487100585 -1.086845929705496 -0.577557701752928
Ni 4.220079842440915 6.608470979217532 1.5939343660750147 0.336236273027479 1.289102274108683 0.8377299446362928
Ni 5.695808327791042 8.100539157949074 8.221507354616167 -0.6607832826424878 -0.8706112687453458 -1.0084095426744633
Ni 5.399960023905615 2.8543084159402925 4.734093009072793 0.09405943828027026 -0.4099042921355909 0.49757093951563985
Ni 0.6325812438933882 7.5116566084828005 6.977446673070746 1.463905407396924 0.747600437538048 0.023562360700972323
Ni 4.813265177830964 4.321585648769252 7.196639120978741 0.7970802894357304 0.5776793149324567 -0.014626491663923198
Ni 8.381400331960768 7.194993350750935 9.285356650097192 -0.27143393184011316 0.9726434408184476 0.5822203973359199
Ni 4.608946389703776 0.5001561988836928 10.557584239749945 0.08473713243807987 -0.7730129640738815 -0.5778682910148113
Ni 8.03245710219317 7.311558907812478 4.674398662586016 -0.40892650160335375 -1.9839169353042672 -0.2175567222056834
Ni 7.378842134114181 6.276929522901144 7.291806034035832 0.4147554495803051 -0.18439026275604373 -1.5236719859325951
Ni 2.0886666945168204 5.212398499101814 2.5681032544321334 1.8911664456434079 0.4961776587125391 2.115533248792389
Ni 2.311531034631917 5.339221752563914 11.408684373079717 -0.33038161401891486 0.37541757121263086 0.6821082693725091
Ni 0.9305727708940104 3.2712429253894544 3.64717842086241 -0.6569891057073781 0.8793769307531178 0.8132702689320317
Ni 3.8640106908375325 2.625008052154405 2.9212185525764527 -0.9227370429063075 0.44406911094275775 -1.825754495896501
Ni 1.1471009410200903 3.4719760585801644 8.192610606871131 0.16542914827250865 0.4134261892459202 0.43108246887510276
Ni 3.3685639546906616 2.6187808134545985 6.90208800719565 -0.13852898144755496 0.21375148952698028 -0.10299762131016456
Ni 3.989063810849979 6.87431779053319 5.96611678316057 0.41852725791791145 0.9143909849344575 -0.51451476645883
Ni 1.0472381816373288 7.546396612133179 11.603909214079401 -0.4958220751453331 -0.4621984735536168 -0.8485949123752546
P 0.3761442804439404 5.761775301014795 8.021819054041124 -3.6988581705009262 -3.267930224925817 -1.3516011639738528
P 8.58513815321217 1.537646845658263 8.04186695005938 -0.982793898988888 -0.1201183401508512 0.9619566505285627
P 1.8236913335148388 3.3915847671435917 10.498859381737132 -0.7070381998449694 -0.6496468064096941 -0.4189026389794592
P 3.890798710375623 6.048999877837807 3.8286788271824483 -0.20817116722572537 -0.03014747011765776 -0.20321125211728874
P 6.877367866631054 3.866561498526521 10.120116182284802 0.4452965555919557 1.1455750681155885 1.1441460489785455
P 6.476464411910548 7.8255511959472575 10.332001156208332 -0.9013729754082347 0.45919131129617685 -1.1804867923911087
P 2.404004621563304 8.578311792421713 5.8616888949991885 -0.4949620411378831 0.7534640954076766 0.09599367918850564
P 6.941437619901078 3.8703831712562855 1.3776385826992483 1.158493061728837 0.20086100671755727 0.6319928407733567
Ni 5.304990094929845 3.025412238466033 0.3041216353008837 -0.3723322474190878 -0.0674246093015613 -0.2472239102528129
Ni 1.2775733926707062 1.2648647422629373 7.01545733867964 1.217519162554058 -1.4850041370487521 -0.5365267519535469
Ni 6.778394712776836 0.8139155299973824 9.168253698675551 0.784732566503655 -0.023311163922114693 0.6253395971228973
Ni 2.703102708910145 1.8340216507748681 9.174418301884062 0.585045782599857 -0.7464897209723724 0.23553284706812985
Ni 6.506965172889195 2.011833825194423 2.6064470682338583 0.3198596314416685 -0.10941509480073415 -0.38456092827479577
Ni 4.277368622957651 7.042416924998235 10.233153273336704 0.7885272576593969 -1.420255274807141 -0.23011604692793275
Ni 8.355447452306617 7.312566522237665 0.18915101386551542 -0.4390814279201793 -0.08809062229134507 0.8055057944952644
Ni 7.846584012372115 3.6203858625206027 8.10113646451824 -0.8644897292286402 0.9986221242703964 -0.06014967290670285
Ni 3.166995681616013 8.362600606964703 12.234674936485966 0.6776535760352651 0.291898113231736 2.126062687568803
Ni -0.16884077499241387 4.893792633379047 10.158725062223604 1.2090707746763887 -0.6558861024511865 -0.04746590679144729
Ni 8.54226461330082 2.481536466658128 5.829762041892643 0.5814902040381147 -0.5610278224187047 -0.6938229867062761
Ni 3.6940324916336236 2.570841968595007 11.499906157945937 0.54392690107236 0.9867009473527779 0.5808618264254963
Ni 1.1878503207918578 3.395433672695659 12.630266175336024 -0.1449701090872084 0.683961520531164 0.6315408408376026
Ni 3.156728907608022 8.339607027334075 8.074192310132283 0.025211723378937224 0.6979951158060946 -0.5813963587727278
Ni 5.53761286303662 7.6787299733077905 3.562427154575229 0.048380448185916684 0.05524503651623389 0.6090151489312609
Ni 2.9244329333688746 8.467637602584913 3.5664267484107026 0.9234862623675064 -0.22403281684833032 0.587469304439685
Ni 3.440031958019494 4.376886433257916 9.490492422893452 0.5715503192165834 0.31628194139273913 -1.5636624102826038
Ni 7.265517282906619 6.116410190643588 11.38013348217792 0.00354709392131002 0.050581826712609655 0.2946941879196344
Ni 0.7631653501154441 0.14198739668079816 0.42164851098970035 -0.21898265601893255 -0.19805439050669763 -0.467353278281679
Ni 4.770391637919611 0.10509055350407136 1.7280160744414375 0.1319497855681405 -0.30736664118098034 -0.23826875794205418
Ni 6.22281790498635 5.65617549373367 0.39056042881006736 -0.281874924667779 0.051952224697575045 -0.4483368850801762
Ni 8.104342675463972 8.69323430253768 11.447001861819883 -0.41059489044471226 1.1678318226312596 -0.08856781903807973
Ni 0.05850245663067736 4.87430301021799 5.864492060174845 -0.952422228675566 0.17203199830100693 -0.4549281651444488
Ni 7.895466928404855 8.896999356611387 2.5254947806578576 0.5624455287018378 -0.23402952304972602 0.05140920770991146
P 8.530908526400735 1.5683927020376298 3.6980239156224064 -0.1983500673702455 0.5738637978411084 -0.28048061542341374
P 1.9492618771510297 3.130757872739003 1.655661188866292 -0.3645245784492109 0.3964072860904206 -0.5676191024829772
P 4.542180587025818 1.2647830437960303 8.0072440475449 1.0532832632587024 -1.0259007574806913 1.8006471593059117
P 8.780960300781022 1.5971414847814895 12.305197053120162 -1.1520637611637257 -0.27112797056392013 1.313219478871861
P 6.491850956511383 7.6954690814163085 1.3388163789857446 -0.557095320133518 -0.3480993430136521 0.11924596484822689
P 1.5822178981597954 3.2194914854075325 5.8828796617934 0.07254393280599765 0.5348609342153499 -0.3760438919427201
P 6.752696006130841 3.780723642629476 6.134848626863774 0.5690908019324973 1.7619631124721526 -0.08298441141303127
P 2.6506341379409277 8.30881578291754 10.20808273712515 -2.155437026965862 1.8092629259993809 -0.17411047809659044
