# total energy = -340855.8408901065 ev
CRYSTAL
PRIMVEC
9.36143292105438 0.00000000000000 0.00000000000000
0.00000000000000 9.36143292105438 0.00000000000000
0.00000000000000 0.00000000000000 13.70140334809991
PRIMCOORD
 96 1
Ni 8.742857300438919 0.7932962312854104 2.641068921283252 1.3777557108820337 0.9241429221148987 -2.0195804501441477
Ni 7.298023140778602 9.304964526200415 3.9754625149480876 -1.226026428694121 0.6938792938655082 2.7833302437485488
Ni 4.502689978656712 5.877201055963455 4.11947785927971 -1.0943800332990121 -1.067187017823988 0.7548231805387323
Ni 6.105582567824183 5.311330534261311 8.864588690399609 -0.016921972566319242 1.9248880062655689 -0.24596149860062155
Ni 4.11208419974259 1.05045572337286 2.1951979244944857 0.06606500994987331 1.1420369730553428 1.0849158025623187
Ni 7.260006362631921 0.6338026941471582 11.693271020329854 -0.3628335639000332 -0.8196602316187754 0.298684282915634
Ni 2.2209624595388826 6.472092018998943 2.911520711644642 -0.5639925614739836 -1.328523456218783 -0.49725983603312424
Ni 9.150594501172401 8.257972532922182 11.388647192226818 -2.6074924985482064 -0.6371736136433478 0.18004484130315443
Ni 8.890356033873813 5.912240898515296 2.9912492254200265 0.3024128967201308 -0.6297464679413413 -0.8693306022607092
Ni 4.592409949540186 8.21918811729507 3.33771678535267 -0.511981201403699 0.6143537875353549 -0.9227979780512301
Ni 5.2346323162470885 5.082312444977786 13.568581300723233 1.7525168794575883 1.229681766058521 -0.7044393287695416
Ni 2.07628151734313 3.9450294334220977 8.123506786075765 0.4245500670732236 0.6383635201863909 -1.8044017412523377
Ni 3.634211145309295 1.0341481076300583 4.780309818027438 -4.242366238868313 0.2515665034922248 -2.116765064316961
Ni 6.636815788580079 7.109334103515736 3.769269470844872 1.0743925344334915 -0.42547052200496405 0.23992969058424485
Ni 7.107293311189714 6.152202502611298 0.8941244781966734 1.4008691569710454 1.7081404102247422 -0.8482223595271844
Ni 2.2583613831281437 4.154538296983465 2.0924917741859748 -0.660261862921379 -0.4611556341113993 0.39297306359789097
Ni 0.6949684230451592 3.5809165090155126 4.610590787963892 -1.5079211508562418 2.2023694298513425 -3.3876901532959853
Ni 8.334502245148016 7.011806697770324 7.04807007957451 1.6772696887878142 0.5885681939308186 0.7327322621769639
Ni 4.395726248761619 0.07053839530540232 0.12128578576473283 1.552407406194075 1.0651049384839788 0.17535026404096252
Ni 8.050701051773288 4.022167638772664 10.651347306708999 0.43019158162971716 0.8094190135067415 -0.12634195246305982
Ni 5.62283220696035 3.3941746497517875 10.175634870940135 0.17837696668242828 -0.32368517583534573 0.18366444033361273
Ni 2.003346595269555 2.6417214131416182 5.8998238941976995 2.4042465365382397 -1.0573841728009532 2.598134968592706
Ni 3.0158697933899274 3.2787949918700243 10.127762376459343 0.45944405073693134 -0.720837824732223 0.46422218885186506
Ni 3.43900655089546 6.15126635934248 0.8978325416844596 -0.417436595956894 -0.12999471872429869 0.18524618299843582
P 8.352916183245657 3.1279355041000767 3.027817789929846 -0.34068890948219394 -0.23698989122963057 0.6591987117641873
P 3.6636996582770482 3.8495147357046435 0.5152373407216091 -0.6791975234836173 -0.9588515292406777 -0.2686111176793374
P 2.031187496084189 1.902149507910378 3.268757663741763 1.0800425336304174 0.5943711737658409 -0.5184279854703071
P 5.40656438899812 1.0989666675629854 4.108023210242459 4.139719058919032 -1.0639546269296192 -4.6615640404906875
P 6.875073611926832 7.7878881904854484 12.752128629540353 0.37976839198215884 0.7603029727063809 -0.5755242162626669
P 0.7723097714850586 3.9386542977614503 9.770593762820846 -0.30381723326682514 -0.5800015353077302 1.2127281689233178
P 4.040871781283639 5.1128587998393025 9.68968664467002 0.6549540775552204 -0.15897002291072623 0.42979923128730496
P 3.2471814336820564 8.354769746917915 1.699877967960239 0.37390242011968505 -1.1272963244110585 -1.3485621200372129
Ni 4.7777569553333725 7.98137028128466 5.53191397269279 -1.313295840635751 0.6114271008068631 1.8062148832016767
Ni 4.815361830441773 8.465000616821182 11.774561021077627 2.611879314761992 -1.7569165511871805 0.07680476496488063
Ni 2.9806427221843235 7.855711770311281 13.06499987984167 -1.965605024368957 0.33556855753649306 0.3515785598115042
Ni 0.45116301468739195 6.361552221816966 12.94867565340167 -0.636700016441039 -0.2546775383173807 -2.1760924984326846
Ni 0.7977532093882508 6.109383309495583 10.487108459341108 0.38562845030736165 -0.11929198759481392 0.3727377103876226
Ni 0.5633335734436483 7.23532962606589 4.837732846136706 0.46208303102167514 2.3438834620691504 -0.30525679392682914
Ni 2.8624265501980433 1.7004199949128842 12.730439126145118 -0.2492813070024739 1.0215422234016793 -0.554875943884696
Ni 6.336351245020398 6.3797508469627795 6.099344109080784 -0.6117706001892109 -2.2071835634105343 0.004101937983515516
Ni 7.879330664983547 1.9277717491779143 9.579294758124517 2.9075142693283405 2.112893754287013 1.9279000536190152
Ni 1.0386977639165116 7.782318138035984 0.9616466198899456 -1.4454713690614525 -2.1264522096977374 0.18964071252170564
Ni 3.8290319209829153 4.1429394818828165 12.041025777257122 0.7945325833132123 -0.475775183796787 -0.0519059448406719
Ni 4.97413172883323 1.7244133468926781 11.821091086110934 0.756246286138504 -0.2962206518664899 -0.2950019489680403
Ni 7.544612639217832 1.313830270621989 7.558351477830999 -1.234886450187912 -1.4873019319439933 -2.091083857500773
Ni 5.441791460203724 1.6707348918586797 5.999117802291371 1.7846872935425457 2.0833772328851343 1.8732330010934384
Ni 5.70036359248382 6.132861782677527 11.138158657072962 -0.1021599559002176 -1.2952839774393627 1.1724089004789808
Ni 1.8486208357993905 8.376666137975558 10.631905483302196 2.1003621974789053 -0.4954927168303725 -1.6957587487309376
Ni 6.8941428503126465 3.497899323936772 7.816842165646707 0.6159789818436037 -0.6188771293270051 1.1092471802188315
Ni 3.433146294032662 9.030253283965907 8.657916340942759 -1.0697457796900998 -1.2391051162549498 1.6356273306566798
Ni 1.2357465605699176 1.8461306947043357 10.431289044651324 0.013195672754667598 1.415923737311323 2.7892671780582736
Ni 2.851398782491373 6.793132991607234 8.812975367416621 -2.2131328390154335 -1.920261563237151 1.1027587442810105
Ni 8.063994286190496 3.973300960140388 0.9225167673966409 1.6728437918059773 0.10719674699317668 0.5730248468795809
Ni 8.102862954711801 2.562673475522664 5.2353606357102285 -1.4508619439494046 -2.123215705038311 -0.6384920753444552
Ni 5.6742451952838096 3.4936960406597812 1.5724145727645793 0.10104641112106469 -0.3703476128888912 0.6667117323117807
Ni 6.82167599987348 3.0384682918991834 12.813524649682483 -0.9407085397830638 -2.189947916258538 -0.5282508850979999
P 8.307307283188866 7.8851160303848395 2.3712059650379484 0.7954694933051848 1.225718924756031 -0.4279593498650887
P 5.775947800008149 5.741806654994372 2.428121603495518 -1.2341359451751328 -1.5601302287596295 -0.7603860193384904
P 6.162818367279689 1.0742899309969547 9.86746305984828 -2.390146092581116 -0.7990433266993723 0.6494475459146944
P 6.1709347294203365 1.542773468444009 0.6195031057159701 -0.4694865225745979 -1.3916576656751065 -0.1805554623909858
P 2.7236245877304652 4.535146065786616 4.967429879171765 0.2701373245158767 0.5603881319521767 0.06310258488743972
P 0.6479019479188193 5.513968106229558 1.0734857839290404 0.8305413973076535 -1.1949037391473873 1.2962867076722644
P 2.6489484391768894 7.4146572306405805 4.702924470853904 1.9361867191078397 1.2177577609274255 1.8203479801689488
P 4.536400497766832 7.343341836422059 7.865016098260058 2.323947899487488 0.17744288490393312 -2.448757988687054
Ni 6.20267934766594 8.092612185918249 9.011426506686716 -0.12509779564331358 0.1200142104728191 0.8224997579500997
Ni 0.6888188979122967 0.9753302260502517 4.603342230633437 -0.5956672668694452 -0.4774451153000423 1.861252945913427
Ni 1.6691247254363137 3.774014781074508 12.83085734230464 -1.1094040175116702 0.18887838043438437 0.8928484828769914
Ni 0.3131183921242873 0.43725941485891373 9.141822838743582 -2.0578610908919006 -1.6316302936821447 0.08445276842844164
Ni 3.4973938065716106 6.416737867513762 11.459730422914673 -1.639492470039041 -0.2440815079690893 -1.0566969169259413
Ni 8.690395831654383 4.237564843494894 6.538186542207268 0.4653794423847598 1.0950750024835076 -0.5902149855056223
Ni 2.221299471115657 1.49961726375152 8.47160510758269 1.070318364364118 0.7303881874248196 -0.8756292907852274
Ni 4.225881775500051 3.2449721355676466 3.642613967290202 -0.22507797028339302 0.09753531264401266 0.41586308082218704
Ni 1.2506312385441165 8.390418082594488 7.633476039010338 0.26919090144220736 -1.8746129121601007 -1.034209791567019
Ni 9.084250027711303 2.0903423892407695 12.177067053224958 -0.34790471050434274 0.5898833131978164 0.9856257120107282
Ni 6.422186221338279 8.825031956575723 1.8275753989731032 -0.13111366282009032 0.54393487149216 -1.3967939584604074
Ni 8.446530510127412 0.06328328497206633 0.1254656654600032 -0.07459773001123282 -0.08073443903659 0.42407724120186313
Ni 5.146765909035874 0.7286826867283543 8.022199233810868 1.6297359048729092 0.9420226306087971 0.003398741268903824
Ni 7.625682646297432 6.957501026746218 10.537941038837902 0.67771502540082 -1.343908937535918 -0.946661414932389
Ni 9.111950507035614 5.289368613174851 8.455587696253222 -0.23825667375719609 0.2963888020132379 0.9755202481456102
Ni 1.0731478362089975 0.20462125955487104 12.309367500690598 1.2782483621133147 1.834748471864995 1.9583933371118658
Ni 2.660846820123561 0.3434129244464921 6.473132074170599 -0.48574592185625376 -0.9553301463509806 1.2001102230489913
Ni 1.5503562289214312 5.845297293362153 6.6177914850711685 0.26239110491155454 -0.29135843867818206 -0.6303367932271725
Ni 4.056252615190311 5.207802450162778 7.264442745582847 0.5850609521085085 -0.2723479590139503 -0.5170966682533933
Ni 1.5450951037506766 8.694336994816105 3.0163912251906595 -0.22062790493183937 1.598255317766125 1.241148886157856
Ni 0.2239554264857599 2.381707620227544 7.825625061794754 -0.37026379492583333 0.9664923336153869 -0.5490608798648157
Ni 1.8773323498540246 0.4175985339272075 0.7395850112370036 1.360534976128373 1.4948329502137156 0.36849436173023636
Ni 6.698179979851069 8.523116390949376 6.7702602031202135 0.02733982546553356 1.920793781591537 -0.41409467606785455
Ni 7.109689837957887 4.674210148369463 4.2457766922489615 -1.558902012779483 -1.26178301746844 -0.6437360973522139
P 9.26743454255352 7.662117342319811 9.097046170052769 -0.5760975722676337 -1.665699210341396 1.7241059324150632
P 8.453504777480102 5.931722039939389 5.206683758956541 -0.6631214438573612 -0.7947511270819216 0.8292435044318364
P 5.945417815962189 4.06205670345698 6.102782563307151 -0.4969065664587636 0.26455597377335727 -0.8870131071421369
P 9.136430653515193 0.24237217301320754 6.678269148666589 -0.1190158511152918 0.42732428738425116 -1.2306307602353515
P 3.813632364210867 2.416859799971643 7.330031751426011 -0.7396624136378939 0.30051593680773403 -0.2533706465804991
P 0.5318538837431206 1.965854057353412 1.0097756176263935 -1.3300041545293675 1.086041945746962 -1.1789610997752018
P 3.665815342064576 0.38969397537029404 10.753532025216778 -2.799286252857173 1.1335721301174413 -0.7252920038488347
P 7.468719504414794 4.917701012588908 12.509093667092822 0.049732334228120796 2.551089694278445 0.3564022064523927
