# total energy = -340888.86238742946 ev
CRYSTAL
PRIMVEC
9.12371711071842 0.00000000000000 0.00000000000000

0.00000000000000 9.12371711071842 0.00000000000000

0.00000000000000 0.00000000000000 13.35348223099598

PRIMCOORD
 96 1
Ni 6.60780662881956 2.3016766556604815 11.693791811586339 -1.256103193474843 -0.06998542805020205 -0.8130123872849546
Ni 4.683386559390339 0.24029407938640845 6.090122347916638 0.7853838269344087 0.2664611612158701 -1.0652928861250686
Ni 2.651388739392718 1.495769583702428 4.814985232840301 0.3952034955903065 0.08694956670836639 0.1786235354755956
Ni 3.2836623476015365 4.521568309531875 4.912839837892568 0.8810206370041278 0.13658188502351315 -0.7911356418165214
Ni 3.6977513805332163 2.725199612270198 2.675664213986675 0.5694127040482904 -0.3207057814920477 0.22877753062216727
Ni 5.369699945108838 4.64226596556354 2.5051136543097887 -0.35044958841338353 0.3518927486178133 -0.5552304990106374
Ni 4.916351556677554 4.993921401078583 11.327759222365444 1.063372272063588 -0.5283663276299417 0.05395331428800386
Ni 5.729803942834579 7.889196227354851 12.131838813750276 0.6928140858257875 0.9553589427063868 1.2968994015555988
Ni 1.820829383316624 6.668880792359961 0.2257381008216704 -0.018320138465426513 0.08146848898913711 -0.4377979332220653
Ni 2.784585888111918 1.5862312406344692 0.418856175215794 0.6805293549211634 -0.037096133521349016 -0.32558856350564574
Ni 8.21120870539413 8.951808208989142 6.543580220955405 -1.9187651811972826 0.761930738117791 0.3251982700457625
Ni 8.891564303722147 2.363134015327071 1.287485154056854 -0.6609563178852423 0.20138782575530478 -0.4082988953216839
Ni 6.8826586121859465 0.5650947654295635 4.535242937006382 0.1975741084361694 -0.4984672260776642 0.24214006797200238
Ni 1.0364907790325335 7.283189801224434 2.4069917243409202 -0.09123662411949449 0.2644929817459058 -0.7134147927952745
Ni 7.8994695330235825 3.784892004371635 3.815370694351179 -1.1826411197299502 0.4850075010283324 -1.6621713996937952
Ni 8.065019383253727 3.9167205954973094 12.78068474204496 -0.7236804363873407 0.36939810449142835 -1.230805852360635
Ni 8.1710461018828 7.18991803936702 8.797421226863522 1.5298758007504618 0.4995913123797783 1.0239541752772816
Ni 7.008100601208501 0.7569482926072694 0.32790183755008395 -0.19101573849236134 0.4668501133930153 -1.0447482292044974
Ni 2.0920410034842334 7.005108021937326 9.038531878947401 -0.6638935461366954 -0.6177242466694846 0.06627018398214393
Ni 0.15677830842737442 4.908797118761293 1.2409496340183392 1.4352849154467537 -0.22876904598173503 0.9196854005641774
Ni 6.497254546414563 2.0034588323139677 6.548120182678994 0.732436585313416 0.17319799358465007 0.9032979603450896
Ni 3.557136649657108 4.633196990577112 0.21341925773648213 0.47413687686241573 0.14485183834178925 -0.3257243177525616
Ni 6.335719131792094 5.639342285902537 4.430084796263335 0.4577995731549729 -0.21796372783611492 1.7472096083120618
Ni 5.459842271935723 3.4026812396518107 9.392024831124683 -0.46642408159919024 -1.1790364330978274 -0.4863699285934978
P 0.240324187653466 5.675910144801541 12.496669809404056 1.1558959904256223 0.9074052976452438 -0.3603208247805085
P 4.073675904040113 6.573145626834202 12.698360528564024 -0.6258566459686319 -0.6620063564163114 -1.4373112018481633
P 2.5694486344096967 8.653216313233731 1.3582231589510043 -0.8313816338207618 0.6925808867690588 0.17298716312542467
P 6.381419831698558 7.64090338502015 5.5745310477600825 0.7199153129179536 1.2268818347158805 0.050992431887467014
P 4.673450831261343 1.0817261693571991 12.694995701627409 1.2035259335987596 0.6485425176019217 -0.71346158687281
P 4.295555584819771 6.489499386717918 8.156320422176464 -0.9644449641680551 0.5795176536927762 0.09369768406547734
P 4.890421952138889 1.2938617200709541 4.081385445150307 -0.7630468540001053 -0.5313200109416268 -1.2659186369033681
P 0.2470200837727222 5.508088488966144 3.6037980769942273 0.7070957925557821 -0.11215151989529074 -0.5069019871085786
Ni 0.581128786195309 8.972300078022865 4.454601136993753 1.3779613991349364 1.6897426244438447 0.4580782807376563
Ni 1.9153328470082105 6.789970768235104 4.486903658059601 0.6328839851290585 -1.0186546174412392 1.640676720155129
Ni 6.214446681571148 5.885354198914696 9.240890454213009 -0.9695573456939559 0.06143702425955871 -0.11241505796932254
Ni 8.993658700199154 2.4101029119368684 10.173550593368214 -0.8992443591010061 0.528173237782529 -0.20781584076883564
Ni 2.522762573035894 5.416595851980314 6.948257227130544 0.14451836626177045 0.4623851356431262 1.2507565844509492
Ni 0.27117603767017767 0.024495356180649856 9.18258898835709 0.9187353779460822 0.5032263380292044 -0.11977329810660661
Ni 1.624377502624672 1.2711436640184295 11.514641235991737 -0.22290127434704837 0.42463491347754606 -0.2674703192066748
Ni 3.8706731943338184 6.808610522658923 1.5041761768135913 0.5135097222330833 1.6328088873712785 -0.1934279474782798
Ni 6.011708559666268 8.251033731365723 7.899359136044372 -0.4673514785094662 -0.36801407965970817 0.32403664563749357
Ni 5.396669653418582 3.2851677609544145 4.4428771602758825 0.4658880065900622 0.42587855607666003 1.2783203530018308
Ni 0.8443827001424317 7.598870419464334 6.692017627036105 1.152158634870377 -1.524960879947348 0.49925012699027566
Ni 5.123085866755528 4.735273139619539 7.168109617928326 1.1315977799998898 0.09362286496348392 -0.3069197834515488
Ni 0.7575568445505239 7.6883010963425855 11.222680457962822 0.5574064236160335 -0.8955617680430963 0.169026892926096
Ni 4.69358687532075 0.48762436954699645 10.371435810046453 -0.43341780187649875 0.1592376747498161 0.16751739826010503
Ni 8.323977851100636 7.307221672566742 4.293171557491848 -1.1961612657035723 -0.5235419096581048 1.6621006943568601
Ni 7.577329322942242 6.366840131468865 6.829451830064859 -0.2633632390168368 -1.5866143910930868 -1.3451142706979287
Ni 2.612594693474913 5.026502195521783 2.6695212151352035 -1.0425093125716496 1.0000213186107683 -0.32154473245357523
Ni 2.5310834032045295 5.495479511671129 11.414222866380932 0.13581106829575965 0.6526994771930889 0.1290182137436423
Ni 1.147435181281007 3.3399648069991787 3.6669460614746843 0.4716894437631876 1.4744309895185963 0.4829575604778392
Ni 1.5016726287891684 1.4328889241385727 2.582924364847279 0.808350205922595 -2.4207509619511667 -1.0398865302368219
Ni 1.1222081029736857 3.4691383963934133 8.308403665686315 -0.22721867077547966 0.25476007072885803 -1.2362756172259548
Ni 3.993542295080545 2.8039829110708205 6.666859888980189 0.6823998324709989 -1.0912895672991463 0.08366318264761076
Ni 4.398334260093542 6.654565679931683 5.7254126977028195 -0.5721802394910984 1.0200494409062366 0.03666084575614331
Ni 0.7497724889585503 0.19606412270711973 0.18887007162382027 -0.4320836564461075 -0.36173081775415766 0.11545101658216891
P 0.3804690470891305 5.579618432521081 7.892535507883053 0.7479657912972667 0.8309910832505624 0.5182310389681527
P 8.448370612634822 1.8415310978480208 8.042695471788138 0.38824377644302166 -0.6414886960789339 -0.8292985260394878
P 1.9371476550490083 3.1869874391948896 10.430698915704756 1.0471750934784354 0.8945667511196788 -0.967841905664746
P 4.18693773048029 6.264006713891354 3.487328351554826 -0.0011500544440431807 -0.8848955465785019 2.1884188812085217
P 7.063800895264993 4.210933106953438 10.532252275746457 0.20501925186030498 -0.06365331518458714 0.2793642424307834
P 6.646518561281753 7.88164178943859 10.180788438294506 -0.25355833711127296 0.9480667799203478 -0.36596902420522137
P 2.6466444064018297 8.603492054002302 5.80084667988622 -1.21358408916571 -0.45024927161154066 0.3568711756690112
P 7.222955019674728 4.067143322460351 1.4408411561286854 -0.4211045317267845 0.06199881030029968 0.7040377224557488
Ni 5.383923820364213 3.2919466829010116 0.5883821414409948 0.2724284345428986 -1.7792483819151617 -1.2225569820882816
Ni 1.1236770214574032 0.952625569701286 6.927733425086306 1.0146964041244395 1.077044884454674 0.13385677278286626
Ni 6.967591296440144 0.9729988304102368 9.526748377746529 -0.4486731853736724 0.1331612893777384 -1.378487961062368
Ni 2.9794319945608 1.951654365540379 8.73739720318322 0.36314878114760685 0.2454681039039708 1.408566011394671
Ni 6.421719290969241 1.981753508880652 2.394199360328372 1.1810074407812694 0.6143483882187162 1.1334546307029705
Ni 4.200021141074394 7.146945330930317 10.478530915970202 -0.35404476196380963 0.36836503524122366 -1.419347675391207
Ni 8.160654187889294 7.529822127012324 13.282054904061328 0.9162540062851252 -0.3128479760105257 -0.17176100402780742
Ni 7.714878484808852 4.1346314592557425 8.191760589618402 0.26689413498823067 -0.6106632260576451 -0.03738846795078722
Ni 2.9628724476791404 8.491215589029464 12.331820660661794 1.0559286713013494 0.2826213159155003 0.04770964737113719
Ni 0.5493691263082255 4.983958301797717 10.348361016647882 -0.815052557643435 -0.23811526308332542 -1.001041018124534
Ni 8.89010450895572 2.588544574698024 5.493703123914733 -0.2128217786238593 -1.9471005378068662 1.8704001596303337
Ni 3.9047958969990564 2.7766847489386306 11.406704923333832 -0.22177153161797933 0.01842452525377472 0.3036303140669997
Ni 1.5364978576857493 3.643948819673081 12.603630796683639 -1.211594569539507 -0.3932692546820711 -0.13274039979023589
Ni 3.3498822876935943 8.839495249147143 7.992820671221421 0.316509484022513 -0.7118088817607354 0.4386841924817606
Ni 5.7907412506156275 7.669643094484187 3.3628607755388615 -0.10091682752173588 1.3535981397992236 -0.7991795951669204
Ni 3.102912384365968 8.602424579079353 3.573018304344108 1.2490198042655005 0.15659020982464 -1.0874334267778498
Ni 3.3836582891018057 4.691032234479502 9.170143325601568 -0.11028875565493908 -0.41374372048633906 0.4570547245691483
Ni 7.665062988404522 6.173973871671951 11.310613020462027 -1.0046431336534958 0.031598343631571386 -0.17545387949836233
Ni 8.380170825890797 8.825654570017955 2.1208801614667334 -0.5161119357426208 0.8763594840830325 0.6577167279020222
Ni 4.8776031293462 0.4663925670410406 1.502773861466092 -1.2204301655532659 -0.9334955669743923 0.29560230155620054
Ni 5.956044760478937 5.7483433363682055 0.1944026937885797 0.8322516951305409 0.5788298835971322 0.47400497927024166
Ni 8.165571871508696 0.12046317649730863 11.353344862762269 -0.5030427612634885 -1.1448690431874995 0.4105547812353961
Ni 0.6322042679574129 4.810917879672344 5.715544485081771 -1.0466413324621522 0.9354339216476857 -0.059346974499749405
Ni 7.737678654316988 6.402887938482329 2.2908568393260684 -1.2617138547934013 -1.0035856389232587 -1.2708399854643857
P 8.592379366342874 1.5260603251057943 3.4899459460453763 0.03421778353228945 0.5175779787651861 -0.4720787087818063
P 2.1541552707957146 3.48340789023524 1.3135242432030005 -1.5059845959551612 -1.4648839692601092 0.9829116555136751
P 5.161514963981727 1.4307266031408024 8.252545531320706 -0.972448808309138 -0.43269043679217095 -0.20984932625909666
P 8.681873909242157 1.8897773148784427 12.288128090930899 0.5566024396574994 -0.35563241816590363 2.30114967064605
P 6.436755177063443 7.92505243630522 1.0934045274886173 -0.27226928325721494 -0.3943383193765338 1.209405018087356
P 2.048265407925995 3.1836755298185575 6.03087292783427 -1.5605320921837382 -0.5441613856806694 0.7684837087449604
P 7.093872667453395 4.045593102220968 5.962036305623393 -0.5767884276870711 0.8475068215173985 -0.7210759088849581
P 2.4291988522251953 8.960366255807322 10.12613280986774 0.11782260213813903 -0.9405576160274964 -0.9254693542358061
