# total energy = -381172.6638900776 ev
CRYSTAL
PRIMVEC
9.22020382636927 0.00000000000000 0.00000000000000

0.00000000000000 9.22020382636927 0.00000000000000

0.00000000000000 0.00000000000000 13.49470029237218

PRIMCOORD
 96 1
Ni 3.178757447642992 1.014480579096366 3.0583176140324184 0.1263470946693824 -0.08807082479700315 -0.9683108748813647
Ni 7.084647824261125 3.4274632238140157 10.28610541355656 1.5609848634504406 -0.7626730156004543 3.745120801012892
Ni 2.4150940713782547 7.804275507377169 8.604598413784117 -0.022944524611315322 -1.649020464134134 -0.48023887599509557
Ni 6.29343447916718 1.643169392546259 3.297996810724261 -0.33996154439786613 0.3849666483536467 -1.6297140504960383
Ni 8.743159635860863 6.908357528406229 12.647435554800952 -0.8122199732906464 -0.3451664856375733 0.7288162149520093
Ni 0.5734367424294711 1.8703920939609064 12.690199781851401 1.9595009683537477 -0.6200678072009966 -0.4920875478035654
Ni 3.446161797035445 2.861047666546339 1.5011367637545878 0.028360039199931804 0.2089280999964079 0.2098938063437869
Ni 7.499953462137279 7.688313004711531 10.67133935687567 -0.7020240344598297 -0.7656287557946685 -1.3121270171386306
Ni 7.673477696864746 5.402790456745873 1.2947664751592622 0.6893248417256064 -0.24601729153922147 0.5875055569942591
Ni 1.658935940972612 6.640630471882242 11.510844441173045 0.31437109752327147 -0.6758424909684554 -0.06791800399821207
Ni 7.488336005402073 5.754283064412209 7.929188983851174 0.08228275736031636 1.724370241820043 -0.5638208117828096
Ni 3.9976314040112397 5.001490308378273 4.599277359838622 -0.4579139872456501 0.2020390861860585 0.14551981094309133
Ni 1.1512623018477983 7.594239265767624 6.177766101001424 5.651958891755285 1.5642121121384867 0.7340766920200003
Ni 5.507015640027449 1.719853827202387 0.8861768337005078 0.2808236005851293 -1.1745130913061772 0.0072402265021810795
Ni 8.198494539258547 6.673168570944582 3.582060224266851 0.32169051400282017 -0.5600358908190807 -1.6439893294681303
Ni 4.003855041547959 8.696782010957614 1.12394376013292 -0.21600763255100863 0.15748418239381912 1.526371130031313
Ni -0.2458816277599171 8.472048764557654 7.807372573819516 -1.2128184146442789 0.4706756577866926 0.7541752625420882
Ni 8.087031496026862 3.211894859949608 13.048673005782996 -0.3092941972209963 0.4934967694462662 -0.42000229980154125
Ni 5.830054698896285 1.399995738630096 5.6060221879819405 0.2590417288233474 -0.3676682662845152 1.1922573026634755
Ni 1.2125489962278972 5.4897830792035585 5.007802459871069 0.88652742575497 -0.4818792398119959 -1.8440286116153404
Ni 2.44779813410824 3.635932030784685 13.004464894824029 -0.43962573045942355 -1.2833322043941253 -2.633554999963213
Ni 1.1242378846328034 1.1776136441884517 9.970694229256802 -0.06346279644033587 -1.9795149495818294 1.510178836542167
Ni 7.769192632077595 1.010183964145091 9.6267815511 -0.48947839231549256 0.09003540472254172 -0.6128242382647059
Ni 5.821867157959091 6.833277409204009 3.5713859943760973 -0.6297680652078961 -0.37111225896905764 0.5622007596808835
P 2.388678187611295 3.252039627112381 4.665805740055202 -0.12500420748824276 -0.13403392179067883 -0.024122089859184265
Ni 4.118904744041546 9.031300223505287 6.402708646026693 -0.5331280106846432 -1.325832539650181 -0.5926451922136697
P 3.5012709548976164 6.527424810140275 2.5000149140514947 -0.07685567280747409 0.3092898263456222 -0.6976068792287405
Ni 9.149825942815678 4.341517343577142 3.2006729499556235 -1.4714551947197239 0.2846146921964453 0.6548442914502336
P 6.927461790593013 1.6103085863523858 11.815609056193324 -0.36173801684300927 0.0711406247005678 -0.31293256530453206
P 6.836154112776537 8.652147004564645 8.333139018778851 0.4673738471069692 -0.3262899604480445 0.284970018653335
P 0.18814655586743861 1.5749952059588581 8.087873300629976 -0.17223588678169693 -0.1496304906773552 -0.7335735271313366
Ni 0.6445853667492353 8.05314724721584 9.847326058932655 -1.1614066358312063 -0.6902967187205725 1.9350070969774418
Ni 7.685869650715634 2.5031193566568475 6.904982011810387 -0.3105504382256007 -1.2818890441896957 1.2799226644919441
Ni 3.226278377812246 5.463155130750162 0.32011902033864525 0.25087436252120665 1.805791936731645 1.7595251924546216
Ni 1.7317202294390635 3.034802406367757 8.924395649011606 2.161489403807529 1.3743441140973232 -1.6211525340792727
Ni 5.822927481391273 3.7055169085470756 5.65274096042424 -0.6913963795426545 -0.9432734722967625 2.159518139013771
Ni 3.23500069056741 1.343531210815484 13.218328443013563 0.3244742473955444 -0.6994431611065309 -1.522281790453288
Ni 3.801443908446361 7.4043768299808015 10.2412491222734 0.9392329836788018 -0.7033095860404727 1.3793176560525147
Ni 5.107670174856568 2.1132061599305034 10.342621574512219 2.3494959231599215 0.02878504255249236 -0.968355869186687
Ni 2.034981951246772 0.6374065161031776 5.059554541544916 0.6982103171406944 0.02697858547137289 -0.7793206514594644
Ni 8.347133444042898 4.651316189849345 5.772519705425358 0.3848519771526533 -1.4281207935981468 -0.43235002273361667
Ni 3.553512629391018 7.3257930333505055 4.534826291528742 -0.8352578289467163 0.379058767509644 1.2450027126863075
Ni 0.8502115849012822 5.589352059587294 7.208517573669711 0.28153193950606353 0.019075271463896183 2.4774620414899657
Ni 6.196806743782279 8.731606720551962 2.184293008885088 0.741054408889414 -0.04232781423393355 -0.8308015929475757
Ni 2.1485564211390638 4.602532091765231 2.8046034231799943 1.8514629564061984 0.5062126743510379 0.46591217495977827
Ni 8.976827259702425 0.14919857115246724 2.738142350450849 -0.15965393635162828 0.6353902964906799 -0.6998295979116722
Ni 8.396627497816386 5.332550944516656 10.842235833532078 -0.05233377640670986 0.44338339772964286 0.04902116709370912
Ni 8.100502213717448 0.6605695119842796 0.46771419805757863 0.1854539281338677 0.19006340188142104 0.20934693270138138
Ni 8.42379943829151 7.043230668979733 5.886131978153058 -3.4509369770707723 -0.4795346508392193 0.3698583319572985
Ni 2.0613517339949414 0.3067110000336144 7.381115177919488 -1.7331472166817248 2.3104817466802534 0.5028900377357081
Ni 6.709957183939405 8.224062164279763 13.319782033045454 -0.14123815284860192 0.3021943529514215 -1.3055591341131259
Ni 0.8690161904659297 2.781836896060491 6.309581822008743 -0.21487737560130735 -0.3491414111249213 -0.47431299742896377
Ni 3.72103451147196 5.251966363670852 11.543825110015772 0.8858941630463453 -0.15885226638593933 -0.6489248406420051
Ni 7.372779191701789 9.15204801192138 4.352243206608942 -0.6226455952305018 -1.165364849148006 0.6113846776047019
Ni 4.800996977658361 5.358496597891954 7.111059097926205 1.274379880296844 0.2521953953254753 -0.9653067979477182
Ni 8.904282696533684 3.9016583030931637 8.34517691680543 -0.7227445548366326 -0.10563865847743742 0.6335144196242058
P 6.245812126756587 3.6929405506210258 1.0658684627217676 0.272075422078854 0.6940932096485273 -0.2583935537163872
Ni 5.485670868327444 -0.12722313751540867 11.030392531623649 0.47067822888985383 0.4306932038564841 0.37997176624221657
P 5.64773438978359 6.966878161658897 11.659231634394798 0.36920809996780934 -1.3174420015936408 0.07206493628705009
Ni 3.1207808064120512 2.5636499943287823 10.77119969569816 -2.464852837366387 1.147475884682727 1.5569580016792346
P 4.170224398159138 3.2434371770060726 8.399411999351333 -0.11532400408600138 0.09185266043693859 0.49413491725089737
P 0.3510638681915847 8.136802155913092 4.343755087029233 0.5431198317900323 0.41565610701770345 -0.40040123774116204
P 8.634213708255139 7.841165542613333 1.313462282319564 -1.7593110195612864 -0.127142079766852 -1.0423288211297275
Ni 0.9002975757560399 6.395096445804005 1.3247330593934672 0.7961009562415967 -1.5073570508226557 0.4312076815990574
Ni 5.6271733354030244 6.521828146459107 0.7378007047232632 -1.4337882762965695 -0.401666734717147 0.37535355074391485
Ni 3.597317817445757 1.9614323858683984 6.725421309682493 -0.10974033935063679 1.0614452302442041 -0.6734781045013368
Ni 8.613689534689605 0.15417379310033869 11.712414691691903 0.5405435864224238 -0.10972002763566265 -0.05308248164727632
Ni 8.02056304713471 2.447493867384223 1.8313657375139913 -0.13118539659829018 1.1842606576112444 1.061633177885294
Ni 5.345007439793853 1.070650060390719 8.068237954706724 1.0107829280026464 0.10000768544390518 0.34848269449499986
Ni 0.8648652547340325 2.0988503026791396 3.2635713359526384 0.8842468572509095 1.1504573359085541 0.9576983894728408
Ni 4.99354249273879 -0.12529795897071713 4.17724373928018 -0.8989085730281421 -0.2091805823268462 -0.6311227794635776
Ni 6.413499972505175 3.8017112943553464 8.397441641808227 -2.2349748745911895 -1.6866907249913983 -3.2850473442220776
Ni 0.31607411694996623 3.237858953732421 10.774587198558887 -0.0481837587940783 0.5885160005366445 0.6190632771958822
Ni 9.029087374603343 0.5102174933416739 5.80552803487936 0.0031262043338075194 0.8058325817070638 0.4428570929125276
Ni 3.383455191276598 5.385751520200902 8.848907074782904 -1.4956675302998692 -0.2670545718254949 1.3066253705941109
Ni 1.242007547235031 8.382400723417636 13.419426619100006 0.7312554205211212 -0.054852943284137784 -0.8852184771355592
Ni 1.4555843470876888 1.0145451205226725 1.150671286786904 0.21237646355632456 0.864887478887691 2.0135000482780225
Ni 3.475021034798302 0.46622329110989374 9.675214359420933 -0.28110565060192233 0.1039838964828338 -0.2218715475309534
Ni 2.757855146085669 4.13491101776561 6.706218391315495 0.20220286545743243 0.9699998325480134 -0.14266820042690911
Ni 5.884066652511243 5.517692635979331 9.672515605780935 -0.9192022902801719 1.7348318034729995 1.8391561140143873
Ni 2.0265915658269 8.177168207966059 2.831862955590821 -0.4685701814079156 -0.058913229396440475 -0.482881198713949
Ni 0.9648113414514744 3.524266143070321 1.1819452959140075 -1.4830554979628137 -0.2477450728636056 -0.13901543416567028
Ni 7.803593212299071 2.457433247035456 4.727166196065365 1.5945961237469826 0.26233762596579985 -1.6003955040375792
Ni 3.839965919747708 7.600407582081792 12.65286072269222 -0.5321023976336061 0.08874419671494395 0.024023102387474755
Ni 6.5648864980094395 4.861085045549908 12.586762925991142 -1.1371621614615448 1.5773363082252705 -0.8345746868367627
Ni 6.122999012698679 7.882462835245868 6.152261173365765 0.959252364223522 -0.008507523250378898 -1.1077934784914405
Ni 6.568473157271342 4.480309070747841 3.7969767197255613 1.329029449320924 0.6099667142112528 -2.0393751162725717
Ni 4.766605617640644 4.813757739659573 2.2730199516696725 0.15734611415405805 -0.7210275721455259 -0.1816291550711388
P 6.598696985190397 5.752844712625945 5.742129913838656 -1.289222087515999 0.9662084838263811 -0.5043933617541121
Ni 4.864450419921614 3.183007961575477 12.507036746115217 0.030019943400857976 -0.22747269576781473 0.14576920794973605
P 0.8568805582795169 5.438924435273871 9.532818454601193 1.0038437776806517 0.17244363191712883 -0.3604923173613663
Ni 4.381403945034688 2.8239363464199814 3.74137889106421 -0.04667117880429381 0.21985220310807943 0.7543130736715332
P 3.200415706270772 6.919477094138498 6.881393042515661 0.3318448288280027 -0.8543433848232577 -1.273863859892374
P 0.6833157546555154 5.041791819004933 13.017446941715436 -0.05158070029076923 -0.24262523513853695 -0.4562278577924788
P 2.4847250501594353 9.11757367006984 11.654293293261961 -0.11959023556152307 -0.05927112695649146 -0.7020877978182296
Ni 5.05055101257513 7.5284623321573285 8.120800492290908 -0.8463192289672005 -0.02155638601453707 2.0103684446275762
