# total energy = -381163.4910796541 ev
CRYSTAL
PRIMVEC
9.30617361256550 0.00000000000000 0.00000000000000

0.00000000000000 9.30617361256550 0.00000000000000

0.00000000000000 0.00000000000000 13.62052576443851

PRIMCOORD
 96 1
Ni 2.3613856526013683 1.7941743864194943 10.113008351557827 -0.0024446048857506286 -2.6840406674175905 0.3664158819346528
Ni 7.591585366332946 2.013930364099868 8.316419943769217 0.7097823382490099 -0.39153735959262886 0.45402570793483743
Ni 2.7709410359220916 1.7144111745664208 12.399363912076097 3.0541674225449276 0.529892534466481 0.8177781841047143
Ni 2.1023948480428523 4.953452730405629 12.960706705338294 -0.38691014523326267 0.6418442796461398 0.3374657745592059
Ni 1.7134712510572434 1.6529159810154803 5.587780118846792 -1.0684900529061276 0.27511112358138423 -0.49942187668144955
Ni 0.6687239357903807 3.3885173123185073 0.7196761655438243 1.5223334696268298 1.5431270093334135 -0.13981170481472052
Ni 5.832653458420928 0.3049874969987216 8.203683098473393 -0.9790812260239914 1.2991437175050853 -0.3196873675298623
Ni 8.072993714152279 4.430631911142337 8.29766521260045 -0.22103799588606451 0.264185477807816 0.8598895114524675
Ni 2.3074749903373553 6.599128508548435 1.3298400748604386 -0.6606027912005655 -3.2300545329259664 -0.12685900130879443
Ni 1.8846024729410575 3.7243771088156983 9.081403214307404 -0.16009565187473718 2.446657654514599 -1.8885629465822893
Ni 8.682473619727066 2.783336858835205 4.547498836174526 2.6724583618966298 -0.3119774004801143 -0.8962048009437339
Ni 5.800593691201954 4.1378224726001465 10.241695047372257 -0.5106005190060884 0.8831258562725887 0.6517491974646775
Ni 4.410632944595579 4.987913490351018 12.25715162390287 0.7806221438797072 -1.1489424419259244 1.8330322605048366
Ni 3.379992857522402 0.35316741770875926 8.571069418456135 1.186207239814654 -1.4612612849058575 0.92211792126507
Ni 1.2164006134760712 1.2074852993989222 0.3241833407846666 -1.2178541772959737 -1.8469815235960774 0.6812713752935106
Ni 5.584401977917768 6.8875826579589905 4.476726318402803 0.02720895631462411 -0.11938634708083308 -0.014566842070581365
Ni 1.3030131689207751 2.2871503077230613 2.5223982721928193 0.1927149805716552 -0.913200307060466 2.1912563506573166
Ni 3.297177220807841 7.3101759901545424 12.45757774890094 -0.46414685552923934 0.1894098274578222 1.139393879005541
Ni 1.3213649427831322 0.9637566191478432 7.735696113871247 -1.2858117762828694 -1.2755739006049451 0.9290827826186774
Ni 5.106073973479997 4.647214483707566 5.872421529032495 0.501891935488497 -0.6846495477371242 -0.290580422861577
Ni 0.822219959160419 6.057565056141741 5.361024968183721 -0.6049052405279453 0.28425859440860723 2.0792380139057802
Ni 7.397374834520812 0.04075080251819208 0.6360406549564064 -0.2681259505128028 -0.9330101426975416 -0.3633786377702258
Ni 4.106972507917736 7.455678010609893 2.0611256916686087 3.6120243034348176 -1.5472081213813225 2.935704358609312
Ni 2.770857280361868 5.880208004281296 4.057432024662731 2.1716815138491823 0.017068268336196412 -0.5754470831678283
P 4.252651345666893 2.6478482809132706 9.48655956948171 -0.17007127503021033 0.22869345554879322 0.04053164156545923
Ni 7.038835893549704 8.85808111099617 3.248508725996498 -0.015542061499657103 0.46437902614470344 -0.681104253588027
P 6.531314423287281 5.138887540740986 12.501912358779373 1.7658357080536815 0.45146128964177085 -1.319334076410031
Ni 6.039418018093265 1.6644370236329236 10.234816854643215 -0.44588816642936757 -0.5138642773590247 -0.5994606724736062
P 3.4913039970597506 0.15530049038419183 6.500136881302662 -0.05947167300307177 -0.18380842211064471 -0.9322300699984075
P 6.8913144334756264 6.566687188221773 2.7012089483318147 -0.4654828007318435 0.04648503093541672 0.17346744519595286
P 8.018664274087147 1.4805563442483847 2.3218232484210173 -1.0363597480304862 0.894245363224518 1.3938094219107866
Ni 9.334557186935662 6.565672815325731 8.29996662927193 -0.3502639547651387 -0.5807600107403095 -0.7648836500985278
Ni 5.147049054776121 0.281905395218395 2.15633342882694 -1.1274529045935808 -1.8008171092248728 0.6182122420494965
Ni 5.717768748314034 2.3397115748501363 2.1073680670854706 0.9343260332954876 1.5662088308535413 -1.0463438558263916
Ni 2.35895674135488 7.0901129087533485 8.892187305736613 -0.20931942189755562 -0.24432344877656634 -0.3028972925557171
Ni 8.25211893895078 3.8358929841669274 2.156633087609074 -0.37837562539969033 0.3055074764850545 1.0892738224206981
Ni 3.884340922669681 4.822663770029582 8.491090303381151 -0.13830323858999408 0.6181857596869353 -0.4215400766023063
Ni 2.8916793290712897 8.66658798180463 0.7992206823229804 -2.8915243216579882 4.320723435921978 -0.9234117003758291
Ni 7.411147971090938 3.31525911564281 6.26327615698993 -0.7655439093903461 1.1197385666684585 1.0582591192067388
Ni 1.34640785529003 9.338558841479683 11.724997643378645 0.9652463770234279 -0.3146929996390645 0.24571081604239617
Ni 0.4557465747841151 2.9924000433270144 7.1605010815653785 -0.4143523006046154 1.3629106754494011 -0.6481653367681611
Ni 3.3869631813676886 8.008836955020895 4.473579901190398 -0.10809560465836221 1.6602183897324825 0.1949572396386126
Ni 6.118315755824026 4.467149335399887 3.0325282628475434 -1.0219942233374335 0.85296450219786 2.2127440882174474
Ni -0.020424258669226553 9.09310851915734 2.1080074011951786 0.13681199875644826 -0.6099649144390398 -1.5592730229656566
Ni 5.829312542185337 6.072082686580523 7.7961434323020535 2.5780207143413345 -2.8863787729013066 -1.6335632490387992
Ni 7.931139713653341 2.3091314891951136 0.34780985370644746 0.10125544180807723 0.31934206837530166 -1.2450492496535268
Ni 3.5860966788863062 6.127379968674907 10.564120452009561 -3.165419056333768 -1.4531155158702715 -2.3907389889701083
Ni 1.0209244420872237 4.511474639104961 3.6345827726998285 -1.3579469036862226 -1.447469373328088 -1.1540216562210448
Ni 0.03941536664129137 0.6294248963160669 4.120903849434951 0.07357520228398942 -0.4568135550926197 1.8600977492630608
Ni 2.6121404937378836 4.09319937134761 5.715145338044359 -0.08715859739537893 -0.22649104858083574 0.7114579261792199
Ni 0.7706916772761034 2.68395623354306 12.10149656831373 -1.20565840656073 0.4522182224124534 -1.346807085019319
Ni 6.241436429352922 2.5354576252663716 12.30851425590141 0.37101352860766423 1.9361872333284718 0.037089191542813545
Ni 3.054472219626163 4.352320462333141 1.361437325263512 0.6358106718575502 -0.8736235732091084 1.4520837321716475
Ni 5.5715501525101025 0.14536242785497736 5.0099970397300115 0.6636618897418635 -1.7633785047624404 -0.22798871617228475
Ni 3.261525270672603 1.8509048192110402 1.2266839350368748 0.18499190089578463 0.21632079291605327 0.8468144234360642
Ni 8.150877078986998 0.6527014971195796 10.672512244964445 -0.2045960482799573 1.0916230393791653 -0.7256511869604664
P 8.872170657460476 0.7034862157525755 12.559704625951086 -1.5330482849411728 0.3192001434807986 2.6058256523687446
Ni 3.7262662620074116 1.2251111917393402 4.6884026763735935 -0.6439916650064457 1.831002888779634 -1.8434318585716059
P 1.6978368798154786 7.3531798172427525 11.030596114058337 -0.9198751479774803 -1.6553541196616457 -0.7750963289654715
Ni 0.8022898582965124 6.894729799098083 3.129397151950312 -1.0981019622352897 -0.456918198991284 -0.07023482505684679
P 1.923511583751663 8.626562130191042 2.7822098812415277 1.8237606053949234 0.7574960993852051 0.8986283227835621
P 3.095596199696019 3.6446883463494903 3.674763106791163 -0.11150977254623376 -0.6084507917873586 -1.2215951323956444
P 1.5907228244626754 5.11816269267229 7.398805193365967 0.30756153080060583 0.885497698938875 0.3260120241963095
Ni 5.149077800568208 1.0918281769032976 13.555337680702749 -0.6669323329630191 -0.8079509136016473 0.04115770518523234
Ni 2.887640449833834 3.764179612268691 11.05970303247076 1.035785877804887 0.4456097159570003 0.6642131342596432
Ni 8.187450340284697 7.391893498412837 4.499090914217213 0.3737432688340015 -0.3704023773862266 1.3254995817907946
Ni 5.18780078791165 1.9154338252767515 6.598232324054042 0.7689321091362886 -1.121552994169378 -2.191287718115884
Ni 7.868909332407102 4.898006549537514 4.479041694334321 0.20299347967952783 1.5825150242127326 0.6991945354308347
Ni 5.7878163151811535 3.4435447153855034 7.997059992636102 -0.13816697012244591 1.2973809691777074 0.6710733517145862
Ni 0.6694051476802005 7.68968173970166 0.3928703451068188 -2.121543459542211 0.13674823539804837 -1.762807976970951
Ni 7.265227172834469 6.650070501511184 0.4367638423680727 0.5734295385171673 0.2980319940436158 0.36602661691603416
Ni 7.249676557152928 6.209767521414991 10.00227326415135 0.911012812490844 -1.5995650377164838 -0.7514185257325575
Ni 7.424381349606289 0.9286909579341713 6.229306762997854 1.0178346926431052 0.2859164417270043 -0.9286405528749361
Ni 5.806819521178584 4.640011505528324 0.8938253794477006 -0.09204575028435115 -0.19386272102285323 -1.2716820217497067
Ni 8.5131571016481 6.973515862748546 11.823514655783148 0.4381763996074067 0.7891484361831635 -0.11096264179351212
Ni 0.8490142934933288 5.058082037471794 11.004227071847897 -0.2884487212305548 1.0583174832484998 -1.4284558083400625
Ni 8.85329773789006 4.763951122312741 12.90288745026384 -1.2488197724395524 0.8913032498770584 0.8972108736107453
Ni 6.759929878004655 8.374979039625646 9.734453692927916 0.192574598339049 -0.2141926908294569 1.278870569078346
Ni 4.140269996193351 0.11325333791720345 11.044924829177946 0.12630955656322765 -0.1918022389493987 -0.2554126167111924
Ni 6.545162009244272 2.301193323320575 4.340861771077198 -1.4773311938845268 -0.36001486350431544 -0.6845431040662469
Ni 1.847684883229105 7.961049754826573 6.835992024713175 -0.4124563691334832 0.6100721294408655 -0.9145712192660636
Ni 5.393774322848539 6.892961626160026 11.195758356350208 2.5606719386502417 0.5405543850557013 1.1400649369306366
Ni 6.2706019766575 8.77144994320475 12.162393374917738 0.8146468375645841 0.49216493800872013 0.05457937790777698
Ni 8.291977279443921 8.936420478325442 8.04358806757506 0.537060770080146 0.404432213277426 -0.6337838712355084
Ni 0.3480201732243426 8.507042945751767 9.745418226378538 1.0761478265617015 -0.6688051245056998 0.12064695896081157
Ni 3.7478286656783455 6.478548420346326 6.529175864649568 -0.2934122358834173 0.10678099961199675 0.07437378692588481
Ni 3.258351865557459 2.489652639997345 7.49214704276598 -0.8562076917255061 0.8555749432375136 0.20790994314453873
Ni 8.009916471130445 3.6552136284176067 11.059784926796311 -0.29266044531905727 -0.20673572033077942 -0.9388421759982865
P 4.763225240790803 8.273169503087013 13.748830706548967 3.122022691626004 -0.33744417729265114 -0.6238419295314482
Ni 4.785001686448974 7.445636649556402 8.859511469841326 -2.085028909555944 1.966367356456278 1.4506017483094824
P 4.465725490876083 3.1866850245260134 0.012176197221859945 -0.6260366231899218 -0.1742248921872677 -0.24845881110117854
Ni 6.565616978285582 8.092201655963589 6.737787699733506 0.12242950478253109 -2.2388430992973443 -1.1796509267533748
P 9.263662758292945 8.83779365307531 6.0497608991635605 0.03695523706811055 0.313836308065724 -0.06031859438439934
P 0.2652045365097816 5.55663235661692 1.37313983826144 0.278855678225481 -0.006601821587233792 -0.5636171804124358
P 7.837138056562231 5.861353697057597 6.622694531343388 -0.34755478336409174 0.11605188339096142 -0.6051081005673707
Ni 0.2527714889032355 2.464265399076194 9.492457822156132 -2.4604475092098403 -1.1491962098079436 1.1459270521383684
