# total energy = -340849.3762142934 ev
CRYSTAL
PRIMVEC
9.50078393645504 0.00000000000000 0.00000000000000
0.00000000000000 9.50078393645504 0.00000000000000
0.00000000000000 0.00000000000000 13.90535764495366
PRIMCOORD
 96 1
Ni 1.5727502987184494 1.0493426020022794 10.96191348418487 -0.2969161352716177 0.30286926753125903 -1.0272104774310504
Ni 1.1688529651649138 0.30267407962179677 0.9191343559458433 2.5468630577916076 -0.8557240672208681 0.5278310239517618
Ni 4.636601157621309 6.895754605032887 13.988511768641375 0.8654567211275999 -1.1668620025188228 -1.0328669043858794
Ni 4.280815794737586 7.518388490863499 8.827524333541852 1.1867302021976593 1.3671730502701809 0.15797629153888923
Ni 6.291571241919649 9.025811398127438 4.80107493160384 -0.3917101377250673 -0.7036659409386269 0.8847911597901537
Ni 9.267587351840985 -0.08285633811442378 9.966470730524609 -1.327313752181398 -0.2447893326693913 1.0345553478318956
Ni 3.670532928233744 4.452456960243283 0.5635200071758762 0.32788378729772566 -1.353508922519527 -1.5137737529822768
Ni 9.178840527586104 0.758538802031917 5.783822737553002 -1.2890385107502833 1.0590641316065375 0.3950456298562035
Ni 2.183403695802095 1.584208244340052 12.971085150657876 1.0410334993570716 1.3066469678606658 1.5615841875973362
Ni 4.5437499946363 3.0516613529057484 11.930031982780678 -1.629957276855096 0.528003030753252 1.3437377020653762
Ni 6.957595208723609 6.255506265485484 5.749365293788136 0.41570830041187756 -0.4780295270486025 0.1900981117740984
Ni 5.589586807306596 0.6097622235352989 8.577645161071533 0.1405508969735902 0.7813009151142867 -1.336982899840046
Ni 6.379653011287704 2.145552571957597 13.044254489306475 1.1837394950004516 -1.1676911832883374 0.37556026743808224
Ni 0.7412910785812893 1.4452402753457076 8.715739057928907 -0.0028562385018725 1.8013902081195232 -0.755008557076661
Ni 3.0627772702998404 4.971693812740645 4.323356505612617 1.8642518806407504 -0.2431109165257039 -1.0200252725365209
Ni 4.8113490795268925 8.014623945060777 2.146111218062531 0.044479827579929854 -0.5754851354946153 1.2838119722440213
Ni 6.080112290261268 3.7003083855953545 4.455457307861279 -0.7798667537709214 1.8545518797441674 0.0307269967702116
Ni 6.998562589752091 4.199726602465301 11.123771692305358 0.21658535943134957 -0.005869828517215697 0.14705681641290805
Ni 1.7493698750912434 1.6408044152089456 6.687823294509914 -1.5861785891072488 0.36466341801992036 0.14570801569449746
Ni 0.5494977999263547 7.8189837989247595 11.690957101986053 -0.24807494539919858 -0.2435734579844192 -1.300111223624677
Ni 5.129796360907383 1.0214007959714893 3.2844039610993803 -0.2596053146363013 0.7597524995195496 0.375437882927605
Ni 6.585088465828261 1.581015980883287 10.795493949619168 0.44272313843782457 0.19630269792291352 -0.9110243824550697
Ni 8.349061046077384 4.639935932839536 5.061675738928204 0.6913758107173642 -1.1558646229670546 -0.08172739907747861
Ni 1.5109096950277277 6.8276909877582925 8.273075675022282 -2.017559563059377 -1.3040221286433091 1.7733417866227392
P 3.032118240017161 1.715252559397069 4.0094287472273145 0.49949103935648814 1.2051009913953632 -1.17765420803832
P 9.06273144513038 3.0063711151128967 7.301202466551136 0.06913979222045512 -1.0469156691694614 -2.2857896432502116
P 0.45027446104714275 8.056541404499011 6.921655642639531 1.434383486678407 -0.25411266695284623 0.17680550843025034
P 9.378746525781906 6.060417164827121 12.880046737278672 -0.2633863789452883 -0.1552110700889262 -1.2055859014515817
P 5.54458159303667 5.254361141209896 12.48817929654941 -1.8621440902691284 1.6980454878825852 -1.7628020634336803
P 2.8156428743552935 6.848165177488437 10.313297804082787 -0.17836925337294443 0.13815668570980078 0.19222235720595282
P 8.375644239982229 7.658487053165446 9.310763665172141 -0.9033614665931733 -1.5924407679668768 -0.23356518181879776
P 7.5386441625593985 2.255495645534035 2.618490203390951 -2.256200359628869 -3.0046662304910057 0.11351446168108836
Ni 3.7009734404821804 7.605311164571658 4.798891651418232 -0.2367474362015213 -0.09117157520951394 -0.4536133029877671
Ni 3.4212418542990615 0.7332192124120409 7.964224185580282 -0.7436255120506999 -1.5176036682513283 0.7160085216643798
Ni 3.0511103074280927 6.088472980267082 1.9335957792125078 -0.17947996993861992 1.7233189177373935 1.0937750527251615
Ni 1.4398818331147094 4.3921174804399685 7.833625457297439 1.0505105856095716 -0.17617353127320626 -1.52236200887192
Ni 8.308616208174266 9.360818546189897 12.637843248280737 0.2092911397627815 0.5517039739146176 -0.7384285412307928
Ni 5.229136559430994 3.437972735094785 9.893231086073692 0.7648517684193279 0.38605628187339963 -2.611345296635393
Ni 5.660225137071616 6.500864014803795 10.55910304033209 -0.3688340044578422 -1.2327838020226125 -0.1981973438424651
Ni 8.589487888449087 0.5550149052517813 0.9670952641485061 -2.55329827189399 0.2850183553927672 0.9877664125028149
Ni 1.6496591459878291 7.4664382034182895 13.659997456431158 0.20881317168509844 0.8424327494286009 0.9129773924163825
Ni 6.975162158519913 9.044717958481492 2.478393541245822 -0.5251082257039602 0.6456811368937266 0.20272094274443153
Ni -0.14212317939312885 3.9587487146159432 11.834905382004315 0.7032831036779114 -0.21208258646498956 0.03265712391338892
Ni 3.144189489231442 1.783800716660636 1.5641577895806573 -1.452892601226188 -0.48702324590678064 0.625736832561316
Ni 3.7299793343318917 2.747066214739434 7.389710821125171 0.25397228472024 3.169988163761689 -1.408689681456729
Ni 2.0038768794954613 4.746819753936575 10.279326800463712 -1.1401492691143267 1.2666812261010054 1.2532063315430224
Ni 7.673507792823617 1.247576462196919 7.994482282774046 0.9661084679134072 0.6050219686114677 -0.6312058260956871
Ni 0.2037956192053246 6.645503951904356 4.658350352577338 -1.723329973480987 0.4095458803549075 1.8248682366368056
Ni 4.9645682246675085 0.22796846418463068 12.298788766192736 0.08451370357336413 0.4871823971924642 1.2333160203769986
Ni 7.183922887494599 6.8754799317687905 0.3110034170400877 -0.02794660581159703 -0.8451545192351381 2.4933758845067446
Ni 7.092306826442266 1.835817509594528 4.858212647166293 0.5351650957193299 -1.4143772187598092 0.2715930831257968
Ni 6.958497783212873 4.3225907424143575 -0.3912023858424367 1.5031473836166822 0.6280387412216151 1.894886831917788
Ni 3.02956252909493 2.9958822494692408 9.479935576890894 -0.7278674778854949 -2.3968628424796594 0.926638949063875
Ni 1.3638565587663987 2.9973928741407456 3.222316337022123 1.7777221750786223 -2.788281931326869 -0.5614386847038783
Ni 7.98988390327085 8.144556668378385 6.664170142420742 -1.1650840846827935 1.5017715863150782 -0.4609198639515094
Ni 7.641547155119579 5.583610814109259 2.4000092222060982 -1.0997752361726543 1.2211552166447486 0.45839889730186856
P 0.4520045538313001 0.5409936480806695 3.372785955244918 0.24522153511080347 0.7484766694954141 -0.5049088679379498
P 3.3362383389785997 8.537613607276658 0.6209132938305516 -1.04584120515836 1.2521467799302566 0.19296103514419025
P 1.6906645301527017 7.399790202974225 3.4206480552929666 0.7714772441556456 -0.9967935557020898 -0.5626044228772054
P 5.429213571740552 5.590090348863764 2.0986804536125097 -0.961841465106937 -0.24196831828082846 -0.602505115726885
P 0.6804480572208065 3.969456098293842 1.068154154515358 0.06406057792533483 -0.6487824015268697 0.6731639156950278
P 5.2939414077601405 8.351312731908495 6.706665249532104 -0.4790466554592072 0.056538301406360694 0.47502956388001416
P 7.720517672538119 7.517096384226236 4.104791917527707 -0.1356506314584954 -0.05471950303006705 -1.0052823098993913
P 8.705340449734177 1.689913968208998 11.331364774914459 0.3327125761449367 0.47846224371064694 0.7611516938599213
Ni 8.800329289141127 3.7454941147631335 2.831339119762797 0.2556748692336435 0.6534427831170166 0.10383811493358892
Ni 4.332671074341821 3.4539055500263163 2.809674481785235 -0.057950351262538904 0.5757712992764664 -0.1692595777621924
Ni 1.2291639426159358 3.4878803539590284 5.560432701224963 -0.7283472457353908 1.0901302568837226 -0.4980499360345874
Ni 4.762496047697473 5.343288480362631 6.24458986455744 -0.45878430566574535 -0.23465404400760234 -0.22464088274597438
Ni 8.78331338482248 7.797388516671109 1.9872562077952698 0.9520669022186766 1.4326929863498616 1.6658776449007888
Ni 2.980224957276537 8.660164221350495 11.681139941778092 -0.47377589397857117 -0.889708394586113 0.5674185564363969
Ni 2.188515117646558 8.848954302152206 9.295731524573053 -1.7184909002211306 -0.7998408829000031 0.5138424229821538
Ni 3.3921694549606674 5.483282534039507 8.435796554338824 0.009152613033545526 -1.5349326464480793 -0.325557196047078
Ni 5.100410435693771 0.5121920210890544 0.9346405856713966 0.653577766032984 -1.2589614888592446 -0.5429079728895424
Ni 8.785926100449295 5.564637748266523 10.01654366303215 -0.15134875892004257 0.7016849059528562 -0.42124825639350033
Ni 2.801192181742974 9.166708026293577 3.0714429354751833 -0.07213409896208867 0.8220714121634294 -0.5176869935392246
Ni 0.2648001538954651 6.133658709434861 1.0295790709226296 0.453344879817729 -2.0407146610196016 0.4019480134029917
Ni 7.224814262250301 4.140983254390369 7.962972932314639 0.12066161424883091 -1.1259930322186027 -0.01110048078853572
Ni 1.1819735480035813 5.180777568374646 3.2288376752266568 -1.2073725610383592 1.1754507726290984 -1.5632955138614884
Ni 2.8816543222648243 5.979660499998248 12.441429738319181 1.1700573695276688 0.8503921134849934 -0.9093089424258598
Ni 8.516037326591201 2.650937281240783 13.855646153272865 2.118285614726545 -0.015689128600482657 0.24852720244526877
Ni 5.683359546349064 8.872174218486531 10.360478697911043 0.791314847706863 -1.395883787941312 0.584366240034329
Ni 1.3042771416908852 8.866179223721 5.226258771927858 1.6728849294565575 -0.6527154180326887 -1.6670253853519867
Ni 3.3008574189994557 0.5323707364337653 5.7263239921948434 2.6084088397148886 -1.1387557312009098 -1.9009042417564619
Ni 7.503567267671376 6.887222900913319 12.069669757053898 0.5909289808535113 0.03233162225317012 -2.217897864504245
Ni 6.592603586049394 6.836004173843619 7.943227452724775 -0.6557403209019417 -0.014672000189877958 1.8579485641305422
Ni 8.804215109837012 5.670809010556248 7.295960883964538 1.0263285890467293 1.0956439876131001 0.16718495462135077
Ni 2.884533059846371 7.95548156405375 7.012207615872941 0.7004726308123097 0.7250181813621578 -1.460382224735014
Ni 5.645280403686226 6.5352473524527 4.019121447163599 -0.5987466771257172 -0.36609140871569856 -1.2157582139988934
P 2.475866332675883 5.322386755348099 6.18197494696277 0.4055794395079918 0.6619526203602405 1.6773272814986273
P 2.4495776630780606 3.9623020078684132 12.416303014616483 -0.6433314057146275 -2.2307037580196614 -0.2987429040677113
P 5.566575908222416 2.294591372095307 6.590152383752236 2.0285399733302807 -0.35599005861563854 -0.7417272665867226
P 9.726522727671423 3.7288677425924828 9.245839106963366 -1.4708643552132603 -0.6391865303083186 4.142902598853336
P 3.744154504205384 0.5604959075976375 10.056924845681817 0.9738253769416905 0.9353449614783054 1.6638066213043732
P 6.51047880831048 8.752777864733067 13.656145838558027 -0.3976103052595862 0.9547789018332007 -0.18789570480614093
P 4.6401259485214865 2.4015797018174174 0.24793816227919638 -0.7291921102341893 1.8157562470332085 -0.5307409985097054
P 5.3912674400550795 5.025183227209651 8.324679183847932 0.25039408045067846 0.20510975469158227 0.9747324621369924
