# total energy = -340890.12549456157 ev
CRYSTAL
PRIMVEC
9.10161084924825 0.00000000000000 0.00000000000000
0.00000000000000 9.10161084924825 0.00000000000000
0.00000000000000 0.00000000000000 13.32112748279990
PRIMCOORD
 96 1
Ni 6.342275532012134 2.267001941200847 11.351479070950028 0.6830991725308688 -0.8314752219758325 0.6389949831228027
Ni 4.614362005146316 0.19364496360882422 6.141386596278217 -0.5107259888403591 0.20609654408488376 -0.3614577665984291
Ni 2.964604011184347 1.7420028205580451 4.936503511614874 -0.4434106514231525 -0.3190841867282247 0.7229422726697357
Ni 3.449647059922189 4.371722159835535 5.194627017409645 -0.01377288541437628 0.18356622419285162 -0.273728898521877
Ni 5.189629322857706 4.486875741097849 2.664771463222908 -0.25664057558102255 0.8680393942531115 -0.6395737384444081
Ni 7.363166821600231 6.316872935955928 2.831086109584303 0.42186403560062824 -0.8262391703878739 -1.2429869678078593
Ni 5.2240971233825535 4.3910448798023305 11.74626417475395 0.1323673327215333 0.695034490515874 -0.25367583652574377
Ni 5.738410952814326 8.187263080042758 12.583283810530839 0.24579077735071217 -0.5302573740050675 0.653295716016191
Ni 2.1597212533776666 6.356037167711519 0.5646548393876566 -0.8194977378989822 1.3099755180132664 -1.819730144079292
Ni 2.814818800400764 1.4985074238215086 0.4290681416272492 0.02349782601162405 0.9051465835180541 -0.18878479227931358
Ni 0.2433433998343011 0.026584895313712446 4.690528836065829 1.7613733014069537 0.6686007218043775 0.0029256582872272193
Ni 8.675355168436218 2.4183435274504315 1.4815620446250042 0.7237647685710309 0.9776172398839551 -0.28306251721797704
Ni 7.0995932711911784 0.7798305737705978 4.880527694343189 -1.170141958821675 0.15461097461108214 -1.2450093975545269
Ni 0.6265822000348885 7.579239064658033 2.757779914974525 1.3349057055960427 -0.46353750408001465 -0.4702897352021836
Ni 7.795602559265028 4.029001000933197 3.7651234567196745 0.8439005922233788 -0.4794572606340646 -0.294119546363087
Ni 7.820504566721057 3.8104622213181636 12.626324418373974 -0.18767741814774774 0.9079979369239202 0.08005901023612018
Ni 7.905358885256351 8.734133371707797 6.797704669324654 0.728681746256674 0.11050601387206774 1.2588105651036772
Ni 6.925761604377322 1.0023604097706706 0.3516261750189251 -0.547983844750553 0.10785494940246586 -0.24067762449386293
Ni 1.7387444438514446 6.694562483983291 9.207909536297315 0.6144507181245352 -0.26936008003021994 1.1142037528931585
Ni 0.2568065026957628 4.831408120571734 1.360433255798772 -0.3951813841031194 0.6074863709915602 0.9015478104232021
Ni 6.328095222210784 2.036239698130607 6.8544659556180685 0.2730894651656652 -1.5931897303177593 0.7572821836021861
Ni 3.480719959576753 4.381752135060881 0.3129051917147631 0.367521970514638 -0.08462168990613814 -0.03253885316796977
Ni 6.066132656933208 5.606692439691642 4.88257919744282 -1.7290632764203382 0.3513685006832271 -1.8402853425228243
Ni 5.201060946163543 2.933740448580766 9.302090275534432 1.1153941736568338 -1.0654101284292232 0.07859965208177432
P 0.02850988602166211 5.822382415091127 12.567377835300517 1.421045117698288 -2.0370837491352334 -0.9165602246716344
P 4.193066639238165 6.152079168777977 12.607155515631597 0.09990227021429247 1.2972017632873658 0.04450451017027819
P 2.641414909299786 8.371252144634733 1.2745668381300308 -0.8162676609974587 0.8609002121051691 0.8552653824168949
P 6.190023784671321 7.8021284142891405 6.002860078193139 0.040211282111563 -1.1759845336453811 0.13584140731306282
P 4.788648752505789 1.4115415315545627 12.590610607315233 0.12332784822708438 -1.5124388362209373 1.5611399009710663
P 3.832151360122155 5.893775451087143 8.156526029830859 -0.5405662121302433 0.47128758033907864 0.5946025730503566
P 5.203636702051722 1.087469573411509 3.8396683805746163 -1.5443279716200502 -0.675185831221063 0.3186396429916383
P 0.37161604306559104 5.680115134921098 3.6520004448518937 -0.7169490312007782 -0.581924720472372 0.13402055205424016
Ni 1.5083371636067835 0.8834451327183075 2.4617445590856937 0.45790858792901135 0.11119918328435043 0.13286484118324215
Ni 1.9826585146899462 6.497203152961162 4.953008372843223 -0.010772922245787898 0.12438482873668899 -0.8661843433222437
Ni 5.5788506119109424 5.4789331273158055 9.355641423659083 0.39540095631309324 -0.257449187525247 0.251328933560122
Ni 8.67770338405159 2.2652544319056873 10.267405308569895 -0.742493969549418 0.7419445248038512 -0.608389856642436
Ni 1.8570289792675858 5.2388690378932035 7.257776538363532 2.2789060287565013 -0.6023343944769755 -0.0755786058672634
Ni 0.566975750170291 -0.250607395503401 8.980078922101923 -0.11233998175701297 -0.25112170264532235 0.6785334075370573
Ni 1.264805360426598 1.0073298893287816 11.463536284179979 0.6771342131966854 0.8154407942207891 0.4106254865723315
Ni 4.504769508151414 6.933361449489086 1.624564734956747 -0.5947169871410339 -0.08795743914759045 -0.30702031358515514
Ni 5.4224940380486855 7.627532212158651 8.30814703553545 -0.11281435029027022 0.9171778036509753 -0.5060576368304123
Ni 5.513992532549952 3.1487933112163913 4.57759240722175 -0.6051296978339256 -0.8427217414239293 0.562138024763748
Ni 0.8164317918932872 7.20357917586411 6.9849994389999726 -0.9727848514923182 1.9180383303335868 -0.6708627783656769
Ni 5.1216493909538 4.006046738212397 7.1192764149501 -0.08173536949727858 2.2944828001488355 -0.0906010474180246
Ni 7.688704139100164 7.222100954070624 9.022572523129229 0.3098007045437697 0.40015235495514956 0.37072093706790993
Ni 4.887901819504328 0.47204594835508995 10.549587102489127 -1.6077504017407536 0.4743245673931895 -0.3637265080279478
Ni 8.213867088739386 7.204316406348005 4.968647670873813 -0.5143113921987723 -1.0682846217635409 -0.15088981700575305
Ni 7.0074121558714895 5.8624386047161225 6.8585953564889754 1.1208652240737342 0.7186557294792397 2.980185471740822
Ni 2.41829801939587 5.514638746924725 2.642898471878489 -0.4440099755700483 -1.1448333048535573 0.6508179438996599
Ni 2.7977168734965687 5.1429744653212985 11.200857422123605 -0.6108547732431608 0.05421659525171953 0.540971675098778
Ni 1.293748483127685 3.358148565420922 3.7029940403101897 0.20258827382130914 0.8024636652348309 0.07595810069386918
Ni 3.5708987204957374 2.2031359374292974 2.784968247091722 0.6676614978195597 0.6633574711275673 -0.9061493137509555
Ni 1.0003489537590542 3.2948195566931973 8.244832589385185 -0.6544838227870213 -1.1282481468013665 0.18199836548509946
Ni 3.4370140239759284 2.4836839921897726 7.25560489399986 -0.6372826284173864 -0.18482940717599136 -0.8072952822955194
Ni 4.0481052822380965 6.7578004766018935 6.207659065974977 0.7553507709074282 0.003400026820484467 -0.8121230427014658
Ni 0.20636264453656922 7.581305130335123 11.289681863338842 0.733048250755486 -0.22145040083313475 -0.309199580624661
P -0.15708834337960512 5.698163629360172 8.262016430787591 0.22902384230501846 -1.0451567774968258 -1.050737614018713
P 8.511198514022128 1.3005018784246054 8.02596615177731 0.3136067085534212 2.268287886921023 -0.17447017542885435
P 1.5483296419553925 3.1226716878981144 10.476320954967361 1.7223172159457565 -0.3880383453004349 0.1887282280097653
P 4.099565790336193 6.320386157768072 3.63267135375746 0.7878420586669141 -0.8325370875814435 2.315623181671876
P 6.9377393243378975 4.035262909240854 10.325378929436827 0.40375035671905307 0.5324759789229411 0.4060090708462427
P 6.343495147874382 8.047990229862872 10.555954589483365 0.6617212210757248 -1.5456909134058476 -1.0729663435099261
P 2.2439384591491005 8.578705162158595 5.5764241224417255 0.22530834112664422 0.48936552088671204 1.5341235202832224
P 7.1582895599645475 4.126488355414752 1.5220987993061683 -0.9268749763340811 0.6243952309317569 0.23157411953069795
Ni 5.344138269704767 3.121907152581482 0.5688616039513179 0.9097205760419816 -0.961149838356551 -0.0002095449076448004
Ni 1.2900714323191194 0.9355272808417135 6.968907790907041 0.8332659953276682 0.1282211717636437 -0.4084688452406449
Ni 6.839214386212342 0.6396157068612901 9.136815033139221 -0.3448582103685351 0.2181413910645598 -0.05213965811803278
Ni 2.669620801516977 1.526021593609366 9.310349077276246 -0.22102951124563228 -1.3055843309241064 0.3429576509117126
Ni 6.52893136860141 2.1417091653822413 2.5418441960804072 0.2668694523978823 -0.13464378746053585 0.20073939353802847
Ni 4.03135831815948 7.121892217926294 10.587565394342846 0.35137184311733677 0.26811360921762856 -0.6553950217473808
Ni 8.350263829870988 7.216230415032196 0.4937687631194562 -0.36761015935307007 0.8271118028008143 0.8838110552650714
Ni 7.653007621102155 3.5769239869196743 8.307534497121052 -0.09540103990982925 0.3682580773497141 -0.4694353576216883
Ni 3.369161514624795 8.554558588408286 12.489129465965366 -0.8678169938296603 -0.10390162118167269 -0.0032951258115040023
Ni 0.47344577611340044 4.97433981833836 10.198615333294796 -1.2117130973952421 -0.27475605423481064 1.1546243228020503
Ni 8.659454654172446 2.3424542956637446 5.860722951059156 0.6782472437552061 0.7327155500064155 -0.024292553998777517
Ni 3.580091347517152 2.7162210493879098 11.459993027051825 -0.9599193083835599 0.25373805722224685 -0.4215447045879966
Ni 1.25675043476922 3.788217884248523 12.674786855837562 -0.28137355955132837 -0.34325049956178305 -0.29017264590019703
Ni 3.068453391693594 8.225853910310875 8.046654113380947 0.020809994766815772 1.1320631496720828 -0.1764715221295993
Ni 5.816366250278103 7.9297329992794685 3.8364846370774965 -0.8046074510507111 0.49881818165917957 -0.5156337105546216
Ni 3.2404738379359044 8.585267423626357 3.6810409547897422 0.6645846586664489 -0.18912263523470654 -0.8143190219115202
Ni 3.2514685839179522 3.9840754494701254 9.19069839006217 -0.9950737447975057 1.2197431667885703 -0.3987030241031327
Ni 7.2673814683592735 6.087075463642392 11.441543151571517 -0.3024784598507436 -0.18186004013502227 -0.8399392935827856
Ni 0.5862702551432579 0.009157130738856548 0.307221235700037 0.7522009124245368 0.29831558672230557 -0.12148873813581659
Ni 4.843103690594028 0.21757855966378611 1.4531486356790124 -0.6893011875765226 1.1230802294471818 0.527701183242117
Ni 6.207307743793763 5.884236962851061 0.319076994074388 0.2511209313143739 -0.7910592800526312 0.4084328497963869
Ni 7.85097676005541 0.32108662976382196 11.49620014542201 0.009960196536505428 -1.0627922311904017 -0.18786382312694097
Ni 0.057782487037774256 4.910492017788635 5.774282221741849 -0.7534712944965282 -0.14261060771609632 -0.26830438507219595
Ni 8.13833281977828 9.129461841683183 2.2984807727020993 -0.35699330306917226 0.6549219387657044 0.828277026753509
P 8.94564570769854 1.8034204909941887 3.498448077311714 -1.8557965507845458 -0.9225889473642175 1.7588669900453324
P 2.0968200203628196 3.453524346170825 1.5990283452201302 -0.380056612646539 -0.7990158158955465 -0.029480268847304068
P 4.7436139817117695 1.0119626092831382 8.27488428829539 -0.21658767342419472 -0.621080307625911 -0.23267043791867026
P 8.741441965270367 1.8620166620475216 12.743310153912933 0.41609782254081246 -0.6186763261701087 -1.0703754428542984
P 6.554297558213967 7.95420723102262 1.5193546636161126 -0.7633286469065822 -0.377387293344492 -0.6498437529118486
P 1.6559015813277669 3.3662581007437735 6.040518903503838 0.6852455294499101 -1.0304377261190965 -0.15051495016483757
P 7.019790346712206 3.893787469220193 5.946538399706789 0.1985470138724 0.075613829980573 0.03681099818076241
P 2.1851693574884337 8.484785639154657 10.498699995878505 0.8535154896053236 -0.5300892238583194 -0.8518031348999071
