# total energy = -340855.1283917213 ev
CRYSTAL
PRIMVEC
9.39519460957576 0.00000000000000 0.00000000000000

0.00000000000000 9.39519460957576 0.00000000000000

0.00000000000000 0.00000000000000 13.75081699193969

PRIMCOORD
 96 1
Ni 5.472221771359709 9.124444001711161 13.661629687668238 -0.779318080356303 0.25333825068066695 -1.884708862943522
Ni 9.322851723876663 9.086769270870947 8.601480217350613 0.7705837858070987 -1.0989470838444042 0.24489166257521053
Ni 7.6059456545665824 2.1339305774907857 11.509117294053818 0.6637055984956053 -1.7875998392036503 0.4055848388246305
Ni 5.143427536825003 3.1100631236518397 4.843560167323701 -1.26604204985511 1.2621727967076908 -0.2829697003938546
Ni 8.857902327412683 9.406750812755249 6.3642767199424375 1.0932104384709431 0.9225717209730369 -0.612436515907984
Ni 4.820448927823987 9.369273381004222 10.032060211314002 -1.6103508154780781 -0.7896623997051045 -0.3262567932172639
Ni 3.2174971753121535 3.6819956024294185 12.691894329594243 -0.03855703433759166 0.6788712504924501 1.1862247233161507
Ni 5.516322815390623 2.8968955505761187 12.484160937146447 -0.34040094592812986 -2.6350722079386877 -1.3534364174103788
Ni 2.3161221935639653 0.32328113427110444 12.662990013028177 0.794522041790251 -0.6699281823665495 0.6026339279952654
Ni 5.3183660625718385 5.165684753124373 9.089509849171717 -2.065195933990417 1.2228673142398487 0.4438048015377776
Ni 1.2798604011741395 6.64501453346774 8.317635412930331 0.8407350500112037 -0.4789417544502268 -1.5199135473314274
Ni 5.094760428158591 8.328821331767827 2.982208616260551 0.4159924073111997 0.3837931968708358 0.8495624184948465
Ni 0.08964988756868236 1.7569295988311073 9.984963039685844 0.18939054418411255 0.3742903995867231 -0.7613278144264695
Ni 3.4313881783815643 1.4003443783050415 8.405833742914272 0.9853320920297096 -0.4223443176711565 6.835638222941763
Ni 9.225827547969706 2.1676781169366843 1.107836264830456 -4.647207257548384 1.1083645205035622 -0.3902736623888569
Ni 8.951121449456727 7.4214897965651 1.3525904825657287 0.23750848273726194 0.7108012664318274 0.605790471346376
Ni 7.750359192657592 2.1183251590554746 6.7138503066465445 -0.5218269838495271 0.14457698741384778 0.9269477385535455
Ni 4.301477161701345 8.416403336977922 6.376404976810675 0.409554622105656 0.25053677667612984 0.28715931299516995
Ni 0.44941726054751124 2.0473444629213535 12.460358211315105 0.9476587458486516 -1.6822180339320254 0.2479409909244956
Ni 0.5995308632771134 0.24594552842618012 0.556748904585342 -0.5017939764580519 -3.1464474003272715 -0.5707761600547202
Ni 0.18399643297951523 3.066976760651035 3.0547301243292844 0.7149597686848912 0.050180220398816804 1.7424582096700054
Ni 6.016335078561758 6.784955958870484 1.4606389799609432 -0.16852784180249042 1.3387276504452943 -1.1317191360691026
Ni 7.527242108369954 5.320461190995122 2.0700207049053794 -1.1517323459662359 -0.8160439750224269 0.8405507019145395
Ni 3.8841238217053258 6.499680266293853 5.1133929783337315 -0.07661501755157772 -0.8214206659533079 -0.5529231910336994
P 4.009173863471726 1.661915994594924 13.467618916633215 -0.6570832080830813 -1.612095566083327 0.2521755978311334
P 2.4499097664229836 8.60504005663125 8.241276907336623 -1.6777733678971103 1.063032372225666 -0.9279448123594922
P 6.133624689486756 6.809571369045389 4.276834505461744 0.48623597411879477 -0.15562501769789328 0.019234936970212033
P 4.390336913393802 3.489657176055134 10.496589642573854 -0.4452119662979494 1.561849268333265 -1.0008528133731278
P 2.538309153574002 -0.047495527884423766 1.9322101096658675 0.0762954294286299 0.22671679143839663 0.5047656574918661
P 4.929038588435262 0.6854424028654164 4.884482816979741 1.2647652400252154 1.1685442753172521 -0.858098995210948
P 6.472086579391681 6.922633142344926 9.757428334839336 -0.7293486904167116 0.36238310662617584 -1.2995383818403425
P 5.782864489689103 4.682969043438734 13.323029688400881 0.9369544720572701 3.0305767797091807 1.3998885382253312
Ni 3.70255228848388 2.756193114400792 6.806489745176164 -0.0322388054290477 3.0783555897553563 -2.394939143094385
Ni 2.4046719038305557 4.303017973635957 2.0141643932367392 -0.9655399970044468 -0.6905463728375333 -0.7936059577338849
Ni 6.13644324790373 8.3199992439227 7.956318772341638 1.7719863010361097 0.9988460673557442 1.4349617277793802
Ni 5.641354066767577 1.2134081888966228 2.6037448057824633 -0.09846656620903041 0.9669057670037219 0.3569081995545337
Ni 7.732527113072872 3.666371393604661 13.855048561435696 -0.3240299607692742 1.523437758434602 -1.2514142726396058
Ni 4.246130069586704 7.665342075606942 11.734823694007181 1.2511970144224775 2.880889210541645 0.09526271455975206
Ni 8.030505108915332 8.836866486427336 10.658794860912273 0.20090857212604105 0.4181117676470476 -0.12486485369690109
Ni 1.8618927142792077 2.023245788456229 1.0147026390583942 5.557638486504144 0.25500021176412213 0.6256067347413548
Ni 6.37039299170727 6.475083646508397 6.499048909208451 -0.0960885528951571 -1.0442628049276468 -0.43828592860207743
Ni 9.020871375082102 7.41946043450488 4.99138134254083 -0.06834043624761134 -0.43277374053459655 0.32404050229223547
Ni 4.1834923063668255 5.281339600167526 0.965147684490635 0.32305911221557265 2.2817188156149477 -1.1265175372635052
Ni 5.585086245570059 3.1233855097694017 8.245196582575161 1.4370720892541637 -3.9714262159454825 4.1153367734199255
Ni 3.4529219646872433 1.7628203859225822 11.297657767378782 0.9838706769928345 -0.9664329411323614 -0.9934552353574763
Ni 6.818534384811365 8.908326337492342 5.795268025762732 -1.9357275200832342 -0.09331947479045219 -1.1521192969920093
Ni 8.974214838086464 4.220622115913092 6.408279114428758 0.8578938211786774 0.6268521771126817 -0.05576697045797492
Ni 2.6854566933294755 4.034653631561167 4.308901244571653 -0.7666109172022798 1.7382806812535483 2.371531305693406
Ni 0.5299603858709516 0.16023128792706534 2.9423588978419044 -0.24363310757776105 0.04697919696301586 0.6490631659920822
Ni 3.243521864695544 7.09829509808545 2.5793642754756405 -0.8835115217467816 -0.36058307730295963 0.4170218770169785
Ni 7.76204681489331 8.818968640479552 13.060691424221583 0.9690765494027955 -0.2825760644998618 0.5537816823792527
Ni 4.135529837304656 7.604301495490016 8.603639233098013 0.8343916242916792 -1.8104852284422561 0.5141154741378823
Ni 7.269785587368854 4.6221445528004415 4.400247904307354 -0.6774064930214656 0.34779852394378163 0.6011180055713713
Ni 4.762659085081303 3.108099527954681 1.1263166128510802 0.30673517824456853 -0.8952961730865355 0.8941589741582988
Ni 1.9237788619212268 3.4377581204039247 10.755063663163481 0.4158720796832515 0.17356411867481722 -0.04761940165017605
Ni 6.875356522497555 1.4549492500365455 0.3822387997178879 0.5248176910467348 1.4985515367158835 -0.8299798683772285
P 5.422953370231008 1.087850806615168 7.579051909671292 0.7358147577570296 -1.6067615554649233 -0.24787877022799246
P 6.810529678907159 9.121099312389687 1.5375884433027418 1.2775243394630966 -2.291930723150943 0.26560344120126517
P 1.917549847819715 6.519128319370973 0.9980468378530244 -1.0694711858724741 -0.5400476206226119 -0.826187491214332
P 7.726025638324386 3.1391694369044547 9.344092380106979 -0.07043794220658837 -0.4341145708332072 0.21466551670081738
P 1.8319314383067773 6.9754247414948445 4.339991822949818 -0.6765228048649317 -0.1456941317374265 0.4524676194190982
P 8.992253611955096 1.5983105263185509 4.407357248154434 -0.014504621374078245 -1.8605322656973182 0.9932032672476702
P 5.5189440747184095 4.303158901556805 6.788572169319462 0.18551023529309985 3.6374206320207354 -4.416918175377696
P 1.4719357620961737 2.562360852065511 7.938264026641977 -0.18255552354015012 0.23863745413538257 -0.08443759891979007
Ni 8.99356893921635 6.591527689908303 9.80352116015158 -0.8147342550720679 1.3064227676650015 1.5256676762063854
Ni 8.381735068449146 6.139233620736534 13.30023036936598 0.048626502758451734 -1.097717582312677 0.37645835377231934
Ni 0.9157562063110603 7.6427560274922595 12.735401597318647 -0.6588755240968136 0.23891384772522078 0.8050818195839683
Ni 0.21304261698590152 4.3293245188610445 9.527583351610382 -0.022405878499025925 -0.3277369773072162 -1.176086092220252
Ni 6.7232013439545915 1.02976031764134 9.378085134135153 1.6165597725022676 1.4139786977698101 -1.2375886796104236
Ni 1.263324858461227 2.3719484406094913 5.359751895327736 0.5605480545688087 0.467601132626427 1.2392300718685882
Ni 2.9000899167820227 6.130439718475576 12.592888707120151 -0.927010730580997 -0.8051805499453616 1.5459639645615761
Ni 7.538441180480063 5.280982582768043 8.654778217496112 0.2570876904207701 -0.7837146667621019 -1.8458224702909696
Ni 3.626235121746956 8.108550991481332 0.2864284829691733 -2.1925372742522695 -1.3168799584425837 1.0379864850006315
Ni 1.8446807175462216 8.121535150588858 10.265246125786541 0.24610522326733747 0.5125283321564206 -0.5421870355631179
Ni 2.635511838180702 0.7283643499585641 6.678702883186882 -1.93176827832517 -0.18655873116227228 -3.8056926490586784
Ni 6.9620084034300485 4.2233561175775565 11.267694612367407 0.5029301469450241 2.3245284545813063 -1.2002025256524813
Ni 1.5084173032065364 8.29927344436322 6.178132545449188 0.21172700289778376 -1.842830220431865 -0.1902600912732594
Ni 9.26404720010387 4.112229754391008 11.90899181378671 0.4958189898215396 2.036971134816769 0.21512188751194564
Ni 0.131763847915631 5.2737952588047605 3.9852621533815933 1.115320640106421 0.2728997177523622 0.7352033494252757
Ni 5.012900096534953 5.567536021827036 11.426419850580338 -0.29830453097871207 -0.9810105818362201 0.48041011146563717
Ni 3.1730860898553717 9.120573181485184 4.410161713779322 -2.0806485211000623 -0.6660419599382659 -1.5934057029833075
Ni 7.53304833870892 8.50089432312407 3.435669568616947 0.2379923643522159 -0.06286038696964658 0.22546774952264395
Ni 7.061484725159774 6.911518626987327 11.69431349339949 -0.4733619463696041 0.0872742970376368 0.7748366475461818
Ni 3.412795088024261 2.059670958398252 3.473965321828369 -0.27246365865620814 -1.1295241853003128 -0.9468120815776404
Ni 2.8742907120719896 4.392948777526864 8.672695793352814 -0.14861670470086016 -0.35600111435923204 0.2483701080421142
Ni 3.1006209529549773 6.373042436619225 10.205348001347962 0.6199937594299516 -3.409103328864439 -0.3123764356907459
Ni 6.953543332984405 1.9013619273115627 4.546405190538997 0.36784875772643744 -0.9050455391638156 -0.6260651624350121
Ni 0.17917857712543486 4.881527088719808 1.7302237578302815 1.4320743789292563 1.1587195759173463 -2.782293832064234
P 1.1846401026540447 6.097584722528386 11.232176078716178 -0.8511493033659921 -1.4409665392125635 -0.6380740139704302
P 0.7200082637717095 0.0058400530399694995 11.270156153384898 -2.7012539459720832 2.4294073520745836 1.2612073474706278
P 6.108633471522922 0.5821140512991606 11.49880418880611 0.9366827064531222 -0.5831706770643311 1.9117920923135592
P 4.301674460790533 4.5496700207053244 3.006712223618248 1.0580410896586616 -0.6071768101709415 1.010356639098505
P 2.2595349357458567 4.919718555269802 6.705874725845982 -0.36787395453741806 0.006049548628189582 -1.2512260678882
P 8.579316013479003 6.878860930129325 7.321044830259409 0.5091306193287812 0.23584317921969705 -0.32054611598573185
P 7.113646846263234 2.8705232389879685 2.0347220188106734 0.3992570968343898 0.6194407151399591 1.2930234635399602
P 1.2073764738842994 3.8329388008530834 13.724470387094138 -0.5534407541000662 0.10852677865850986 -0.2344704672418865
