# total energy = -340857.2835356364 ev
CRYSTAL
PRIMVEC
9.40011687951134 0.00000000000000 0.00000000000000

0.00000000000000 9.40011687951134 0.00000000000000

0.00000000000000 0.00000000000000 13.75802123153672

PRIMCOORD
 96 1
Ni 7.2211883727069965 1.5143869846839961 6.877166665409982 1.0486647906500843 -1.9402518903161488 -3.861167799307847
Ni 5.342039263458729 0.6295793893974657 3.0241227916740843 -0.3191854881927793 -0.6879670421461314 1.5466123967788525
Ni 6.606176344005264 3.2316942864221345 12.570813530262297 -3.4108169691214356 -2.6428685640546545 -0.33239221669104047
Ni 6.934672818724959 6.962149359548105 0.6994946366367112 -0.05078880051709318 -0.18804071502443742 2.6542204987323643
Ni 8.077802198273766 2.0072538982793438 8.727262834281206 0.5321275944445868 1.4045167810259616 1.5142648336860824
Ni 2.1994392821757596 6.791621844299151 12.531919607816231 0.5803134101211941 -0.43745109140560795 0.6056614019676795
Ni 7.667186304932448 1.870378800460038 10.940542848139483 -0.9210876802283428 -1.147947939223139 -0.22429764047394277
Ni 2.793902655988885 3.9448623326658754 3.725218268167854 0.8949989535610909 0.57710595892749 1.4984348086323613
Ni 2.8647137343401545 8.386238824168077 2.6379763418554254 -0.5183305406604943 -1.0899410236910518 -1.5266986885740612
Ni 7.6423793972238325 4.365921755550304 2.396551267182477 0.4290191585881708 0.8877759534500904 -0.6106472852180451
Ni 8.573357545216844 8.409410111588212 10.638747404623398 -0.6482198441551804 2.699310706202783 3.7795568712035745
Ni 4.657409971213986 7.227458250479504 6.360690418960917 0.33898581074815815 -0.7449858827333362 -1.530603422945106
Ni 5.128741217677678 0.5356186438942422 5.840403365242025 0.24253601785884035 0.045692616941108405 0.9032339398763735
Ni 0.46845481078395157 5.471149864966055 11.888291744159377 -0.12380838740792871 -4.18907704052687 -0.4027378562941386
Ni 2.365689744371505 9.175021408345923 6.790326508231606 3.7687885769434772 -0.5973757649201196 -2.0380893075816124
Ni 7.7099380352313425 4.276066040966502 7.794015498140842 -1.9897116876091732 -3.0366252998961056 2.2006740444267905
Ni 3.7927496458372225 8.311319894862406 11.900880380310715 0.4215416192642031 0.3166868901406417 0.06895287302062963
Ni 5.318294568925965 1.7325448907474847 1.1036752101533536 2.4517546094215326 0.6782886385161028 -0.2338618871236101
Ni 6.406997273358106 5.102806295977008 11.144244314883123 0.683385593423036 1.4445051484934412 0.17560223215076853
Ni 1.6287018026621969 5.737981574786727 8.612218567254809 -0.3260665315833288 -0.7361811399575129 -0.041231495845961245
Ni 4.249416710404197 3.7153490857490308 1.3089671766257918 -1.1249972439642366 2.1242600871424253 -1.3480216741527107
Ni 2.545485774588514 5.208538807498988 6.1278777311173105 0.3451263764282572 0.07290517280015832 -0.5399961985593862
Ni 0.9694246248888961 1.3722290213352313 9.09742250579746 1.0949312778167917 -0.17939640908587814 0.6295343519305352
Ni 0.5572360920403213 5.563534210915381 0.37482588939672434 -2.9219199032307097 0.05761225119682981 0.8943538637779243
P 0.5342123864508134 6.756362006930822 10.410763556677448 0.5933018519610621 1.2964106348446383 -1.656594162716334
P 5.393974907676274 4.949292991774887 13.576125920308431 0.2294838126605725 -0.7460672887229731 0.5214837415774954
P 6.842570476273647 8.267778554769073 7.60334259300544 -1.356828216700747 -0.6492678258037206 -0.5612360817747688
P 0.27991197207021407 3.418239600358274 8.717232909868514 1.9293807519295998 1.2347033876428284 -0.8295618070032036
P 0.9159520616071763 4.392900090193627 4.6649460446925755 -1.0434631918444868 -0.8600535478341576 0.2777231072829346
P 0.27833181246967664 1.2832381174786711 11.457583101584575 0.7714947276571422 0.2881234766806522 -0.5575041255361625
P 1.4050824288538408 0.7005173693228413 3.3609327295152265 0.029199504382091648 0.9794509506585843 -0.30751782204686395
P 4.643657600627512 5.579505009019563 4.233507953069577 -0.8596953931637904 0.8008487553392273 0.41340459197936547
Ni 0.4112964617831911 2.044760363515181 1.4252625991717096 -0.12442570927695346 -1.1638826081755247 -2.5880580439726786
Ni 2.3326671347540873 2.0582871313032443 5.36593059981046 -0.6689303372296544 0.08364698469769465 -0.929100009009858
Ni 0.03888734236444525 2.498955197416234 3.422115268432644 1.204868820779899 1.5137323582213802 3.736761373304603
Ni 7.696119863828665 4.927907726508839 13.1750248249901 0.8655708781079609 1.5601253436636227 1.401141951016458
Ni 1.0064234838283088 5.949399597247686 2.7262753971301916 0.002494484287079575 0.724566695647036 0.6935162540991346
Ni 6.1059867395781575 6.224870014224183 8.697188101229692 -2.2671288336159146 -0.3517533948264716 0.4467361162519597
Ni 8.529835005356713 9.177268036213432 8.559841117557042 -0.10334446312662202 2.1141183707227333 -2.0042834147757613
Ni 7.048903035653756 0.09690580203414782 1.4549378272677034 -0.025169557287092137 -0.36756645059932824 -1.3509123654369444
Ni 4.191944397508981 4.358119658771923 11.683159579669146 -0.6211602689342269 0.7682595085492963 0.9738978820508388
Ni 2.6403705515535627 7.293992275777564 10.138450638867045 1.8601563704151385 -1.2527985545816425 1.0840007469472168
Ni 1.5799057973892061 3.499701010817865 10.681122190246613 -0.12857521266895275 -0.5978555327700155 -0.354841289723176
Ni 8.5642864326974 7.028344980648548 12.735304290630436 0.09651998400562087 1.0845496774721515 -0.5264405713621384
Ni 8.524561539943853 4.124338758918468 10.250537629210937 -0.9567779345411006 0.7369506711336856 1.1771695550924177
Ni 9.072437935885096 6.183124096401537 4.760454049388235 0.09905020662664231 -0.9510664859786201 -0.38176742469005864
Ni 3.497632985165764 0.29829202005909455 10.02366769508214 0.12062973256963094 -1.4767706933953662 -3.4063108537209654
Ni 8.830601136105049 2.734258916158963 12.821223236381964 3.183156839933163 0.7768737325808684 -1.6830940087790753
Ni 6.018518654610873 0.8874161276431582 9.016553302683699 -0.5218925469801399 0.27056027098590824 -0.5840062855917489
Ni 8.938542675028136 8.039524923476689 1.0843861708892086 0.8801341206341164 -2.669827609142002 2.6670235640343036
Ni 5.783252536334546 6.821241611707202 12.669609695744796 -0.9514758056018967 1.3213354231107761 -1.5672321299117329
Ni 1.9856712305646864 3.5510820481559824 13.141248326021325 0.5034433391360168 -0.14884270466873722 -0.12909611816942929
Ni 1.2609598411355798 8.824227857049936 11.666595634207477 1.2632804279495728 0.03138545628981691 0.009389925855332215
Ni 5.274330223585612 0.09868242407163487 13.156341153235026 0.423614956853464 0.1566208059522593 0.5163883293324592
Ni 6.699726304413048 5.6009278747520135 4.404369172457849 0.6638714346495083 1.4288862110092617 -0.33199446703198954
Ni 4.91834780792617 6.084216069531491 1.896735787396069 -0.17008438765633288 -0.7620132705292683 0.2486051068710557
P 7.729885082657519 2.8746026570038388 0.695633068737242 -1.4112451008887308 -0.161416941789322 3.1972837662528484
P 5.477852148102183 1.1620706144987347 11.216776554583937 0.03305975866844629 0.11842295472629928 -0.18728918157039356
P 7.253308571130771 8.710138641870145 12.825364927756128 0.23751079673010708 0.09080005080270813 0.3209127552965312
P 6.980169383071188 0.5781532314996661 4.615829495443509 0.21000744910351574 0.8324771808777857 -0.43404437971690407
P 2.5193346502060328 6.874117267584793 4.556436738726819 0.09220284468750573 0.12292187103791735 -0.20081935484634444
P 4.444422129280751 2.685519311585575 5.2620987918650926 -0.06144756578251998 -0.19831278637440686 0.661865202852757
P 4.933566596702316 8.217158926875593 1.714552127562543 0.4860130594747114 1.0237132629110692 -0.2216355202607473
P 3.4763229208325197 1.931676960811641 0.2560450760216447 -1.8003882492175702 0.23099664976067313 -1.5790779735067257
Ni 6.000414030038385 8.476414142716294 10.217504679465257 0.10856071722023883 -1.783794092304315 1.4638251889782916
Ni 0.3295201474174846 2.565348220965287 6.736257037545757 -0.32565721196005204 -0.7019566715570039 -0.5495365339496536
Ni 5.55247967379324 2.666474675353042 7.628107200189353 -1.7954483887137915 1.3860104946916583 0.17493888753515677
Ni 7.711047248990196 7.967247426935749 5.050307584775096 -1.3786928779843224 0.17694023423590172 1.2254049930600381
Ni 5.199561696145548 3.682232474965608 3.3576173083902434 1.2079765131709455 -0.7393734216425654 0.9944600224729068
Ni 0.12576039995092153 5.023986318282146 6.830829730639671 2.5974736808596233 -1.4804723106166697 -0.7448321307642914
Ni 3.225198805851216 1.856570029173961 2.443122264856139 -0.9834806406432675 -0.6065646305082393 0.3978846419668954
Ni 1.765473499198898 3.888395832246909 1.7693087467718858 -0.4333738360124407 -0.48390552621340527 -0.4585418506376361
Ni 8.150916305192148 7.100472075323882 9.084269862650096 0.32104542421965354 -4.088308822767855 -1.9730956763190473
Ni 4.263281882389876 2.7641700871816286 10.047372909125182 0.9823444701562953 0.3592250206131684 -2.836844927837237
Ni 7.5845686801309995 3.610876189851512 4.893398018445228 0.8620155566565347 -0.9316135194603311 0.825417702927843
Ni 7.2735376220549615 2.0959909989876913 2.8865567852846445 -0.8358604955277217 -0.7739750708768348 -0.23088789209695074
Ni 3.3113414743778367 1.5986308296573235 11.561263567652674 -1.9704019315369679 1.3907359251917855 5.9233959089191925
Ni 5.384386788743804 7.754062182553904 3.924448099444655 -0.23457845357466053 -0.3679449169846696 -0.002029114614886828
Ni 4.037115076982795 8.224415816891149 8.272697635786095 0.5852105903124953 -0.5742062687821917 0.943924218506884
Ni 9.206445998141263 0.29814067818182716 13.5742139365919 0.09306647823938166 2.1690103947749226 -2.1770036973930442
Ni 3.0515880523573102 3.053947481624026 7.36659501635288 0.3093908706998607 0.26124696400478237 0.7654089264743786
Ni 7.6543551457728185 6.105930338878555 6.805473856121589 -1.4867157204232202 4.0457940893340965 -1.9814175659211815
Ni 5.496971985267519 4.856053235214919 6.560732420311998 -0.9743642801642961 -0.08360070484079152 -0.6312618761446032
Ni 3.4156357680599463 0.20874462929978727 4.416338340925215 -0.5457559838612989 -0.42261685460625276 0.5114968055681127
Ni 1.4256874844420504 8.370230425597493 8.713229400208377 -1.1758312958969686 0.4628957567309576 0.6700580230761943
Ni 0.8994445168451076 8.240828420475554 4.346034868870371 1.6255372934105294 -0.4161204482486317 1.677243977756202
Ni 8.633414890177187 9.077984004679369 3.2464524694848573 -1.1613888952193934 1.5869208665899122 -1.590939243720686
Ni 0.6899328380307227 7.318517179988165 6.809147421689049 -0.4240669567892181 0.09442067827443093 -1.1568660676483755
P 0.490732147115383 0.20754611443322857 6.779595335120521 -3.6054718470282805 1.2467268944662657 0.22266987506253264
P 3.72982526531374 5.799411336770738 7.889550763174642 0.6596250006683285 0.5828390047565253 -0.03942863830926758
P 5.942086306532528 4.04558458203981 9.497959594119765 0.36010485211496046 -1.1368052923427585 -2.5768490626307363
P 2.5101789366371845 5.523668316412827 0.554373756535481 3.0206595205954687 -0.50461730483946 0.7461135685798763
P 1.5143117837511924 8.262758892504428 0.247233406720373 0.3332555931326002 0.2915846957563752 -0.08673796491819256
P 4.789707212248868 6.664410066345118 10.78641195627671 -0.9157367003290745 -0.017304295606402457 -1.0175552137294734
P 8.017923455528832 6.656034562454107 2.68644616308238 0.8522042269930679 -0.0854110185766529 0.8946413131113561
P 3.717811916298351 0.9866550386175403 7.886001279146308 1.144701150151067 1.2207057878121557 0.8607001802792208
