# total energy = -340858.76659932313 ev
CRYSTAL
PRIMVEC
9.35918957243691 0.00000000000000 0.00000000000000
0.00000000000000 9.35918957243691 0.00000000000000
0.00000000000000 0.00000000000000 13.69811998064084
PRIMCOORD
 96 1
Ni 8.860634840194736 7.692832610395418 9.595327472739093 2.3546802955743384 0.34590619201707523 -0.6411778497067345
Ni 6.250983952671228 1.0914780393779757 7.886801812907046 4.155269605059121 -0.38315170663209497 -1.5069842408642693
Ni 0.14157458781919863 4.232553066241062 5.403414815089888 0.5604207849623252 1.4478414119555258 3.080051232290224
Ni 8.690335027943755 4.024067760805645 10.71242254971391 2.275698834673113 0.005914565712222072 1.1962108879945852
Ni 5.2269482328734105 9.135804370860328 6.515360465998512 -0.8593932885423394 -2.058025127273591 -0.6338152386940762
Ni 6.747208180278779 6.572415957064924 12.46554942713675 -0.9093382530018984 0.8313962891087809 -0.34888147259531527
Ni 9.188056725872265 0.21724550681302315 3.8532943735656606 -0.3685370420427137 -0.3726672621610034 0.11435598374577725
Ni 3.1232364116646707 0.6799750670165403 2.761431671498989 -0.37575310017517866 -0.32074743336326045 -0.2859580935982172
Ni 7.720011696720811 2.5557232375899988 3.7454493688070967 3.1718149325577825 0.6378606124080434 0.36164391446730626
Ni 7.136625337243982 8.225894607898544 0.4053577285318029 -2.5784367188328305 0.6510858528490657 -0.28470236681424516
Ni 5.105999426887512 9.289379311464106 9.487961658483236 -1.2986981453272344 -2.23211375099331 0.08471476384057668
Ni 5.919537615506124 3.6802579343031288 -0.16326638133723 -0.9475795558712842 -0.5228770223805963 -1.0001460171140903
Ni 3.0000039634393096 8.45797443007856 5.388552422154377 -0.09139166164012003 0.7602700625859165 -1.3269265440453082
Ni 8.691972886107305 1.4525930072770663 5.936121163391785 -2.1848085381494435 -0.8756719710977048 -0.344844069301148
Ni 5.098437201766672 9.143216848949072 4.135777174911231 -0.14845241120885402 0.015686300387005244 -0.44512583434204633
Ni 0.08569461095473904 0.35556216076518693 7.903568800907026 0.36146110903253875 -0.922385830214476 1.2488413697061074
Ni 2.4898345434678344 4.776406209244593 7.14584320298843 -0.802179815445825 0.16187896902740506 -0.15831130628080475
Ni 5.551319022771987 5.328841729025116 8.578119281685895 -0.03047939953577976 -0.8874288545233169 -0.9465441726282343
Ni 3.192578646714545 5.118727924615657 2.0943601190543557 0.5197089090652598 -1.2469323256088525 -0.3561278697450834
Ni 7.342873796387467 6.011763068898142 1.4153715106117468 -1.1846206120538245 0.8477415632360239 0.036984804754465334
Ni 1.8320800641764134 8.977035080080725 0.9664280365505518 1.6807445347102923 -0.7673701639658074 -0.17314374330794696
Ni 4.460299583679805 3.5814155339303753 6.786555148880909 -0.5563985511768095 -1.7465382932766502 0.5486986114293905
Ni 1.3925163698381209 6.485169592490092 1.5845023600934298 0.5180654599245659 -0.575970559771466 1.7665820993014028
Ni 3.458557453285254 1.6756786483418267 0.034901353586784624 -2.2556887100997733 -1.6873815804108356 -0.6893695789206127
P 4.546787853904652 7.1312531624675435 8.643596171469795 -0.4875366952080893 2.9884906491724084 1.778649571988898
P 5.542746005184501 5.206170832170114 6.289792767876763 0.7612581375307986 2.3335926216661034 -0.6946254280029134
P 1.1464726369151688 5.667082837771568 8.67529293856973 0.527481353921827 -3.179867370548614 2.8048457492228214
P 3.0300843985115593 2.8524001857403527 11.915268392780506 -1.3256188809774783 0.271291749835294 -0.951246206089594
P 4.949289157799226 2.3835890241958437 8.559831425391192 -3.695790330208881 1.948953531855205 0.2796851161053119
P 6.0432099456382655 1.6939197086889999 3.1350617476054876 -2.786317608511647 -0.97179651943712 -1.2479597384321022
P 7.17706639509936 2.780530969523861 11.764164278206309 0.6895107324841674 0.45213286178749873 2.769250882837347
P 3.040145527230498 9.040789878995524 12.548121812472292 2.6263420271545415 -1.2523784363250883 0.7341327420689163
Ni 3.968951493804874 7.685878732592469 11.236787052409122 0.647345154859711 0.4159381570344966 0.5217092273247401
Ni 0.641022120292613 7.392543015095752 13.449416441493812 -1.4932442655703573 -0.6044882075951847 -3.115322911008325
Ni 1.0827084788108639 7.113695322954308 7.401683199567301 -1.758782400751326 1.196110614971295 -3.201493947679454
Ni 6.221933028444637 2.1916601249965213 5.366758613470731 -0.514540734600759 -0.5186174757732939 1.7183425475687246
Ni 9.30355848356568 1.4978634069175363 10.714929876582566 -0.1498778308014709 -0.9137844616987101 -0.4497864730425093
Ni 6.2559162455408845 1.8624412749338428 10.101048469938373 1.728768627998055 0.9739688444980904 -0.01481572485659384
Ni 0.9134381774055418 2.6690630225075287 7.036093603165397 1.3166598720119775 -0.41261243509537326 0.14474050957490556
Ni 7.169185957535318 4.627679328804917 4.876845287347067 -0.3922331001080729 -0.8953727919607419 -0.17338954077016588
Ni 3.836837174738329 3.734597388574902 9.96786158775444 0.7757118510622834 -1.3018624019878289 0.005046561284971955
Ni 3.1749646520642734 5.9745602906118345 10.069364805703746 0.5016507660119683 0.2837366604668662 -2.0901749725332586
Ni 3.735505229956983 7.377633826212711 2.577794078283022 -2.150246741014174 1.0783687454724202 1.15152022995543
Ni 9.402428961506951 2.9269554893450636 12.708430689925628 0.23176952337095572 -0.8858463405275454 0.7058251533734747
Ni 7.801633188402543 0.9781476136499515 1.806685775289813 0.2681182372033189 -0.24398200627674754 -0.9691110021851567
Ni 4.72467796884499 6.5661640184749235 0.659767640954159 0.7611473229845471 -0.8534111028169753 -0.9523492093457857
Ni 3.9010505739389214 1.7943157345197467 4.744453000352196 -0.20601966810036132 -0.12250123856073096 0.08798237884825492
Ni 0.8113911905459381 2.282584651047207 4.3308526336224675 1.9286603288238073 -0.8519620290752747 -1.146753918915038
Ni 4.334446562392767 6.5029894893094955 4.59177373418414 0.5664600491778695 -0.296472877086612 -1.2867278603392356
Ni 2.083935853782585 5.517270291349198 4.0273434771327405 -0.7326772405693124 0.14697197000858558 1.561101077313331
Ni 8.782448171061702 6.499732491361411 3.3571216215003923 -0.02557270626278177 0.20780992723156466 -0.6103647209806198
Ni 3.8290690474483577 6.7996102823228135 6.661039994335037 0.14448802724446727 -0.7305761350659096 2.5976336034762553
Ni 6.843121154336157 7.130261088379909 10.069117723100788 -2.785017915863617 -0.4288245260788615 0.22220630516255277
Ni 0.8712413355988384 1.656052427947767 1.316883823521271 -0.7605207451441418 0.7453985447907227 -0.049216828044282984
Ni 7.05766185538195 8.566709493759143 2.9667114545286046 -1.1980595111675496 -1.9801541258277253 1.3142042113826333
Ni 7.995564954156147 5.6639381500975565 7.179759969839185 0.3862216038066703 -1.0763720267573655 0.17926091194927837
P 2.0293717789626675 3.078948726922329 2.447168806266881 -0.3503362027639708 0.09301119952141401 0.26071474565039615
P 4.9782090533727335 8.5546080617279 1.3898798861542838 1.2641378908538614 1.3368420033868074 0.08724215824812072
P 7.958820776155633 3.4192207797915817 6.805472878629365 0.5676435279630095 -0.8768161120044771 -0.7029133790433184
P 6.154060186147203 6.223992050135955 3.523841543765332 0.5836350182952594 -0.6755038766821141 -2.338357904265231
P 7.306775402462867 4.344039731636406 9.336008665420845 0.7262803359040331 0.4448437843252533 -5.018341885114945
P 9.161822917686978 5.035403060443834 1.2674045963599574 0.13109180844321938 -0.6252205550465297 -0.6239781979989963
P 2.435607399470132 3.2489584042986244 5.386894909692867 0.5447041455580167 1.4095474014713336 1.0575829190753205
P 4.6601837939592174 5.68224472477127 12.338431043428502 -0.112404002225729 0.0581023034593709 -0.3877663225859709
Ni 8.934778339461184 8.2034793490317 1.7217576819556142 1.275765962011093 -0.15235945957274408 0.9399564921083876
Ni 4.620566344780365 4.090162357096941 4.451039601582579 -0.3462052113147328 0.27454676643748205 -0.5678096212272286
Ni 8.154680534947472 8.688603577885148 11.90124177546788 0.16235822265666877 -0.9075323101414112 -2.1467191874768905
Ni 3.5605819780900436 1.3459450428563182 7.146870841996188 -0.7627048972796542 0.1908984961882067 0.06049060118588937
Ni 7.230048766892766 6.911115666097169 5.191806348116322 0.01097295407173594 2.213243396451369 1.2422038097849317
Ni 6.15488379482373 4.630655551067822 10.876772725195936 -2.5073359462312625 0.11845946439118953 3.361473899911933
Ni 2.480550227477893 8.73526849676201 8.00208550148497 1.4849054066873588 0.353343622131727 0.6693854224892021
Ni 1.3519068465716333 0.680988667240039 12.52705427689431 -1.888812086478618 2.127542357438123 -0.9658207614696591
Ni 7.568065255091075 7.854259910994721 7.735616273384148 -1.086046316622336 1.7322799835854232 -1.0633177646765688
Ni 1.2747403290947517 7.279437209915871 11.031890060230301 1.6712990730266766 -0.8275054386948071 1.45063311576805
Ni 3.492231817127804 4.06636193818321 13.659257893488649 0.9781317176265284 -0.7103693211007314 -0.5807042178017096
Ni 4.9861082093157885 1.9438943012044674 11.882515909104297 -0.5344030207423248 0.558192924073071 0.9253497979388063
Ni 5.597899708943296 1.038841957596292 0.43956743801409487 1.1091710755652575 0.12547420514612584 0.7670570036007628
Ni 7.477056496334836 3.156321146568343 1.5127651084489724 0.7481190290456793 2.0456437228901025 -0.5497810458602918
Ni 5.51553884129059 4.602577982549854 2.0310199322346723 0.5147497652877716 0.784280823678217 0.8637204551627834
Ni 0.038931420588063606 4.219759054186374 3.299260304217514 0.26510541851892405 -0.2693199708209039 -3.813607275920064
Ni 1.5572661827120504 3.367829470214194 9.18832907828689 -0.9571157774964936 0.9484928117141729 0.15319866764458778
Ni 5.81222514863045 9.111311371923154 11.94485653448474 -0.049523046430792125 -0.3749465451134833 -0.1327303724879069
Ni 2.5738613468526057 5.932640480814508 13.119346841105038 -0.325779082249897 2.5343494987056285 -0.08736994207523661
Ni 4.066380656562222 2.834496056215395 1.8454927186574468 1.3240114272810426 -0.9952418949442537 2.20522798234606
Ni 2.64007761260748 1.3282374563109864 9.680461468242422 0.6909178972443392 0.32870962563313066 0.4292847535447316
Ni 1.8391275338744235 4.716544833164285 11.261293154211604 -1.6965059113096073 -1.6668225253125615 0.6431789392971633
Ni 7.913831152200343 4.730724005265859 13.059129815823503 1.6091513958533383 -0.2060867738928709 0.24505749872911342
Ni 8.367068622406887 2.494298876862191 8.788192841580479 -0.23125324585616946 0.18354925491198712 -0.9885547127320654
P 8.973628335100544 -0.0098655216582633 13.624972374571357 0.3236625501275264 1.9074127322989407 1.7045717190368772
P 1.2966314733492608 9.019301179889773 9.896549243313556 -0.32475938273613103 1.581127914057219 -0.8344944684181306
P 7.098421125680534 9.204379152370711 5.39274440313411 0.30169015962149337 0.16689544840539 0.19249360858946848
P 8.837658029957533 6.13222519702973 11.430081457357367 -0.4262346538644982 0.5108964529799525 0.3763804493465324
P 1.5113125622376429 0.321461953800115 6.16496177008378 -1.3762516155326814 1.312187695173237 0.8657284867317476
P 1.285288135668002 8.222487862918364 3.0550097920039097 1.7945919542507676 -0.07551124296443769 -0.002904061020672418
P 7.405926656089317 0.07445422435804593 9.753485608443954 0.3897856670088448 -0.919252683902133 -0.373870281330169
P 0.264201496483522 6.475183337287201 5.265570800207777 0.09814260721070839 -0.6855872290600451 1.759285051419357
