# total energy = -340865.7260244904 ev
CRYSTAL
PRIMVEC
9.27607208252157 0.00000000000000 0.00000000000000
0.00000000000000 9.27607208252157 0.00000000000000
0.00000000000000 0.00000000000000 13.57646913250501
PRIMCOORD
 96 1
Ni 4.599633146737051 3.5901182123616353 12.099865305537831 -0.39860866461711353 -1.2560617987139466 0.2090851943995625
Ni 1.2671114585654843 8.212635429144667 8.408301185091936 0.12254057643909863 -0.32215999744007096 -1.7804274898249273
Ni 1.0776291323274378 1.3118870589351446 3.18189033500753 -0.26973674664334835 1.6752477732617794 -0.6975960805954631
Ni 1.5492895740088375 6.257452765147177 9.750239935039632 -0.11132671000115021 -1.802421220487199 -0.40380846365049816
Ni 8.983746032651915 6.690088771204968 5.868116536376633 -0.5533525652616341 -2.3078965024515803 -0.7510441731122742
Ni 8.76856898650006 7.185059982252218 0.395064203336168 0.4169635129752174 0.5096512677189416 -1.7254920141293122
Ni 5.0223159273553035 8.342259261662925 10.941602060649101 1.025324316151931 0.5006729754797313 -0.35617852047736076
Ni 7.4500217077461 8.200372461734538 2.0605004046059445 -2.035198873407695 2.1078060553514604 0.8272038482939882
Ni 4.699035536122027 4.288764140068638 5.157971989606397 -0.11515636815988556 1.7072790906657112 3.045234895941988
Ni 5.925823908959955 0.8051305981945759 1.135492342923233 -0.3657149992128863 1.252203858420437 1.419197522966588
Ni 5.635250948201802 6.1764262747330525 6.464055937791332 0.24980889737116976 0.17328309709928866 0.08135124668498248
Ni 4.308021265895738 1.9948842528895854 2.928987503336012 -0.26197561464069075 -0.06755830666594816 -0.9825005361181854
Ni 3.4616631649369296 7.436803304902353 12.14716585275245 -1.694348241536656 -2.2640087999296945 3.7138093924941202
Ni 8.062427992478849 8.953079338054424 8.923379210177155 -0.9381510634685327 0.16052836853678162 -2.9957398745356536
Ni 0.6014169220317038 0.4371330458463158 10.015211864212905 2.0009605210501156 1.1845956723531599 1.1347589513366907
Ni 9.11218252793228 6.911814724309585 2.7003601525361325 2.345236633662935 -0.04532880584378645 2.4979282797641176
Ni 5.981229888037639 0.7984286360509919 12.357071307089498 0.8105456709120169 0.7046758702603799 -0.8142506305674299
Ni 0.5775440226922886 2.867809024546283 9.589916014064066 -1.0726220727966302 -0.1036545381678731 -0.643803974475672
Ni 4.292604433947453 4.398852564594664 9.812080725382375 -0.8466056498593678 1.029071184788873 -1.4832835548132197
Ni 8.913887933131734 8.879158318923324 6.270984699230306 0.35257794761029604 -0.03592808135517683 1.5947557892532986
Ni 7.201126139252477 5.881799670436149 1.765619635931555 -0.4172388781237911 -1.0133244634775773 0.02068992424918372
Ni 4.197302068462081 6.85974813121348 1.2147099992640036 -2.007977061577264 -1.3993259808536418 2.1295107940184033
Ni 3.7804539372394186 4.3748924701768415 3.185542324621273 1.2830987482270804 1.6898236141934253 -1.838559618080969
Ni 4.448525931070639 8.51988676766637 5.976036215229068 0.26057204942494483 -0.08265582442901893 -0.46249954973380347
P 6.573525648303549 2.828153816015043 12.08251441254188 1.351029607741099 1.0570242183583731 -0.24911881328268065
P 3.062578711921828 5.0554964375111515 12.213677145433316 -1.6442366695922455 1.144289002314313 0.4933072791432795
P 4.086786944616187 6.667019179715565 9.517919779908459 -0.280143286688653 0.3758813982229269 1.4311153574500965
P 5.250785584928275 8.387554322074164 2.288653748117883 0.4109967538688212 -0.4420407676588194 0.5829886429605121
P 6.112031781721621 0.4690473721508147 9.587336338393296 0.5275435746183301 0.6367650653510194 -0.6643023515393398
P 8.219304925035653 1.6515675457668393 6.208750603427512 -1.0958918419578483 0.18139852711757146 0.8433876571427024
P 2.264678811984586 1.609389245605073 11.16478621229901 -0.07578866499554045 -0.1709927584032152 -0.2245634925408197
P 8.78677791617183 4.787631301427729 10.408997824803903 0.12574339964711248 0.36672544275527164 -0.6481694505332192
Ni 6.4651996774900224 4.914527968727699 10.391456772328445 1.114506628845558 0.49031785749765233 1.5851838292941474
Ni 3.570684841163285 4.136302617865254 0.8702439867992641 1.568699458485879 0.356230970981851 -1.4070637158175316
Ni 5.66950748272949 0.4412757396779069 4.043927780757066 0.24929750495239 -1.5872252852042084 -0.6916306070406476
Ni 2.514752441643934 8.165002798546324 10.415555080221617 -0.10917058289009587 1.9891740699381486 -1.476859653564747
Ni 5.006500224303664 5.77352935605565 12.8715519531269 1.8998531747841279 -0.09208637371429947 0.1914001184149736
Ni 2.3634226002454177 6.186453708749958 2.9100077320668256 -0.14243808669397404 1.7221205265539181 1.2546577192775683
Ni 5.948958432954554 2.904931865374827 9.355341773395326 1.240667318535747 -0.8959811149687021 -1.2136614793708647
Ni 1.4751644812899738 9.096663659190112 12.650472542252604 -1.151640557583378 0.03885759629714598 -0.3514484619915431
Ni 6.232759861027842 7.11099054596638 9.306235174929004 1.0193153909536898 -0.3490722484498827 -0.7796489813331604
Ni 0.6523713140745008 4.84865858024107 12.248337189100445 0.8273074637513881 -1.0665923216627824 0.3967757251734328
Ni 0.48247912465449566 7.044713010304224 11.844641600609114 0.04514342930585774 1.0259046141354333 -1.0464690685503462
Ni 8.64678343496634 6.564871072967959 8.699977998438445 1.1610654504417035 -1.4163381991409218 0.9288583253126972
Ni 3.902517770938271 1.6875216015018304 8.293173070555378 -0.9398266513987427 1.7954797561723592 -0.3234982566355203
Ni 6.202686835049296 3.830934321994275 3.5587595227801825 0.9478909164641158 0.15613666722698916 -0.9122250876313903
Ni 8.1091608440766 8.717578417775796 11.082159599435377 -0.9651990687252603 -2.462086844585476 2.9951081544889258
Ni 2.6473631694012707 1.0215923803421223 1.1242330465220123 -2.956788432973121 0.10660179372165512 1.988863480676265
Ni 9.299447872921446 3.9654466445466765 7.230135199753002 1.2596078641939918 0.8719227884679177 -0.5105390696405335
Ni 0.6417613427252533 2.521746600060906 5.319573225719917 -0.36167708169808677 0.43178875091350793 -0.9508343153631559
Ni 7.732886252530111 9.309002227257626 13.529033455360434 1.219297080390087 -0.03356857998406477 -0.8966074356987913
Ni 2.5867347616912855 0.8575357679249251 4.906902109795878 0.33846773346115905 -0.357590570333539 1.3658787569387896
Ni 6.8845801764153824 7.849866798679228 5.087836535528302 -0.7467630292384171 -1.6047514670134297 0.45743241962354125
Ni 1.2965444355642273 5.132998020500278 5.05069050451933 0.5617323046848972 -0.3538074491420229 0.044531249643155565
Ni 6.986412896709172 3.5975112418819624 6.084824134436713 0.20038740951524844 -0.9825007932285015 -0.666870112266516
Ni 8.059960557281348 0.30372550348948607 4.3333783367825225 1.4117328391584267 1.7624806755385194 -1.972631335088119
P 0.9892467166816697 8.610977796386084 3.9406656177417156 -0.810057932642321 -0.7802593612236498 0.17481033237709248
P 3.7483216232389003 6.5945173996266355 5.0209588379966785 -0.08072389751362871 -0.4285072519487587 -0.16174090078764403
P 2.4067511333563942 3.4560604173456153 8.209324798986819 -0.7954604944441204 0.10137628365665767 0.8863042540005704
P 4.182868500163927 2.1450731374110625 0.5613804669342333 2.3849275244946537 0.7618788018339331 -0.7176082620513319
P 2.543536093590703 2.9819696447554005 3.873434501860377 -2.3865259793300253 -1.935573511003873 1.0077945347982837
P 7.383122675248485 5.330875192053123 4.776052908143823 0.14386967693417801 0.8885043469756828 -0.2562968190883586
P 2.2849563057505025 8.240537854235187 0.9526924990772113 -0.006173475800563561 -1.8729293538100904 -0.2662482738741157
P 9.196028944286404 5.286192352405174 1.1810378572830904 0.6188491043025471 -1.1984117523006457 -0.3667264711965362
Ni 5.907188279968315 1.3034643854038308 7.228248446673411 1.4314431731031605 -0.1772071147440432 -0.1102753859185004
Ni 1.9448583956711105 3.0662149322128798 13.142334413908118 1.0580490600784616 -0.7154745035377806 0.6250840294686654
Ni 7.659160030914603 5.269662391796363 12.506481001548606 -0.16740041306626655 -0.5186048773678036 0.9879584739089631
Ni 0.2791606091661104 2.105835352127519 11.978804215240668 -0.6846965989249757 -0.2604576353342676 -0.153573020264871
Ni 7.024741626919953 4.714498748431168 8.096992492602615 0.2975429702223392 0.8261250134075127 0.6876253425359964
Ni 2.7084832089363218 3.341000018135906 6.017593946162591 0.15920090797460967 -0.20988429326209015 1.2297642984699984
Ni 3.1752737127279196 8.542696629134982 3.1801390125816353 0.4270365809405032 -0.14454896238938975 -0.3465340554090613
Ni 3.488934817119818 5.8565038216256955 7.673814369730429 -0.2711397976384621 -0.9997703789422264 -0.9941118951048685
Ni 4.500778045610166 8.694898421317578 8.538906426045891 -0.02498855162453761 -1.0074021844558716 0.003584117806832537
Ni 4.646096992241842 1.9855339721411664 5.322681637504436 0.012926735363997095 0.16998231486082982 0.8891298963748235
Ni 1.6451113995357882 4.222115561519641 2.0373797947196017 -1.7138994241957062 -2.534732335966344 0.9977710891240108
Ni 0.8619112911680096 1.1421813185657776 7.4827115136841 0.968135782756081 0.9254372154462901 0.6327096643347232
Ni 1.929803330537496 7.656432865696314 5.835818180684252 0.7697728598700292 0.27007124716463166 -0.24535703224740324
Ni 7.105322865869868 2.8751927779944393 1.4185099428980665 0.9347052710117773 1.0052573701987269 -1.0903850532070058
Ni 7.78647412146227 1.6017364860639565 10.688781786019907 -1.3969201996256264 1.4405271376823 -1.0017051340710943
Ni 5.280700917679912 6.363302024691034 3.488134292091456 0.6702115179349232 0.18108176720810104 0.05689079964977299
Ni 4.607879574897114 1.6563632750792723 10.684803278665743 -1.7911952698643927 -0.28550557944183086 -0.45873622603662934
Ni 8.077158395086476 2.2703835963697823 8.335015576904553 -1.2102987335462188 -0.6412421272857667 -0.60095139808652
Ni 0.3066344797223275 0.08647989324348576 1.3568212801389297 0.37493600359052204 -1.5124498919645308 0.4001068464291948
Ni 3.6598742750879345 0.681373881324507 12.612024150710818 0.13027316919666596 -0.49926503938861105 -0.4163999271622635
Ni 8.742382634761185 4.240899607666019 3.2203517130503565 -0.26318120491301766 0.28376674237385324 0.4665189553058417
Ni 2.070085369980291 5.903208845006934 0.5501758993588215 -0.8332865641529583 1.8413292104063061 -1.5225638404700812
Ni 2.2038277785424953 3.9002080289676795 10.573558127939986 0.9156824500523714 0.08542747363688513 1.0936467546774133
Ni 5.298557356609185 8.175753766192571 13.531802362903491 2.1224222626027385 0.44416269909782863 -1.705555165996069
P 7.075639434922507 1.8891926865726374 3.273327361219225 -0.24733446768874823 -0.037020028867774946 -0.2975254867208424
P 5.504207876641372 4.730666942225309 1.5145228555117405 -0.5142095765135853 0.06826304604245663 0.4192193988889296
P 2.9095791775325233 0.0628574478526888 7.274299506966591 -1.608384692890643 0.4290890925941578 -0.9394397003729691
P 1.3262835229446148 6.070252352663209 7.331238820774149 -1.4006449567753811 -0.39712282410020644 0.180237931150567
P 0.11862612135226092 2.064046646996937 0.5873803696224704 -0.14845241120885402 0.331095609366804 0.4525236694680142
P 6.693493089691743 7.069433742640074 11.961140718612555 -0.16969357997581744 0.8839689209991745 -0.33295194584925236
P 5.1072661962977834 3.8643003535935434 7.396976489035949 0.031409624659533 -0.15285773936540126 0.01330237353586096
P 7.442164874617221 7.385042822187893 7.243372154741092 -1.7170623953047204 0.6829032544699788 -0.5319854124397677
