# total energy = -340888.4053659788 ev
CRYSTAL
PRIMVEC
9.07273977540610 0.00000000000000 0.00000000000000
0.00000000000000 9.07273977540610 0.00000000000000
0.00000000000000 0.00000000000000 13.27887174789864
PRIMCOORD
 96 1
Ni 6.445909255997017 1.8101567006622385 11.227365471861702 0.7105032755754345 0.15507248762853296 0.3504832698647964
Ni 4.964212944647289 0.5433119341930346 5.745966453780551 -0.9363950000093745 -0.8395281741872961 -0.45143583572047413
Ni 2.6958103156532456 1.7195381782068244 4.606267966400496 0.1755137862020203 -1.100758168911214 0.6645520056563007
Ni 3.6979034698105306 4.384809652592056 5.1344883056543695 -0.1330659014504547 0.47150895232126533 1.2148866100272173
Ni 3.540164820290123 3.2510438295926174 3.1014261892281807 0.05296498223280556 -0.18194231543618344 -1.4012504515698643
Ni 5.077232061009633 4.669403346262604 2.051426248514896 0.5068171407042561 0.7398449619623453 0.26256028349956717
Ni 5.461126888868659 5.081387375715739 11.599665338597577 -0.7889867137943186 -0.6454502518298432 -1.3234367857244949
Ni 5.953377444970076 8.11087490591296 12.241459138599263 -0.9890568491794645 0.7212366028325385 0.21317736219106512
Ni 1.9445149004061542 6.759417770559176 0.15745648732093206 0.502741685083302 -1.4497244879108515 1.1173988627916884
Ni 2.8243075256588557 1.536332348817339 -0.0995515417995874 -0.42015270933647636 0.7227846640459488 0.979724773145261
Ni 8.102228585138029 9.079181178049424 6.906858860709649 -0.12358161610910329 -1.3331673827486976 -0.4492236585605038
Ni 8.860881992146368 2.794059012055897 1.2765825378099525 -0.2845195613794777 0.0093924969584935 -0.6232305211996945
Ni 7.27610121422291 0.7445307806513005 4.685489313454579 -1.4972058213212667 -0.7125383037275923 -0.48642495020114934
Ni 1.2368321440941028 7.425347779540449 2.546209913493922 -0.22177795937588254 0.82620754581899 -0.05003495307020415
Ni 7.5255561876822235 4.241097458389637 3.7770159439902184 1.7875281054254504 -1.205714456609646 -0.9878366036191182
Ni 7.817027017918771 4.194889995948165 12.223639370882532 0.4482659226329247 -0.586661463826409 0.6044097889487655
Ni 8.216744703523315 7.423251976708329 8.932325279598826 1.025057949864422 -1.2095328019144718 -0.9608978702467451
Ni 6.961422316260998 1.0228606549482788 0.3074869373341192 0.6992230746759248 -0.8741681328586686 0.47229211034419305
Ni 2.0548303403876704 6.425586319443139 9.023178786008145 0.5197929841386338 -0.17212121558070356 0.39535776177998366
Ni 9.006971244106428 5.406781179066103 1.2893252004840243 0.7945688358677865 -1.894390866117976 0.007853177495831636
Ni 6.672555362270415 1.831078438025293 6.772675764838721 -1.1531749919500334 1.7870557937747222 0.763038369359673
Ni 3.6865988363524362 4.210576762600688 0.05422685691467419 -0.5783303182528944 0.6713186349561729 0.5397133772116447
Ni 5.971994706491754 5.533599932258111 4.799303201800013 -1.878093671619849 1.047146811343661 -0.849301451523976
Ni 5.4399601875382135 2.739912902523066 9.242147540088734 -0.3292073912051556 -0.41170329301754255 -0.6898578314109409
P 0.374023687247142 5.890240250560062 12.27573231945905 1.1569879379382204 -1.5895122814661722 0.7287318827683192
P 4.100333904535437 6.476321078911568 12.900344165333175 0.4515808459387707 -1.0227655542858194 -1.7128558134225405
P 2.5515083933811824 8.621769941754653 1.2712132905543343 0.36687379540767784 0.5315866343394522 -0.8417827745494277
P 6.450354898368177 7.896204815823096 5.769138230547785 -0.7394364136700168 0.27897652007406143 -0.09009351165398678
P 4.787004196089104 1.0810532063128189 12.508019855174057 0.693778763731902 0.38192220510036806 -1.8263697608829965
P 4.1680528324096064 5.977556295825471 8.095225337492522 0.02318158032278588 1.088537715585622 -0.65432518572197
P 4.644398876109708 1.2624626332747741 3.5257128534880375 0.6232611173273137 0.15932920602235787 -0.3364224208963561
P 0.19965924253254652 5.7822292864199225 3.4420295331316337 -0.33419198890394053 -0.4691646204588049 1.623007070789508
Ni 0.6605988672316933 0.29688544118983096 4.268187751361165 1.138192659608588 0.009024057875481233 1.3063332932749887
Ni 2.0107821899550475 6.464372280946633 4.766636803111515 0.2679511154978353 0.4128253224371277 -0.36048588960346306
Ni 6.228608071442588 5.819563609598139 9.158344459570497 -0.13362563060866664 0.044899688726167834 0.15171539823084196
Ni 8.814093874374786 2.5515265388602484 10.148855354439977 -0.5779868188705466 -0.25168991644396654 0.1477047344095521
Ni 2.2320753799039874 5.395258799859216 7.024523219712879 0.8546092368901346 -0.5477766138357534 -1.5775669361788378
Ni 0.5861833503082298 0.20840173434652703 9.075949468227776 0.5063880235866376 0.10777910185920793 -0.4092795140673983
Ni 1.56120072787724 1.0507593290121953 11.136803200391391 0.511215526882268 1.1608219669723299 -0.17329363862224995
Ni 4.278468072525985 7.168834214724476 1.6486909697416823 -0.03743474780769036 -0.4298977045383822 0.5394328698567484
Ni 5.793307101389693 7.953970948429586 8.082769373387691 -0.7884460107995002 -0.019509787898153497 -1.1117982287754593
Ni 5.501101379250973 2.8543927299502205 4.7322175511452444 -0.11603234300693566 -0.04568310385941165 0.08068893051063522
Ni 0.815394320047602 7.581280953893792 7.212524899219499 0.30581626597472494 -0.9271158887002936 -1.2524144317693462
Ni 5.337538030950391 4.1950170143016265 7.423819022929141 -1.1214295812176365 0.49275372063265455 -1.0969179692295175
Ni 0.9305999666373949 7.348547039393764 10.803915314186787 0.1228136275948272 0.9175215601436392 0.8249975846712889
Ni 4.63295815155862 0.14632060681815118 10.207149520487288 1.2672409552592174 2.467903194156937 0.18454478605603702
Ni 8.343109819738673 7.5199764528694395 4.850160443252138 0.538730444473085 -1.1169386353258184 -0.2992429836325814
Ni 7.13686188061025 6.11454559003395 6.699695555309375 0.11121178168984072 0.3731855965583186 2.5999789637799804
Ni 2.135305540045212 5.208505529312336 2.3252496930858424 1.1782491613098418 -0.30647112594990444 0.27946914343976387
Ni 2.735775733296027 5.379680906081088 11.386074904512139 -0.1525399510146663 0.41787882570063517 0.19954177368550152
Ni 0.9475115531268715 3.1099808753338287 3.554939776619583 -0.12560353163513852 1.1722700609082712 -0.12497515402252027
Ni 1.4315784981695403 1.1801093765339055 2.0988721399026202 0.06406314902849612 -0.054160288092487366 0.08076452094357704
Ni 1.19853611052539 3.3542008780826116 7.78793890770208 -0.1258506146489381 0.2542908444019233 0.5259073245664878
Ni 3.504400081051112 2.3753067189111587 6.8049964921510115 0.5815945908264629 0.5564417457099191 0.962575000838852
Ni 4.2427940606823045 7.068698388498964 5.943489973427034 -0.1414176158492597 -0.4839124681919407 0.4093265652552499
Ni 0.9130895793387415 8.83133207948745 12.968225495244985 -1.0569815380458958 0.9642518743206424 0.9838043425312735
P 0.12518566007607193 5.5419014889307885 7.9896848803272125 0.4321883003447718 0.533373808146862 0.4119143805870842
P 8.76230667712053 1.8398608498932185 7.951613850698918 -1.0298029207485746 -0.012685308777152345 -0.1598169442920538
P 1.9299350079766537 3.2100078286849443 10.408072595636778 0.724232709346385 -0.7082756717964963 -0.1766602411016377
P 4.054126442093964 5.885858117365632 3.6540667142090264 -0.404369992580923 0.8086314846084397 -0.34919771828415347
P 6.886717378946431 4.094881188076115 10.233004106334423 0.39943296029062175 -1.2297871812881338 0.4897375595141501
P 6.685302561314253 7.976743524657368 10.140197239103653 -2.430147572674718 1.2893064196996893 0.34983149521341045
P 2.46196045419066 8.661308940639383 5.586367892655882 -0.26515658347183363 -1.3551397732547306 -0.8397449181837926
P 7.181127776791666 4.249435306020446 1.3268337202612746 -1.6743288609919358 0.29658189186065054 -0.08231566748078081
Ni 5.697589699316743 3.002904403365587 13.29945397738901 -0.11798663851982905 0.9065051544284776 -0.2686828514575373
Ni 1.3276593395587757 0.9034624954202954 6.793828857059865 0.025237177300233955 1.5166400187864784 -0.2494286312136156
Ni 7.030384209451186 0.9073556079538976 8.960011651557672 -0.18923987753886118 -0.6435651189919884 1.1077091463077504
Ni 2.950781514748611 1.5814510825148533 9.177280174249782 -0.3584536896647827 0.4046988366752514 -0.6394600956846793
Ni 6.134070125508926 2.4523433502857 2.322580493115239 1.0210488287050286 -0.44715057808155895 0.6310345906251456
Ni 4.308680295170812 7.064071291337144 10.270450024208897 -0.2414003615925004 -2.4566258214709045 -0.09111243983680437
Ni 8.300123179831411 7.254009093460102 0.37952993286970815 -0.1880887946535535 2.43601894385383 -0.1274308146518644
Ni 7.626762597172626 3.8286144282621883 8.10445412814547 1.1946468859415749 0.18849220073955925 0.2711588238018556
Ni 3.125005332000445 8.42091763397352 12.16535790667057 1.3987341129059139 -0.24001119455445763 -0.8229288750677183
Ni 0.47643404927357175 4.82804926973631 10.33586175441983 -0.557927072006194 0.7340255270670907 -0.8431572862994511
Ni 8.685233754787856 2.3905852122846984 5.616311562210532 0.9903598842616039 1.2111975912114044 -0.03456179713526951
Ni 4.144953637558637 2.9602171638629113 11.184807065260395 -0.9398287082812717 -0.5931753536855268 0.7882086979777135
Ni 1.3813518121149573 3.5876424662662125 12.529438778663518 -1.4200076775727093 0.012912337186293891 -0.10936624384066972
Ni 3.077319013015097 8.567260922640504 7.638099892493039 1.1481461712768743 -0.6894186869909934 0.757356231373231
Ni 5.335868646876323 7.81943129389501 3.813067381798472 1.0040288971082643 0.3544183432531445 -0.2296128820392691
Ni 3.1730545605671128 8.765953918412787 3.53706647973961 -0.6137614053669945 -1.0497184287255792 -1.0421303319656763
Ni 3.4335419852985303 4.298464390456675 9.294480008988923 0.42288733465882006 -0.25811741723686515 -0.8927492382949656
Ni 7.738030674805105 6.67817138804133 11.401318921475454 -1.1575214418441873 -1.0465256328198944 -0.45301140773771015
Ni 8.325363541212164 8.71716979794395 2.591650729444857 -0.9766152809820019 -0.25630993171448113 -1.1073371076803122
Ni 4.667888198760596 0.5270898759080647 1.2706752771000285 0.37089345809003216 -0.6883498794068468 1.4184611590211957
Ni 6.2557627808648 6.001617201066936 0.17152195541891255 -0.016275854341888097 0.13647004203599722 1.7855270158350218
Ni 8.373467206216029 9.224980102344428 11.054116066835709 -1.120119347046645 -0.4609124077523417 0.4642748964666714
Ni -0.028411283847530024 5.212796935111435 5.800768522381616 0.913380541392072 -1.3643548640950955 -1.1250208981133205
Ni 7.073134958130592 6.346562758110874 2.705862003781835 0.4046715829817418 0.47304595779108216 -0.8389345064673552
P 8.365165649543352 1.7164080830679458 3.158817617691959 0.04691440516335146 0.8753176730820796 -0.11111973619666671
P 2.0954217770582275 3.2324900772476712 1.3203458042212397 0.12194099518188675 -0.2763457673194337 0.5543712363341355
P 4.791141365316143 0.8695513168678723 7.984518862437133 0.9729062075615307 1.5723594238359695 0.1915106758509089
P 8.739407082539286 1.7304708293440665 12.524896965253308 0.41684421378853376 0.2819859963243466 -0.6864336362207404
P 6.606778000656302 8.180916455107573 1.3988894176322095 -1.5667438774214049 -0.7254316147504927 0.10686764578853207
P 1.8452137662176773 3.348775379841889 5.625978566182924 -1.0782286203501303 1.194847946208787 0.9356156986411887
P 6.926964051514735 4.008554071419801 5.918273201169066 1.040064707685899 -0.8375556238419575 0.5272219296128533
P 2.528971708381258 8.409032345185315 9.75499049310816 0.09525191592647467 1.0508569132053964 1.4161955029154705
