# total energy = -340896.21846926573 ev
CRYSTAL
PRIMVEC
9.01619458480585 0.00000000000000 0.00000000000000
0.00000000000000 9.01619458480585 0.00000000000000
0.00000000000000 0.00000000000000 13.19611214578478
PRIMCOORD
 96 1
Ni 6.498719577854086 2.0506161835509435 11.441966216280592 0.015177479071386763 -0.5746428420989781 0.9794478653347904
Ni 4.63762379853922 0.57956096975714 5.870567632143117 -0.5695237757048579 -1.0901364275313097 1.9398531122158336
Ni 2.639121218056047 1.4054353516610645 4.6452956782711174 -0.6528187763797725 0.6379236044354949 0.6866825190067529
Ni 3.3111432603841187 4.048027804523529 4.842603369526163 -0.30856194704066214 0.5049448633822078 -0.6452656466228629
Ni 5.272787638559153 4.449257467173847 2.7694286678306583 -0.9925430079558517 0.3697130646286858 0.3742533757012006
Ni 7.280486737230756 5.992451251581013 2.696361429204152 0.16738627199887948 0.42446419222763676 -0.7929891500854924
Ni 4.923500271284859 4.778014960021617 11.435275298488795 0.2987853272698725 -0.5998872184880636 -0.11804654522348701
Ni 5.552136386629866 7.994172613430137 12.426316442198631 0.29230511886216753 -0.6689203099273254 0.17820495988093826
Ni 1.8627457428722018 6.356831728117494 0.3076776305687991 0.3340652335180892 0.8350377425161103 -0.0171500294167253
Ni 2.695048671313725 1.4721732218872992 0.3715194991851083 0.3219543091871681 -0.28409712913007845 0.5253681642335662
Ni 0.3438938798426086 0.13850226877604707 4.8579245885042015 0.00964960727462209 0.09142354331931997 -0.634130970162282
Ni 8.77826595093682 2.20190792394492 1.2024907357281696 0.4009884777031998 0.9209565539671171 0.6000502264284892
Ni 6.7854255404755435 0.736890855475422 4.87415554148735 0.6616679992402863 -0.24081517851299172 -0.8566162400178343
Ni 1.0469063852268288 7.351281894893063 2.5051234399534703 -0.08747098642947516 -0.03637802440840187 0.12803450967413432
Ni 7.643776254256649 3.909322671375678 3.9299868870973085 -0.6188203079471408 0.0935704144589937 -0.5655925589712518
Ni 7.660366051773034 4.049569573749236 12.608778969534804 0.17977693235374842 -0.6371018798651479 -0.5372299486681587
Ni 7.917580042831398 8.8300369386211 6.980465658863539 -0.01787765161136921 0.2654656300718202 0.4002598270672913
Ni 7.0526655395981575 0.6245851392449469 0.6326861898256376 -0.45817186889272704 0.28635250082315844 -1.4532911222161875
Ni 1.85195335829225 6.5512389096654635 9.287344624973947 -0.02539555725496917 -0.5429455109956971 -1.9025309787266071
Ni 9.219148836129017 4.786832798049347 1.0674245386007604 -0.05631050166627077 -0.04026990326364032 1.3962769096146728
Ni 6.393284201682026 2.0049491594093767 7.02621653361212 -0.07107171913584534 0.49423467605355526 -0.3150701804728251
Ni 3.4536261789446674 4.199986743295882 0.234352528785244 -0.7171917433392035 0.7662591902898158 0.8422008359234527
Ni 6.149432210579792 5.757624470975463 4.853542718073244 -1.0239477475193786 0.0861520105077355 -0.42054403123762407
Ni 5.194184456630983 2.8604146910137205 9.595090778619443 -0.43632083445590664 0.2923750528681545 -0.799860423284029
P 0.24344536073919668 5.6986134792663705 12.131462544786112 0.0026027277301697116 -0.032593874775621284 0.988178303229253
P 3.9419522785559997 6.246888254794244 12.70976936191579 0.3025028853307758 0.5250766011350763 -0.47120196260380787
P 2.473457663944073 8.422685280039465 1.21206683569673 -0.030957881834095074 0.48149203167590626 0.5604922616302088
P 6.368715072208034 7.7956089663087695 5.933605256227653 -0.19153458711030885 -0.630305939989237 -1.5797318050406408
P 4.831571154177769 1.0809695673012294 12.668610434925414 0.03953302509761578 0.3990550081259127 -0.3260583040532126
P 3.9064735539761255 6.2968650198123495 7.979253516717985 -0.4422770520393415 -0.23290080876192146 1.2627857477013413
P 4.652383308612221 1.0021409805155002 3.817344866819354 0.5090771403830264 -0.4859552096535825 -1.7813813690977642
P 0.24895425545795233 5.554399451399764 3.449806919038178 0.2389858386137368 -1.0710968944013552 0.4048582450712512
Ni 1.3312320725524576 0.8423081992588769 2.6126586877785543 0.23595373665563235 0.3120049112839401 -0.4433813408471138
Ni 1.7683191399433509 6.348104052032788 4.897063887970844 1.3122925961822174 1.2534606136456736 -1.678833947951141
Ni 5.802804620624701 5.64419173045719 9.118724660750223 -0.07034229716898853 0.21833782334608204 -0.07082695011489092
Ni 8.690736736649292 2.255256745632117 10.211600112627748 -0.20426566152373204 0.7048944140290893 -0.6087642092627192
Ni 2.2794562111397108 5.154287796842941 6.7713341304003505 0.7426443790843532 -0.19397096446594334 2.384144623582042
Ni 0.648919847667077 -0.006492561517145559 9.19936550259073 -1.5048188577818342 0.047694220752169475 -0.5206687018753678
Ni 1.407734481208172 1.0637306037950744 11.3563493368046 0.9188307658733659 0.03386528528887717 -0.5382846151849181
Ni 3.884492072266917 6.795163030322117 1.7680811124137683 0.7387064774825278 0.07219606254827565 -0.3308726947227205
Ni 5.518866629654076 8.052462309595038 7.911517553782476 0.3357575336188476 -0.240089870311193 0.706957467205705
Ni 5.291487225542294 2.842364270020351 4.70461141734763 0.18277843818423362 0.4651701545874311 0.7147499666669304
Ni 0.6938619697867323 7.336792870649134 6.893424220687771 0.44749459168453903 -0.31992956544765544 0.5461485913140272
Ni 4.887219105412072 4.760739931738252 6.840824644747102 0.12047392371805704 -0.9922643003731684 -0.05982082881237439
Ni 8.165886033919008 7.1224148187213885 8.92460960389765 -0.5305147414315121 0.6011681420830164 1.0949693301435788
Ni 4.6525546163039655 0.4856834530613044 10.40806388809609 0.5399491473715347 -0.3102269934479108 -0.5701081874534182
Ni 8.391750717387989 7.004446932469016 4.791481547831655 -1.2197953601827445 0.7000926217650717 -0.03361640250286469
Ni 7.207076883220758 5.985463700996666 7.002846557980344 0.20971871421850335 -0.2850569219401865 0.08949495883803942
Ni 2.291078085595482 5.006602534169917 2.699238496806042 -0.17645121041462514 0.08832202157586079 -0.4919641348518237
Ni 2.4322175912049757 5.261147731714777 11.328849042562902 -0.8400053709340307 -0.0007031967146116922 0.2470328772879294
Ni 0.9041980618087203 3.1826985563523786 3.855600579244363 1.3761839955195398 0.39943270318030566 -1.1216524958617198
Ni 3.6707631863289425 2.556082068531105 2.580328418249072 -0.151631580267784 0.2508694774252002 -0.11409938765028091
Ni 1.0720345187475686 3.3126309324440113 8.318327339086538 -0.15393297470745101 0.22318101037099627 -0.6734678200886917
Ni 3.4205998592150406 2.7581800638190064 7.084359265809892 0.37019334669921405 -0.10089214493138753 0.022184249406523086
Ni 4.076320622244404 6.944642515661314 5.857634803035779 0.4072637691889502 0.571071579807952 0.21803931826905673
Ni 0.9616312195148962 7.569428716039204 11.258830179230031 -0.576526432274936 -0.5388294319447947 0.43181086240069505
P 0.20894669647999092 5.468998058967598 8.038992115307279 0.2681627172880091 -0.4044103589005551 -0.33285784347354935
P 8.431088373129285 1.641280962222783 8.05821914965711 0.07799672839045277 0.6488903878596438 0.013314457720719005
P 1.8597343339752062 3.2609681390913603 10.436830957637271 -0.21286651581886568 -0.23005871132743605 -1.2394820399783943
P 3.916724966897934 6.0283898020703095 3.8387222635103027 0.7683978338993733 -0.6729775107158346 0.41391289907435164
P 6.8002752124915675 4.011467136627368 10.519966580441247 0.3308575252140689 0.16936756409496637 -0.5124959362565883
P 6.322389865882394 7.763168699208798 10.123515500771191 -0.4824585093542336 0.2918837150540328 -0.08568047018795566
P 2.2431299642954126 8.481506931668207 5.768534967700776 0.43051991150341334 -0.36203163682402806 -0.39495589835587464
P 7.052340956603272 3.9835890638444016 1.567157025624037 0.27187256203942856 -0.2889197473297024 0.1255757637209966
Ni 5.365095435826944 2.994783034702125 0.50228136515256 0.44675565663598543 -0.8515956468747914 -0.3755425268262693
Ni 1.2733661375197673 0.990933850997639 7.032959745330871 0.3475365285316466 1.0139744383567506 -0.18456561199164342
Ni 6.737630694478614 0.8638623133581522 9.142873635569723 0.21531806268315176 -0.8307326873828532 0.7950264922304953
Ni 2.666827983147268 1.53859552531295 9.223501854738206 0.4245541808382818 0.8753534114160215 -0.47977813430859306
Ni 6.2764703883003605 2.0171661026891052 2.564505898867821 0.9136883024404779 0.029367654528839746 0.1607713377855231
Ni 4.058919367240807 6.933841114887061 10.344946921501691 0.8343018927913503 0.2473331821371676 -0.15189897499655775
Ni 8.012439423086763 6.925419989408636 0.4168466128014753 1.3585125463817054 0.38799077989195113 -0.8366364544617979
Ni 7.478103683950374 3.876990598607335 8.430454534669828 0.38110382296413076 -0.3754499671124631 -0.7280106883315784
Ni 3.214525722239789 8.564546081193148 12.026421176305066 -0.5787725479966355 -0.7323401689448678 2.119776597449775
Ni 0.06542871881352852 4.752246676705408 10.205714340987154 0.11074769756922863 0.09350870798312283 -0.05761636496188787
Ni 8.528679660258272 2.3273051543024543 5.696207057007065 -0.08691922769106321 0.4373150800483759 0.9866590383712491
Ni 3.585208518593636 2.6674681329427368 11.566536661620598 0.7605341148805805 -0.3031685439392327 -0.32373839767078444
Ni 1.20128166407222 3.190154949040449 12.468847633961829 -0.7938723240213941 0.7894238013317372 0.7330976159361826
Ni 3.1731594227804583 8.47398742562002 7.804840647654978 -0.6000029181303215 -0.1941504274666011 0.2634933368367978
Ni 5.788712308930078 7.920834888974558 3.5157612819795356 -0.5177625839721663 -0.10953953619374039 0.26445338675722196
Ni 3.334296847352636 8.20346553177134 3.8412828626921796 -0.6884336973699047 -0.025758339911026603 -0.7787583511980911
Ni 3.394317652823596 4.404537143434031 9.275164648090858 0.05245924624098062 0.39119437443091337 -0.8270956048508982
Ni 7.127472903725024 6.044988615780995 11.24829926428485 0.4011530283055221 0.924933279226678 0.5459539588047178
Ni 0.6688510467919235 8.85108073612286 0.04999660064557083 -0.46859897776332204 -0.13906557067731534 1.4802236849409731
Ni 4.713837688977259 0.27568817318394634 1.556257348331887 -0.6235534517567519 -0.2745789052269981 0.1440337133158681
Ni 5.9325566728302865 5.598876337893416 0.5881840579879385 -0.9870061372980227 0.6466242175332864 -0.9076796343525529
Ni 7.818257646396353 8.730894866072104 11.489642950132161 -0.10518023078378014 -0.6063157477222267 -0.6807694959564276
Ni 0.20158407221266547 4.913483279414911 5.795745842105366 -1.6627925782175619 -1.3552431316018143 0.16390808364229192
Ni 8.008625572896856 8.636026469622436 2.6588847159668694 0.1475700086039007 0.417474648283681 0.4754931337799941
P 8.313201632625635 1.7693019051223107 3.460891428313527 -0.04236123857503027 -1.628883327064627 0.1518544949118675
P 1.8958622245448522 3.231512232305477 1.494512646510312 -0.788347794658739 -0.589128694419979 -0.060216778699212416
P 4.653645575814554 1.2879633560953245 8.173183741587357 0.14109082863746022 -0.8802575335858582 -0.14369792724300412
P 8.53624424727797 1.5772479502872634 12.283758689225374 -0.6766050801660928 0.1364042217950683 1.1634308653500867
P 6.345290999410445 7.727320310662525 1.3904477318722144 -0.6382287943807394 -0.4902813478327621 0.8225182698928608
P 1.6147102376136622 3.0665519413490885 5.952264270336434 0.19504568558736088 0.025344649412375707 0.025959143067923032
P 6.74964928148369 3.894662339440004 5.966371007941941 0.8554805837514944 0.7614093183966822 0.7241573760237593
P 2.5074216678811476 8.546657951697222 10.00690184690304 0.636484043775491 -0.20915204308175592 0.27843761685145596
