# total energy = -340863.23447752924 ev
CRYSTAL
PRIMVEC
9.30323018425240 0.00000000000000 0.00000000000000

0.00000000000000 9.30323018425240 0.00000000000000

0.00000000000000 0.00000000000000 13.61621775957413

PRIMCOORD
 96 1
Ni 2.0627214753615863 5.53329145467631 11.421460202484768 -0.028718965201247313 0.3773248155376727 -0.028645174540518407
Ni 7.2308704528414784 0.5459898272618103 12.519526960446171 -3.6904660897824897 -0.4075465905366917 -1.996261315802233
Ni 4.759476686764606 7.110728539658607 9.28556603161774 0.5687719851404979 0.9946934786399515 -0.08075963584757058
Ni 3.33596154336591 8.132502298747566 3.7965960953396447 -1.1701206186654363 0.046564220912784324 1.8354894637960775
Ni 0.16819309651797584 8.244466672694898 1.3135928284527292 1.2342349326468423 -0.42027972183264395 -0.7364259089784673
Ni 5.750224173554907 8.230409492052239 4.208418459758176 0.2537840799688339 -2.5227574229926555 -1.7923746348844745
Ni 7.734789213060112 2.5687241591169214 3.315440478467445 -0.409332735902837 -1.6948948580687453 -0.1321881268311917
Ni 7.508032283222779 8.119263802351465 8.855579110478631 -2.9199797487852033 -0.48209058449185366 0.6779415395893291
Ni 3.8226879344067566 2.1761743661208492 9.536390417657962 -0.13564188970774704 2.6247844528594344 -0.4206152507951917
Ni 7.985483353879289 7.258287071871208 2.90782503468863 -1.7563843328327944 -1.9874511737097706 -1.350479134554268
Ni 5.9748506637051655 1.8056453187112613 1.1659552187844944 0.24097201580583014 0.39504228742209385 0.16671264297062255
Ni 1.2958934332358782 5.545394957003313 9.106784928951908 -1.5287180329969348 -1.7798698175492442 0.3174908740991758
Ni 5.199277585309371 1.5883404706296815 7.0421990862833805 -0.49562281465033353 -0.9734571949689945 2.2343454685373065
Ni 9.023565675288951 3.259219198480862 1.2632204892140224 -0.42982854186334357 3.725466002896442 -1.4726386735048638
Ni 6.943019211104508 9.060685563286448 1.3724329677053009 0.4591332043647318 0.8417251818386149 0.2844205739077682
Ni 4.561169034495279 0.8201504356210579 4.771967203462711 -1.379398131581463 -0.260880324693983 1.3611458702394943
Ni 1.262066888684777 7.9007123214398955 11.721834522225102 -0.8722300352956913 -1.0778254713744404 -0.34502121830896065
Ni 1.8368483523813366 8.548179921708995 5.998079898878335 0.05865123398430543 0.21106828626786228 -0.5762934903285236
Ni 4.381291081003655 8.08807937514154 1.863243476748879 1.5226376311308099 -0.35950321397521956 -1.8344713069442082
Ni 1.7068543185495053 0.8462283198430579 3.762828161138013 -0.05153159222038867 0.24536783088068065 -0.5798557537584853
Ni 4.154878370679081 2.6932851065852095 0.04109143691632543 -0.9063220918833941 1.038514846700276 0.5189542902874223
Ni 7.226256050724496 4.146254276399964 11.712765733548423 -0.9621937062400331 2.9504041267133316 -0.08900876323024026
Ni 8.50223126837074 2.474324283550358 11.246314802132071 0.7190429376153293 -1.7921748601688425 -0.2204535841375042
Ni 3.660625666507916 8.069593856983388 11.479193257358467 -1.5788110929985841 0.08479601070047332 0.049842891664056095
P 7.397044748433274 2.851021372499379 13.444299660839722 -0.010237104346975917 -2.704556270872439 -1.2629513267449282
P 0.9441290008866785 1.1234487605738284 7.163124331438531 0.1752222231035305 -0.528614953305638 -0.25724092816918276
P 6.518922164925602 0.48464339782715216 10.214341911912374 0.10723917019533788 -0.31321410110069287 0.4074041514215564
P 4.832962901123558 7.471824111772591 13.225772368326343 -1.5179697933414955 1.50915322349113 0.7908661902052185
P 8.696910660910989 2.9876765190645957 5.176953554422456 -1.8357409176852513 -0.23918689888094935 2.0433952931755583
P 2.338822737514387 8.544263261847604 1.8396737433549806 -1.0598015239931942 0.08381102107938469 0.6980010293433656
P 8.520112076574046 5.872710500716568 8.204030183175822 -1.0076767782734968 -0.31050004460363945 1.3866141897139281
P 3.2785699170359477 2.6957597657850427 4.215962449025637 -0.2801977940756723 0.18610544567493756 -1.2581215094564526
Ni 6.560982068092689 4.630543221161275 0.4664109275270289 0.27161262350982257 -0.5427025417469556 2.1085568174745557
Ni 3.21568008173192 2.575413181540531 6.361170083520304 -1.1030173972590358 -1.0821294980664333 0.1319623839736308
Ni 6.7749656630376505 6.364023384184172 5.58511416748364 -1.3182886658646522 0.7940062784960971 -0.40598001738052014
Ni 7.569963885829127 4.576835673940839 6.695475143988578 0.9222734730063278 -2.5165687776834402 -0.35058894220472525
Ni 1.1207973400025786 2.8093708114555733 12.65421819514265 1.2505532101908914 2.498379508368923 0.955823026826999
Ni 5.846735882348396 7.89162306565705 11.346638974610116 2.5889779846837864 -0.05776908848966825 -0.6513056821693557
Ni 5.188923090236385 5.515708349835391 12.612362032714195 -0.8023304820910763 -0.37506584430016693 -1.7939545777770847
Ni 3.3374314537176906 4.982512324572116 3.2903999043987584 -4.259266099947445 -0.9122927076445321 1.5550759541651735
Ni 9.170203187724171 0.766297758011458 5.139945305185855 -0.17716546287283036 0.561340211452801 2.1190109229283443
Ni 8.431145287371026 3.6444752590984795 9.113157641552982 -0.3556416741372843 0.5979313803132734 -0.3449592547227736
Ni 3.0973895113338856 0.4314735773050251 7.659081387359355 -1.774998348389556 1.5350995110432466 -0.3936618621347994
Ni 8.421274560261917 8.576359405604839 10.866449963342664 -0.12675075786570428 0.17219269224858733 0.9955987640630402
Ni 6.5535208775728915 4.408623970962714 3.649840431882478 0.5711230018711777 2.1253864874373845 0.24996419200211142
Ni 6.298882167202101 7.046461826303544 1.0082580264366376 1.1307241191456847 -2.9722664740040616 0.19191279638533398
Ni 0.9173180221348031 3.818082835519849 4.09691552602254 2.178572584542061 0.25520872823050245 -1.1802237685377093
Ni 8.774667057874165 5.723737877532633 4.608123367004593 0.7354879705452301 -1.7266351265948199 -0.2534858320021247
Ni 3.813831259375775 5.013110648287345 9.086306658911786 0.05550086128078183 -1.5572439083507696 1.3035647293909163
Ni 8.729071927278746 8.815452418521037 7.24798095359461 -0.10565562775830192 1.6344381954445852 -2.929216951112755
Ni 1.5389217124736172 3.063628089393306 10.018390767820932 -2.0081796645063736 -0.49782702139050394 4.243040125006886
Ni 5.80527138590608 2.6967831210932443 5.196874560981112 0.9973615123904178 1.544048235596102 -0.4540316214721084
Ni 2.2123825375710378 3.8278233174079137 1.7341751143094666 -0.5508120582279675 -2.0163827691424565 -1.4783048706517057
Ni 8.857763508900138 1.0119402449001484 0.06388528092200564 2.455283191400081 1.2693644293601236 3.343259433786436
Ni 0.5098225900239497 7.856270791373721 8.925348684422795 1.717979507802351 -0.3810027786098922 1.5724093032372986
Ni 0.8738496099344275 7.485713834273909 3.7588798702943698 1.3559653544798196 2.191676211803554 1.5517569170942696
P 2.6679896240124803 7.154481630699264 9.753337091381672 -1.0592690485284917 0.5930619680361141 2.033239949909111
P 1.8981473353426144 5.672411957211284 5.39616184337729 -0.6195553863409523 0.3888826955786012 -1.5024202756426708
P 6.36026487923405 2.6435407353765354 8.685294647839894 0.044703256444645595 -0.36538435534634495 0.05741427625341079
P 1.721395267156043 5.066567008295768 -0.12607923461645623 0.7038955404509297 -0.6113265706732568 1.660595056345611
P 0.17757168275614008 1.655509791768007 2.257596235733401 2.727030540715555 -1.405424637552212 0.6697348354088207
P 4.083894725210186 8.28610793050863 6.591243614879218 -0.013610391694583012 -0.9635692464313211 -1.053238783174012
P 6.226828650274632 0.7652250955838613 3.3689926617456365 0.208216418641364 1.7063565788514419 -1.687533789717984
P 2.279775136231153 3.5229843775547964 8.337727832900336 2.0409748566595236 0.8523299539376545 -4.006462638724326
Ni 3.2890267476397534 4.790809965655726 6.782632454942096 -0.11763876826210708 -0.31169226513952775 0.13149392897764448
Ni 7.461748713601842 1.6112450230732491 6.977739796065775 1.506530184045986 0.6577221272186609 0.05201727360755557
Ni 3.8241671479886112 5.466401230440221 0.9967220211441827 0.9330296830815673 -0.15600194142133778 -0.05763564823559751
Ni 6.358301897688318 5.62046272047494 8.477606548686387 -0.28146843325797977 -0.7644969561830703 -0.8890525061696688
Ni 1.2707281958841925 5.933832722306429 2.3030062320503375 -0.7112825769436202 -0.9570836387069777 -1.795842795938733
Ni 2.559188348290497 7.152704713755023 13.4993226847927 0.030931399471533828 0.7356355518666879 1.1773857848682818
Ni 4.722784747350541 3.405800891535635 2.4127666707930073 0.48190623639518937 0.07392358676234366 0.060905834346437045
Ni 8.496947033688391 0.1264476425274088 3.1001544313120446 -1.1725834783836322 -0.16952825804254676 0.5350725360055236
Ni 7.772820817604915 6.164794712137463 10.405254426595432 0.424748813347591 0.11156607970546593 -0.051394809532208256
Ni 0.7886627231107011 0.8064774783804766 11.82300249767091 0.39916299445868675 -0.581810820602327 -1.330449212486586
Ni 9.452919046459984 1.1921065985240835 9.221746803629266 -0.5980486226174281 -0.3855616016251682 -0.34343484765844723
Ni 4.252971628585246 6.073362566964685 5.0089707109041655 0.7144943990126985 1.9274249137548098 1.2578628564784273
Ni 3.5557689603375464 3.727218187381619 11.618786363981227 0.13185491186148907 0.4338937130716527 -0.49865440238780573
Ni 0.7991483937277379 3.986173596507005 6.652080227305791 0.13793634216887857 0.19377196108125982 0.2960417030864643
Ni 2.202995578425807 0.17018212710791683 10.075906127110887 -1.4349977232236382 0.049850090752907694 -0.12511013693848774
Ni 2.2765655218554297 0.7290048299345756 0.23126155383943509 -0.6250778588210782 0.061364776260726575 0.015569572303482862
Ni 4.258004676055583 0.10041999574781142 9.436297895608774 4.4380495580396735 -2.1533366927934074 0.8377574554401185
Ni 6.156663689052297 8.581839008118754 6.3553834744139275 0.8088870522626714 0.738974900652566 1.6654945505297574
Ni 4.55555918676032 0.5089415741358888 13.151877742167118 0.5285326780044768 -1.010596008802821 -0.5787164979477195
Ni 2.694541042645275 6.7751052114887695 7.746197764100545 0.5691951887208455 2.181340634205501 -2.4805316815542247
Ni 0.2940527749046724 6.7616806504911775 6.7477620879766285 1.3149377471145482 -0.6470445929001566 -2.041956503846503
Ni 8.81204743631375 5.518350467176567 13.267846226338543 0.23706779565541755 0.35495493248290483 0.16626809923403624
Ni 3.7195151128798827 1.2483260178646514 2.6362907281794308 0.39195979184202817 -0.7241861723791657 -2.041502189917903
Ni 5.6085359795193535 2.586511935019481 11.427084005064838 -0.018587276083884118 -1.4886350489331202 -0.33197749775112506
P 5.360400226970681 4.634245906730951 6.282999692818811 1.005721711429655 0.19806698891218794 0.24945717045870588
P 5.591957623526486 5.278969054128054 10.472206052150014 -0.02168674094481426 0.1905061458457945 0.46135900837145705
P 8.301002401858002 7.8555265329677555 4.932801444991711 -0.19096045977439371 1.0616450049598363 1.8381281869705055
P 8.089484162882798 5.225056835845978 1.983583548732339 0.3302828836575215 0.4079086018618007 0.7695445459093069
P 2.9899092942824903 1.6251347455745677 11.623552408748425 0.1137502318409783 -0.24959575291909913 0.8225941174361188
P 8.389066777743789 7.782840396395216 13.083442251415645 -0.0497899269389336 1.031400861363314 -0.8615861824286
P 9.350118354136093 4.730729705834215 11.05666845706216 -0.24901545493559696 -1.1535344321719812 -0.25919830900586976
P 5.0886993926431465 5.82020307017575 2.9728964774451416 1.9776974367571167 2.1470243774221345 -1.2462787511852536
