# total energy = -340886.3085269435 ev
CRYSTAL
PRIMVEC
9.10865573101409 0.00000000000000 0.00000000000000

0.00000000000000 9.10865573101409 0.00000000000000

0.00000000000000 0.00000000000000 13.33143837936973

PRIMCOORD
 96 1
Ni 6.601452782896765 1.6917142161122667 11.172651759492485 0.5017207000179553 1.0663547517306795 0.11126526063559547
Ni 4.483417038452878 0.2770015112765414 6.103585495472196 0.439478663358598 -0.14338605242954014 -2.019159560556645
Ni 2.963865526532475 1.9578782486603026 4.627595219281498 0.2035920324954752 -1.8334541785336036 -0.7548589188726742
Ni 3.079527238496301 4.656982475645405 4.730167792791078 0.7708390963510143 -0.6742556060973097 0.786923917728019
Ni 3.944667370983638 3.1487985662238875 2.3583585203498236 -0.9100126533611037 -1.0374182712019875 0.5860199735876682
Ni 5.654771963253958 4.760229089687772 2.668367067824453 -2.082371160218124 0.2966091455541601 1.029465077793182
Ni 5.4918636534041365 4.730589523556862 11.587646674276536 -0.5862333751500549 -0.039228606483319536 0.0374602017289871
Ni 5.681624280695237 8.09860611008579 12.159871562854477 1.3738108673016727 0.2347592021268989 0.838732160648562
Ni 1.7489985527432717 6.423815776539974 0.22541190628199748 0.7783346333971112 0.46366734478965954 -0.09012230800939318
Ni 2.6408179382107666 1.5385886026436983 0.3085493408077047 0.38541582007592334 1.4724239863908966 -0.0952334039837134
Ni 8.154943146508554 0.20276232264920097 6.672637839218115 -0.2001902059027778 -1.0405514175143304 -0.40432011317959404
Ni 0.14057844003730585 2.2146876916519638 0.993041145314747 -0.3986125212718554 1.8214270721657404 -0.1435868555864366
Ni 7.177220027734173 1.2186652832780136 4.304841840543695 -0.6135775714909626 -0.8487244959745834 1.6767256433588864
Ni 0.7954561826498143 7.795369848234496 2.4238688840775793 -0.24293916683452998 -1.6866598717534629 0.9913451309930088
Ni 7.724750439441337 3.8621611663082294 3.519779545082566 0.490411188542407 0.5206620170071484 0.34505567109132185
Ni 7.608587751405844 3.7728872303374104 12.528459697821763 0.9938707256283401 -0.7624781259808288 0.33207674233315065
Ni 8.563502795935666 7.170370318536127 9.267602803887701 -0.14453816375611234 0.9922447599891426 -0.18130313919028776
Ni 7.084357281359059 1.0700120198310423 0.0655058093998308 -0.09970326682960894 -1.1532863207169168 0.24534469095222908
Ni 1.9730532693038476 6.250642011548932 9.212543711880476 1.3758857475528306 1.012923628494733 0.4738926220620934
Ni 0.2501455503729231 4.844138027363844 1.3783637028068354 -1.655370574721878 0.1024360923797397 -0.17116656497691815
Ni 6.432997301635228 2.595520592676343 6.910911167558147 1.349558165401895 -1.1641050085989757 -0.7826741413127295
Ni 3.5784174279726533 4.566497088446741 0.27788414002825773 0.08282037503134124 -0.91992631293039 0.03376604070685152
Ni 6.161249663052083 6.20396925898139 4.774321091150934 0.26031622466039683 -0.7326448446694801 -0.529508668764501
Ni 5.578814882133597 2.7794334629127277 9.251231816731254 -0.07473991201605193 0.8162069829628524 0.16171210443223763
P 8.99610018814688 5.606286588172571 12.42258068223919 2.692805043873782 -0.5025681356199151 1.5916848636374588
P 4.325281664267654 6.389020711198833 12.87446383147836 -0.01502861219834831 0.07650548855690696 -1.9808460096884273
P 2.490525116711071 8.438049278934738 1.386923106707639 1.265922236447794 0.07049193537297538 -1.7197237441869673
P 6.453692167722944 8.092922308836348 5.7661535178345895 0.46142482861238593 0.8950259501442843 -0.5929750647492626
P 4.859977979884327 1.0757140383921824 12.366255487069028 -0.2598256581772235 0.3332820754951615 0.35202387487903886
P 4.000029781230616 6.100595123757144 8.027112270331179 -1.2893928087659083 0.9228005491543915 1.574373883162837
P 4.69461033295542 1.245053059271021 3.5663730523442263 0.512351183148608 -0.07872177948193539 0.2092703138271751
P 0.34978513669929684 5.74011095989824 3.434431439782436 -1.3550389860108083 -0.08061436851895794 -1.1058003593208117
Ni 0.6257637459240554 0.4253059132045164 4.666309739234236 0.25117132493633515 -0.8024770349712695 -0.1161855807553483
Ni 1.7228749277698703 6.792734555714559 4.6175838956384485 1.2782393632522502 0.9038489477525531 0.9404923100071996
Ni 6.08262374576812 5.892753814606839 9.064991684925586 0.5486140221353841 -1.0018421738695908 1.0249054834469575
Ni 8.849095591408481 2.544202425626083 10.108950216433259 -0.46327679421946016 -2.1052269817703744 -0.6207740892394019
Ni 2.1184000906778255 5.373114107107681 6.890980517696118 1.3198626952199914 0.016914259256835387 -0.48134984967108707
Ni 0.8064885866134769 0.10857153425137986 9.101599372780571 -0.373626283640163 0.28608227788090734 -0.03894218559115229
Ni 1.844174897703897 1.2373198104556729 11.070679446403318 -0.24396632254746375 -0.7687634447689082 0.6342831794694302
Ni 4.132041530442439 6.68862261936659 1.6973989282272943 0.6334845948275348 1.1316553727107026 -0.6297662654356831
Ni 5.435690572786644 7.81244857795037 7.767402631317365 0.47664087423119206 1.4490698850459884 0.9999727247610197
Ni 5.096848575223695 3.318930040161543 4.850510442995431 0.9935840476258566 -0.1969357035212221 -0.4741623307837124
Ni 1.1421981174301385 7.715295654670628 7.067355975217897 -2.0265273137756257 0.1537134024974772 -0.7748664723428526
Ni 5.152256528749916 4.518366950943444 7.394802133448829 0.08753552111882344 -0.9301528757544044 -1.4091175130227669
Ni 1.0567498169156753 7.729505157794236 11.521029608863193 -0.38549886670803285 -1.1144428654871579 0.12178827165410638
Ni 4.678642859253058 0.5810110980093703 10.168421541333482 -0.5181392505852948 -1.4580762023096567 -0.11708520975148222
Ni 8.394072688498342 7.4650899871691045 4.434809607383123 -0.7565085386609551 0.43175301257956605 0.3652439731137387
Ni 7.3485811702113715 6.532682431240844 7.079914079036177 1.4008444743806971 -0.9601969875249786 -0.9163023430245575
Ni 2.4436428650590147 5.339949491163415 2.5800595602391563 -0.9825609570424756 0.21449890921596607 -0.495185984223231
Ni 2.501965588456745 5.172577939947845 11.320444254961776 0.02379967352275901 0.9713242077863916 1.6207946365192216
Ni 1.260410253031535 3.354298950821138 3.7595457821161617 -0.5184184723886104 0.8553849387138946 -1.1432837009782504
Ni 1.5078104545317303 0.9412702780688186 2.497218157028524 1.325114944757866 1.1700589121895655 0.27002342464583173
Ni 1.1707355362033838 3.4861194182601434 8.15008185688223 -0.03747588545827094 -0.16333112809289937 -0.12212405772697033
Ni 3.6934597513387835 2.4575244565720777 6.836068075048054 1.129442424219784 1.603554361381535 -0.5204761262485875
Ni 4.065083801300363 6.8624066642994785 6.009585988847193 -0.6442991689445355 0.2444969982399531 -1.0726704095360622
Ni 0.7556431588017526 0.10511115589454748 0.19784364849102914 -0.0027603363539565363 -1.3948746299505073 -0.6375657068754439
P 0.3408231302099907 5.930955517235307 7.885185749228299 -1.5051471876555305 -2.4585214958317207 -0.562777715230276
P 8.613554859822989 1.9498261968902584 7.800610968809704 -0.1675495370496211 0.03709124842534257 1.2375143747290622
P 2.156282990351597 3.3083639993773217 10.212162217583403 -0.8714268226681056 0.2581775810508392 -1.3983625884991078
P 4.172684352838297 6.1866628128693035 3.849732405402997 0.4671087663710407 1.1262439718871442 -0.7794934295919027
P 7.14921091100014 4.008118267624054 10.3867633089459 -0.7365153833684799 -0.07181733905261825 -0.7265747272160004
P 6.481865240262251 7.72787470839736 10.03018766931157 -1.4344570202288198 2.1145179201539968 -1.0729696859440359
P 2.460384574508496 8.683336272278089 5.671647569944412 -0.2402053128431347 0.08127719891393745 -0.8329901159584623
P 6.921148385866239 3.847186536093351 1.3338770276429257 1.655763696395239 -0.053490258608656256 0.037874920668902516
Ni 5.376211050096159 2.719944831566394 0.431004288303317 -1.5080437924770351 1.1095143178372893 -2.2196441577713903
Ni 1.5702138557495737 1.14961256329079 6.9796878952731625 -0.43749917103472397 0.6068700775638001 -0.6424371760351323
Ni 6.996185492745905 0.535654546211932 9.00406661855195 0.40356240907796304 0.05419088422010668 -0.723902836810792
Ni 3.00998265109326 1.7626251018925774 8.827438851263167 -0.16462002210765198 -0.07155740052301224 1.8176048702061731
Ni 6.31676174435295 1.8402855016566018 2.300553168604287 0.30751010873738005 1.227292697001054 0.3704476288018652
Ni 4.326611528021529 6.840473021016372 10.521891129323484 -0.663890717923218 0.7218197290295182 -0.06516486673310712
Ni 8.505353136999057 7.303402237202978 0.5827626925290303 0.466547494550932 -0.6118477332840495 -1.7165849414476697
Ni 7.77503021972487 4.160105299111565 8.28035658542375 0.3727551938891193 0.3410388366224449 -0.5512974825048182
Ni 3.3472488511944247 8.5018280871857 12.476613228732292 -0.8677650575458024 -0.5864223512324094 0.2540532744698205
Ni 0.2775398328371857 4.768663705003451 10.334198166909983 -0.8618705464382382 1.8690819550395426 -0.7699528370913192
Ni 8.796821015494132 2.3771496773652103 5.585526139762746 0.3515315086236526 1.656169930694722 0.6439263589861491
Ni 3.662982188869815 2.7872942329099546 11.582260726073338 1.370310053237266 0.3597042742424322 0.787285671942812
Ni 1.0200783684697499 3.3436600407901294 12.06472527645815 0.18980243491055054 0.1334076010605896 2.3759430616078565
Ni 3.0471186409874575 8.376529417334197 8.017087283704356 1.152034707698003 0.34068171039334233 1.1337428513673509
Ni 5.877997792132324 8.299379102297687 3.3482307642948896 -0.36368639881863174 0.5520256189200945 0.3602807155711924
Ni 3.2843717998724613 8.339648469803755 3.411914842525027 0.4763038026067475 0.47926031413191006 0.9661028114864523
Ni 3.9904201493104843 4.5559765909417616 9.674664990293325 -0.2309182311142539 -0.6243384095518925 -1.3433962595655573
Ni 7.606283261476183 6.57208647644131 11.290502281456696 -0.7889370915033058 -1.6449344669902188 1.3793868187275533
Ni 7.994976932497789 0.14891286013865257 2.1699714783606727 1.0288603543296475 -0.33720223648517406 0.5236961758477819
Ni 4.621149023537539 0.49486507445691474 1.2477228063002064 0.09727357434219376 -1.6014630260701452 0.41399311749298384
Ni 6.577515235326996 5.712274907625326 0.20624638351123936 -0.7930770818136084 0.9878777412696986 -0.14946645429566519
Ni 8.123755108883406 8.864844457370479 11.082971577470824 0.3039447599836249 1.232801285524109 0.42896542253209996
Ni 0.19170532531474763 5.051815380708878 5.442373593582665 -1.4648006655176837 -0.6826816253774759 1.1129274572838963
Ni 7.178140001974869 6.4198899458692855 2.3995524164245134 1.5426099604876786 0.0481747599330138 1.180294730984961
P 8.83983208841059 2.009196415710562 3.1213159297978947 -1.4187599212085371 -1.2376696693600038 1.2502246232068792
P 1.9705848235689134 3.553632775408976 1.4150788728008337 0.6763340858928932 -1.468406380591071 -0.6816950930944905
P 5.165965055801858 1.1180146361524603 7.903863048045579 -0.8406754004178618 -0.5238640688842139 1.3728343623210164
P 8.863860722538845 1.5509126140066734 12.240886680567492 -0.28692559971780907 -0.018983740191354403 -1.423805968272877
P 6.5902309188914545 8.027868288766602 1.0836030452225391 -1.519012118563081 0.36004803073509606 -0.18453527297434025
P 1.8731586406137168 3.320651576116903 5.895135728111213 -1.4679991178503233 -0.047181028561176806 1.6536397080737002
P 6.929901804136615 4.510387768420188 5.912985960977452 0.41240366151867686 -0.563029940450398 -0.11665660685449586
P 2.554313033617881 8.418766254503534 10.225733203932032 0.8328659316757719 -0.02968878531368435 -0.5525357257872936
