# total energy = -381166.16723925574 ev
CRYSTAL
PRIMVEC
9.27254943999615 0.00000000000000 0.00000000000000
0.00000000000000 9.27254943999615 0.00000000000000
0.00000000000000 0.00000000000000 13.57131338909332
PRIMCOORD
 96 1
Ni 3.929650816686435 4.652659314044801 10.305553172281765 1.0857994907188526 1.0816800692338404 2.5990253416174594
Ni 0.13334667896337438 8.693024371025427 12.74389800828456 -0.30025676960907643 -1.2836597629368731 1.406716874001074
Ni 3.6642055439140915 0.364276740961257 0.21885627537417532 0.42989127678047895 1.08708607074076 0.9403740392617805
Ni 6.509969511650068 7.178983953628779 3.3454913291281745 -0.5547700144344511 -1.0990980075999714 2.1169522406271026
Ni 7.250252768612125 1.2685867612134383 3.4464211752549923 -0.9841056758217762 -0.8817436312130814 -0.31181130721589523
Ni 8.754176834571506 4.684167437036397 1.216916406723041 -1.4547617932244432 3.0047672748452445 1.879228813665557
Ni 0.40921522455939463 3.673255552165945 13.254572541543704 3.2903358463145267 -1.7993142994271012 -2.954961407066711
Ni 0.2126223403867562 7.253711429552639 1.0943759568751479 -0.6877068465062092 -0.7255714827624665 1.0742089576677756
Ni 2.3430990626817008 7.4293149708165735 0.1970555843896133 0.30255353606305313 0.5744150423588882 0.5070415980102364
Ni 1.5971131878150429 1.3486274079654859 13.235884645405605 -0.9536306471613705 1.6393513164754865 0.6184346424729478
Ni 8.192965052363334 5.881763559749642 11.114688817843529 -0.2665118119481475 -0.09491330164013331 -0.507214633252991
Ni 9.137624571496602 9.138811457824714 5.609566943731218 -0.07654945442096495 -0.7443670182024148 -0.7028241617636218
Ni 0.501543853827176 1.7200950110162023 6.977866992585158 -1.316674784410313 -0.4741343057592544 0.1985038193392904
Ni 8.500238795652185 1.3984024533506798 9.423703121279216 0.29212154209645175 0.9690325835387374 -0.7948328881624505
Ni 6.31208403408572 7.850381440813154 6.676882819580357 0.09921090057422269 -2.2318427567201113 -0.6666230292527164
Ni 1.431774358779389 4.946664039087338 10.558712317048265 -0.18779697444474755 -0.985613113605238 -0.5766871262225165
Ni 2.024948618901637 0.9503899546861828 5.5061121823923305 1.419505284014994 -1.9174611176738785 0.04318424869695789
Ni 7.050976408632022 3.069519858233389 0.8686876670747784 -0.23816668514655112 -0.9359851661654655 -0.5106917931683139
Ni 6.456930528862566 0.6053398449853951 1.116228574136565 0.4657211419948946 0.04186398722363758 3.2241713346723118
Ni 3.8163773527472533 0.09378998305926925 10.032648133486251 0.38909712558225246 -0.6836545308137064 0.5649415556508142
Ni 4.576707861595077 6.563453576810612 0.5764363811310383 -0.4445856455678601 0.016473572174990986 0.3864951691830311
Ni 6.35440394972246 0.566165178118151 9.98012655895741 -0.5136976698741734 -2.0732812821017133 0.7822799911981044
Ni 0.36045645059264675 8.417703833101214 8.131103238785219 -2.1905945487036016 1.5086749983031307 -0.9411937069495984
Ni 0.9778181559248943 2.989043401657737 8.667889271262824 0.3869391986989852 1.5862325822736358 1.5658239367102968
P 4.05796435581466 4.251649368483424 0.9559126851316786 0.6045121188545847 0.47864067827004014 -0.13242569676329452
Ni 2.1923830441103633 8.925589183489295 11.925045658166326 1.855112637343644 -0.3369595243467487 -1.1832916088297556
P 5.41700483679944 2.2574485235194364 4.9323713313830275 -1.2955611423601494 -0.16643213561572628 -1.0363867446136796
Ni 2.8437703696067254 4.238992338500043 12.59683908321172 -0.11820981027422867 -0.5308998926850728 -0.2967294731821083
P 4.740702170962166 3.2722177889562527 8.922745292576545 1.6145208876953678 2.9055628020289253 -1.3323070916309314
P 8.662350777483285 6.1365083104701 3.2418066085632162 0.5044599533259893 -1.0165095460737783 -0.6710432698075991
P 8.847041417196825 0.045558817155564875 1.6775497724281092 -0.3474300848607694 2.1923400706397986 -3.4493328658084463
Ni 7.661156524424248 3.809237489679705 12.391640345905325 -1.9477060326013491 0.6976734708006177 0.2914191167127884
Ni 4.894283407309961 8.531153475479725 8.186433468538944 -0.727773889730424 -0.5685375005321887 1.972258268019416
Ni 2.713398324503182 6.464042574281799 11.631484160986945 2.271775331248991 0.9105618409963544 0.6792785132331978
Ni 5.2543365020020385 5.89004394639811 8.303513314022577 -0.9334402882564246 -0.657248530016352 -1.598049372402906
Ni 2.4041495281839578 2.835258169222298 1.5646499922312942 0.008141655270527915 -1.0562174061863614 -0.1972486067759506
Ni 7.640525101923865 3.240941479700616 8.204904387020184 0.04191669483844394 -0.0858715031528392 -0.6299675828132119
Ni 1.8977570582554557 7.114938454657928 3.12113086840738 -1.0602923475866837 0.47977993408080594 -0.36745846426655426
Ni 7.398214840000265 7.864382990465099 11.901919919867021 -0.824354294660335 0.2766805249510332 -0.3521208054682194
Ni 1.5698333473673454 0.8141122228453384 9.631207941630933 -1.0404657997790596 -0.6796271548218683 0.3207088668158412
Ni 8.492950571793623 6.970703948144014 6.488091858505167 1.1367970648126422 0.7787809769059103 -0.19010376820105326
Ni 3.0925250533899953 2.135570133701443 7.331589717775657 0.2885703344100837 -0.45471450647174594 1.1579497876308573
Ni 3.1492637834034083 7.031235150877722 9.47919562064811 0.47521931129331707 0.30865270698225555 -1.1700823092283332
Ni 0.6763573738789608 6.082551345288199 12.490236291338503 -0.4491524390029361 0.2436032827810901 1.9242801974782409
Ni 6.303794374887814 2.7300796409428174 10.748344298357514 -0.2483060875733982 -1.9705176311792258 0.31616624175048125
Ni 0.7558370313899868 4.236933832524723 3.149670848323753 1.250610031570756 -0.600379841853766 0.6029982533132195
Ni 9.265196306669756 1.9921423389886685 4.467513392153836 0.9563035660078434 0.3106028887300909 -0.8134841847150506
Ni 5.043321094432953 8.97723728386104 3.0247065540526687 0.5000268572553 0.18517907720592625 -0.6964228862229683
Ni 1.8246800961316272 3.9146756493434607 6.670884407348673 -1.6414583355161603 -0.004439523828592354 -1.7840226633753533
Ni 2.818669578277046 4.813130054625308 8.48764852802476 -0.09513364518105552 0.29532410819414945 -1.7149119246206208
Ni 7.644567933478996 3.6128912553221277 3.0644162470225074 -0.027752744633236074 -1.0442399221095113 -1.6126686649779773
Ni 7.036761590342993 5.20218768396062 6.8316769053946915 -2.5613252559635247 -0.5088377706787108 -0.032392814508408724
Ni 3.9964780804887994 6.274530208860304 3.262666135779783 2.645457922048386 2.690434743869392 -1.6483121252131998
Ni 9.23899208195691 2.2858596149986155 1.462091886423098 0.09192105178102879 -1.3884383874068604 1.0297396716108072
Ni 2.9084649470382637 5.269506392883219 5.069197998150624 1.5248210119353738 0.27691783777281986 0.26481951184738906
Ni 4.617683257563253 8.326619579968062 12.171065867120218 0.8172886460628053 -1.2732969316453102 -0.6225550923992246
P 9.062377832804193 4.879373147813055 6.976971264309411 1.8616625226470198 -0.6680397070945849 0.8851104908027854
Ni 7.423046727396232 2.6222028007767695 5.450673463810178 -1.1212529464304561 -0.06970003559929931 2.1575967536213425
P 7.501891215270729 5.859518713646981 13.303687381408885 -0.14083706075544133 0.07284166655207455 -0.8939509719125508
Ni 6.976972191564355 7.373920760471725 1.135518258733215 0.14107025981216995 1.5794875502403185 -1.367155566768684
P 6.716589730785364 8.91038220241036 4.92426990493872 0.6368697092496839 0.42984808224736937 -0.9194815120834874
P 1.9532625391935647 2.782265549181988 4.587184915205495 1.0376003053058065 2.074254701758576 -1.0750245115905357
P 3.1827098692276246 8.582523399368318 1.9356085323178436 -0.6976271909437146 -0.8540327955613742 2.2130587912443884
Ni 5.372320421055914 5.6634321106736785 12.100726161590599 0.6077092856356437 -0.07240689300750111 0.17013503838861022
Ni 7.451791630655193 0.6207063139146692 7.077968800047129 -0.06291232325350456 0.5895467557940041 0.18940082859675766
Ni 5.39327638278664 1.5397624695386973 8.121223337358632 0.9822385407060503 0.8558271684576356 0.7118255939312836
Ni 5.605274680596193 7.067972991752562 10.119571793686404 0.4106709950982863 1.1625983421464623 1.2999659562960644
Ni 5.831571249639721 4.365210281455195 4.276605508041865 -0.1872768402752194 0.15029666350644438 -0.16703814463084135
Ni 6.415769681905623 4.7148410305785395 9.962836963274619 -0.10186145082319231 1.2585915071143357 -0.49443419365887104
Ni 0.782924002809366 6.341839645233463 8.649418352781582 0.6869943938202169 -2.981454825371549 -1.0681298413532314
Ni 3.8274395042272342 7.858244562736895 4.808194276559261 -0.6338669178676181 1.5719560177499636 -0.08662535059972823
Ni 3.5051720484965325 1.403585808486731 3.4914514570925697 -0.12202275626241564 0.7398521610511968 0.29969935444370965
Ni 3.6979483513203357 6.991743362819685 6.851816882774841 -1.1028937271969779 -0.8432488175719929 0.9410906057128309
Ni 1.015807790973914 7.766882133120592 10.359322831965011 -1.267146338662882 0.13295765800736456 1.2277956047794016
Ni 7.7289295882693265 6.439423955522916 8.81086271105312 -0.6028576139702972 0.9654062996400598 0.05727158002795943
Ni 1.180061731725278 0.42378332698202464 3.159836344273043 1.1764067087844643 0.04126954817274828 -0.6470859876610534
Ni 4.4040993537997375 3.904401664565741 6.1917625053184295 0.41802177903640264 -0.8454360550312988 1.4780289912824995
Ni 1.9864397210840683 5.1232875607894925 1.120944592780922 -0.09416459639956686 1.1404254055938488 0.15730343384158071
Ni 4.783263172884304 0.5562073872762807 6.297930414622985 -0.6740074946422456 -0.30852543737577187 -2.970236073837594
Ni 8.246736566556468 4.627493614869053 4.862941262953312 0.4442963964622155 1.4462388433550963 0.9026708682840517
Ni 5.157289999580012 3.1513964697742347 12.826927197720599 -0.0984565389067014 0.09133046938488142 0.5811261358304766
Ni 8.911531998540719 1.2790925597271166 11.763655080681533 -0.32520778312745924 2.1642425410726336 -0.8071361310098357
Ni 6.65106989645381 0.6281549528785153 12.679827473430226 -0.33658594305741385 1.1936148451326347 -3.3390597938827913
Ni 5.309730712346887 2.723403405347188 2.292439416080086 -0.3745392823727356 -0.3945684331094688 0.4684339129403675
Ni 6.17044584141455 5.376928878126786 1.9030507567298236 -0.2384281663380539 -2.106644945163824 -0.18553877453819015
Ni 3.665244069451189 4.265827096574698 3.180694944234666 -1.1919446565190632 -3.825779392506224 -0.6291096056882907
Ni 8.558145866894833 8.267052722375945 3.308984374734351 -0.30012204380342505 -0.8758367788103432 2.6398657726725894
Ni 0.8812287901901799 5.865768411968445 5.016201669090539 -1.1530315243936335 1.6326363663491559 0.6049618047974936
P 1.427286444851216 2.670661144141714 10.934162480082763 -1.542066172169067 0.45322866595483885 1.142299225577794
Ni 8.620114314791488 3.7297161056962063 10.38232617261173 0.7621485105555519 -1.1197959022689554 -0.8669554171603133
P 5.235476136444385 5.88474004811936 5.674994052568387 -0.6129509936505573 1.0135327228336417 0.22872353745578028
Ni 2.3836479213757116 9.007465795030141 7.66927093243777 2.298480351344003 0.0146984825524392 -0.7581812983776878
P 8.158860615528992 8.657250875292178 9.63692168659486 -0.5772872217003606 -2.1953893989890836 1.3445877087704972
P 1.6857494878964634 7.826096633834051 5.821496624674927 0.34338753936027955 0.03205008645700931 -0.01259017796018477
P 4.438565420062175 1.2541586742873276 11.982655080572002 0.8380947841748793 0.08080000216720278 -1.473114841810334
Ni 3.299395631360128 2.3015858588460985 9.947053229620618 -0.34676314070073183 0.006822422238472122 1.0910525115876757
