# total energy = -340869.05283127393 ev
CRYSTAL
PRIMVEC
9.30085140115056 0.00000000000000 0.00000000000000

0.00000000000000 9.30085140115056 0.00000000000000

0.00000000000000 0.00000000000000 13.61273617005176

PRIMCOORD
 96 1
Ni 1.3478142822624684 0.5040773144876635 5.470073474093592 0.29488830620831147 -0.25106513837577404 1.3313537265787265
Ni 7.2246130589990925 7.9731362806714134 13.107254630599648 0.6215793587495166 0.09916539204826792 -1.0328013412552663
Ni 3.3362154054332427 4.7770568036286445 11.224817177606072 1.2067714371192506 -0.6766768139442927 -0.8115499438068152
Ni 9.338798896814637 2.0381420765810248 7.263061848696667 -0.2578525936112527 -1.2670190690563985 0.6760615489577969
Ni 0.01594630976474852 5.695320563770876 12.887490392836229 -2.5096357980090325 1.263550650891824 1.1347257841059104
Ni 4.571563792288689 7.42631132295846 9.470557548328404 -0.7544691396334232 0.25957548983963036 0.1746650650484798
Ni 8.616894711914965 9.088829213969852 9.40009801828826 -0.08158418863139498 1.4757571645291876 -0.6749976264696568
Ni 5.012917094864723 6.913546083156564 11.927738324751383 0.01979158080463043 -2.0590885355410986 -0.31665269446859656
Ni 2.0015060228257933 9.044510656939217 9.392992167801081 -0.5948110895167369 -0.41111888126898233 -0.27219215016237636
Ni 5.736616344089035 1.5638916625218078 4.102756236482217 -0.08143506464804039 0.691115615077442 3.647048899139119
Ni 8.08836452895107 2.088245763196773 3.962517998726091 0.2091052490042205 3.5528369944413845 -0.9639109460414561
Ni 7.536070670601386 4.416081459050251 3.605551321111015 0.4344344160664712 0.6675900211516761 0.1376182967078275
Ni 0.8582146730998604 7.76569939138405 13.412410915362853 0.08718199443414662 0.7563576149053878 1.9911589615786611
Ni 1.6159950321935033 4.883737569450555 1.5947184044782283 0.27206410922494434 0.1701473796837844 0.3518552105116585
Ni 6.43444992550596 8.479735055979855 5.457958185029982 -0.012203226934411242 -0.31404431031147206 0.1586000411658172
Ni 5.288650136151241 7.503099152306819 0.7707671379355898 -1.1913023949493742 0.05712965513345645 0.5468453602707357
Ni 1.1428235168993555 5.321426336565924 4.319253085140734 0.8660617017014505 1.2975894856440877 1.3688571228408233
Ni 4.267639870339031 3.178817096801665 9.322832125176758 0.728329505123578 -0.24158188147568715 -0.7870576150924058
Ni 8.56584233845407 4.057468530733303 1.3462238366691341 -0.3751987703336055 0.8356257538090964 1.3665369593480787
Ni 8.478749165729017 3.8591185732862177 5.924262881718521 1.667475071294896 -0.32504734629019505 -1.0653880169420362
Ni 0.4336103437663799 4.176500827244969 11.139533020482792 0.8957278613073153 -0.9022705475218395 -0.6290604976179102
Ni 7.248971988875951 7.336595310132117 1.9397195367376039 0.6209406967242532 -0.3111973277809802 -0.717980557789086
Ni 3.5976344363797494 9.229151159388786 1.5542885334275514 0.3004956250927599 -1.0383137864330634 -2.9914227352175384
Ni 3.678077500337352 0.9846160341939764 8.31323028372001 0.6898768575743345 -1.0827673887607483 0.07525876063399943
P 3.392225132702601 7.676978569659968 13.36416739903171 0.21362756235460628 0.9159989528515257 0.33673121038602655
P 5.924149411331161 4.410928787361905 11.787771671856808 -0.19181458024457287 0.3028258158878333 0.9072592589856827
P 2.873935187155438 7.563108245688072 4.929049457413169 -0.5819311482302751 0.20052084976931916 0.8257799713632681
P 8.55187245961671 2.2877025219631957 9.39872335244794 -0.3530937109044499 -0.6663996003880006 -0.14227405031228402
P 7.525997848510268 6.583607679776751 5.510721915152709 -0.3044731216832692 -0.9473643545366845 -0.05293978542182495
P 5.0573379612610125 7.626912086449912 3.1585905352120482 0.21796398494643104 1.1036925689491897 -1.335813562122293
P 2.692317461418346 7.483641771129886 10.742885190356592 0.1922436973621915 -0.8286351814238762 -1.1684846257239103
P 6.992352197263718 2.2976730346886614 6.07228779228599 0.24714806270955497 -0.08551540536500112 -2.4089220876370385
Ni 6.623629243449958 2.896108416947891 8.061489718764285 1.3066186857258915 1.0038975137367228 2.4374541336384605
Ni 8.277116007729608 0.06855099532814377 1.1461987958807653 0.6989698210145381 0.06553664825022906 0.8502519883627034
Ni 5.687024204301553 0.6349867982665117 9.627253642677546 0.5364200511723536 -1.2082984152867384 -0.9722220370103127
Ni 6.321332970499327 4.5860080145486215 5.710012188678661 -1.2697495806136843 0.8922923532632051 0.6804223970296539
Ni 6.079501532649676 5.083622167382436 9.683610291704982 -0.613094204096641 -0.9661917716558328 -0.2505146651889428
Ni 7.036559144077277 7.162799600441775 9.287575387687557 0.7028763551577959 1.2765388356213756 -1.4168609044136116
Ni 7.928510795543818 5.450298933883134 7.458595508332865 0.6867650514182301 -0.5971101699635587 1.588821683157051
Ni 2.540295044909268 2.4287499337931235 1.6686899360157015 -1.9619067495817628 1.320841771303809 -1.063856153678542
Ni 0.457249387743099 7.770573037529706 10.948819062053998 0.24724602173999996 -0.6104462249508326 0.9499429138971381
Ni 1.2847824121687381 2.8840545135036715 5.140563839964381 0.04450039640522014 0.45689865860725826 -0.1862535412170276
Ni 0.17036090525982459 2.061831345155428 0.563360011372779 0.47375506804296474 -1.4577298747138312 0.10346350520298957
Ni 3.0649653745326146 5.332159519108076 8.89167627610091 0.21159767640877106 0.49763650264625264 -0.8873283243897105
Ni 1.9721432348833545 0.7866734540392193 13.06900301895224 -0.0461045076675464 -2.3100819401386734 1.3459012853755983
Ni 4.893168632793485 9.182219063108285 12.041594697446143 -0.10093431102323262 0.23614708361336106 0.14004130432702336
Ni 5.785631831088291 6.4110024790685545 7.454674269372925 -0.9605137474344492 1.0582220953212162 -1.1744282449018548
Ni 4.256878785242611 9.194347373363888 5.9980986208252185 -0.8406530318203587 0.81041994396743 -0.9218644104933673
Ni 7.645904425055697 6.336288739587524 11.29032214409318 -0.41912838183702006 -1.1000009790302152 1.763683694707685
Ni 3.4046882736094326 5.789008040154844 3.4561108209569635 -0.9837472640410928 -0.2036704511418944 -0.71061846099706
Ni 3.070778406671995 0.6717046995142657 3.4721185163411037 -0.3090548275166806 0.43185559959570147 3.115430383120467
Ni 7.445871013501047 1.4103811097850483 11.233107026479399 1.7122117520806384 -1.384474517663106 -0.21035377669934097
Ni 6.661613920661526 5.515349088735657 13.66664224832966 0.20354678107983654 0.47479739326455 -0.7724786888369664
Ni 4.676198370797537 3.54316865044661 4.344899252854538 -0.2304811435768353 0.13565011723786313 -2.3312436618179526
Ni 8.658469517775814 7.074181088083348 3.653875754849541 -1.4403353333864677 -1.5723879630810598 2.1950610691153876
Ni 2.505640072507137 2.8313186859352117 12.384663112779819 0.020655728577138623 2.249337828181081 0.20945106237941347
P 5.440523739037552 8.686985928238759 7.813451822760062 -1.010070218206338 -0.8415500897133312 -0.5639989892318867
P 3.2481642450116186 1.9403343230166645 5.214385627793943 0.6186896959065473 0.10745951373626009 0.780497702486701
P 4.066285737882315 1.5705417712892593 13.272472165022549 0.7720130620544575 0.08170477336965928 0.5737288149251409
P 0.8020654330591566 3.912551964711403 13.396824548548176 1.2348373421175314 -1.283413708364338 -0.6966267747036583
P 0.16382612705001862 6.875524202539304 1.6973988741031028 0.5149580246438357 -0.5756905666372021 -0.4894387973268087
P 8.67363920644674 5.445815923497243 9.663926899838469 -0.18180604696863528 0.8175465277098823 -0.6557632037200771
P 1.3959647900793848 0.6842534082541892 2.0856480353943265 -0.7080622702341096 -1.0485539761038327 -0.4112214682851176
P 6.675314074807617 8.385452325104815 10.972409741603318 0.12277248994424662 0.4233277646303483 0.5120544778437955
Ni 1.1151627847673273 8.268568525271863 3.7213683132857462 2.1308243706235044 1.0631195326228335 -1.3791790735921217
Ni 4.5999871942374035 1.9413853192274646 2.0223213283104866 2.465695902092973 1.0142989115757048 -0.38701941711761734
Ni 2.4655068986168542 7.188218827380858 1.6873799969502377 -0.7111370525046913 -0.16347408142866685 -0.011254232757580617
Ni 8.292601925348919 0.17693660721589177 4.540418961213602 1.0447258606069945 -3.325679001700512 0.7815472267971378
Ni 0.7503601398283662 4.105572534293104 8.57003423219042 -0.6092257222801701 -0.5382930998253505 1.4817216096427384
Ni 5.7315566809149185 5.710908790755839 2.653244584590286 0.31469685629380645 -0.6386913358394549 -0.02824279689577717
Ni 3.0554599043782997 7.659669685161749 7.378974639641056 -0.4652627143012374 -0.15496887217113312 0.009994135098234401
Ni 3.115413192651014 0.9590200910778562 10.984212522059115 0.6711839091505215 0.5036423425207003 -0.9759565643520804
Ni 4.150960689237387 4.61604976464494 0.019339260363862115 0.049029908844457494 0.20204088595827138 -0.7348649922492506
Ni 2.5229861604110484 2.7514708764686815 7.388747974316354 -0.6600235216583278 0.8118816161146212 -0.29264321892787665
Ni 6.201398491399629 3.6891920177878474 1.4357082582950436 -0.21921508374471277 0.9914433471337699 -0.8548977146648308
Ni 0.5802717495152359 1.515043590848166 11.046776559326268 0.4602516342398912 -0.12817026392105021 -0.09077871064646947
Ni 3.519879318483396 4.788273630444793 5.735984816277413 -1.5318097845483811 0.35319886902374653 2.1419037683661175
Ni 5.459906713403102 2.2832009098744597 11.085531347035662 -1.6365007344005689 2.2015402490818277 2.545086425507159
Ni 4.810074826180325 2.5655189539684673 6.660071839495591 -0.06721737838676166 -0.8935452518336998 -1.0959077827974482
Ni 6.281171894054775 0.9658934202794597 13.608543549830694 -0.12656255311429815 1.1521578635394287 0.5464830918353104
Ni 8.29733605872323 7.768740769799373 7.243159886821714 -0.46367865764356914 0.9549239120514973 0.1641626228552592
Ni 7.936444421807645 3.3375175246324633 12.759571132789878 -1.1446774960019834 0.35222673491846435 -0.6137794030891236
Ni 2.1363683684594204 6.2431035091804 12.44818048731783 1.7370190409323052 -0.8369853531607844 -0.6451517467528178
Ni 0.8956524602477554 7.197956818820749 5.946969050297513 0.569177962329665 -0.07676208465240328 0.01937789030597953
Ni 4.897679545733645 6.5716560856981845 5.003320476366463 0.9093081710949115 0.7595637805475112 1.0794408954906765
Ni 7.140635671500745 0.621617754431079 7.363019959110027 0.4840664772713018 -0.1540353046132702 0.5145402203801268
Ni 6.180341363777937 0.14446919506845277 2.6442469409236673 0.2974311272348233 -3.2059545545539687 -1.7192136373197684
Ni 0.9532535631955908 6.785343147141811 8.685565688226466 -0.3561918902137995 0.02412620362424232 -0.23957950633367772
P 4.24114174463488 4.233226720073899 2.131372881160122 -1.7174552598677648 -0.8445299982772617 0.5846153799306577
P 4.881198437012073 4.490534774691437 7.6660398383013675 -0.3735046704606342 0.3332329674247809 0.21871397573857815
P 0.8736494360363434 8.968959840830115 7.554483566163516 -0.3698904707468146 -0.26867436681710505 -0.6208203690963049
P 0.3600508399469459 3.7592553315573727 3.3166752466786433 -1.0618931164149001 -1.2294153997710118 -1.0750396810991871
P 7.058323136407117 1.9501188187136698 1.9208927532871494 1.5752742834899192 -1.2193970963030611 0.16124982008383842
P 9.141732456863926 0.07315770703796 12.697293561746553 -1.5108216123324882 2.0972077110103235 -1.125443844583352
P 1.424871836302096 4.693014310170337 6.700025506953409 0.09876789949953313 0.6759872440764358 -1.5082949892558928
P 2.3567706446304584 2.861286029220146 10.099017009066248 -1.3110813494829356 0.7660995247835001 -0.040812663140987776
