# total energy = -340891.2410166715 ev
CRYSTAL
PRIMVEC
9.07634071595705 0.00000000000000 0.00000000000000
0.00000000000000 9.07634071595705 0.00000000000000
0.00000000000000 0.00000000000000 13.28414208838439
PRIMCOORD
 96 1
Ni 6.378126055106861 2.277235699815291 11.439134408213127 0.30882548511469393 -1.1687314516273934 1.2039789619757781
Ni 4.774663422195604 0.5587821851446343 6.008922303371868 -1.6125048857066036 -1.101224052804039 -0.7536420157464375
Ni 2.4533439361643894 1.4534579520814086 4.787259567657919 0.9917529079543888 0.3418011687097662 -0.7693861659545718
Ni 3.1487549990204022 3.9977105155339787 4.6618835370024385 0.831791981885303 0.26943335647031663 0.12497438269157185
Ni 5.168876122775432 4.336748141704376 2.8024626538213067 -1.1841333880047606 0.009394039620390274 0.30116205503216514
Ni 7.422486108050872 6.014437087910635 2.6087926060764515 0.018263831306194352 0.13036907134458192 0.11925573504023977
Ni 4.952369094487466 4.819355323230648 11.454530604745568 0.025538253480420534 -1.4978236574109236 0.20900291909840135
Ni 5.623165121679986 7.918145067336771 12.58038802742633 -0.828177010840535 1.5458397802788861 0.726192147065601
Ni 1.814614620254731 6.635503845044056 0.38609935973189363 1.1124538600815872 0.34935121314288226 -0.7435285814615195
Ni 2.5904057553216195 1.6265619196972416 0.34847338984140314 0.014458084406858971 0.0232132048916697 -1.222575751141359
Ni 0.5223815212329681 8.992593189316358 4.530277506170181 0.925323058465929 -0.7106488000143631 0.796227454517132
Ni 8.653982151153402 2.4219488740847352 1.2596063775248756 -0.4674754056818401 0.6814467245291103 0.427270037107548
Ni 6.768091028293432 0.4374623710960924 4.5830291976437145 0.6862824553548568 1.433637352541002 0.4029427732160931
Ni 0.736351712327738 7.147037324011166 2.3684030028101124 -0.08940497022739441 0.7834377589516314 0.6585736765856787
Ni 7.465871016041838 3.848431941950841 3.93439124071863 1.2262246607478557 -0.3049282069428168 -0.4640126439442202
Ni 7.612181626254046 4.127592949289356 12.709137733876839 0.36240624655462744 -0.8126676023510263 0.27470566061284946
Ni 8.175423017527542 -0.463698441187867 7.169225346202529 -0.36784078730663744 0.9534884651565515 -0.2834476684715377
Ni 7.150858463396982 0.6692566798294933 0.5444960250656011 -2.174230505523281 -0.7346485053630702 -1.2903983672122874
Ni 2.142098064861844 6.4807340854076685 9.439738200547337 -1.2137396409069678 -0.526959419980086 -1.5914843175908784
Ni 9.319858801749456 4.866125706259401 1.1519155964970937 -0.9269960752929778 0.42080602664975914 2.1632374968468877
Ni 6.515405706438104 1.6590733716687136 7.063298098150195 0.48149871654412557 1.4859567307700088 -0.16143442529081875
Ni 3.3792032864452137 4.424008080077836 0.610364843950963 0.12802833902654726 0.11015402984928772 -0.9882708629430593
Ni 5.970961416513831 5.618636027728628 4.884047848376339 1.6984812898684232 -1.6076272458993284 1.4206455682670243
Ni 5.5245506812360885 2.9698240207497166 9.3898156044338 -0.44975716246647063 -0.17576395453961344 -1.2579510453168594
P 0.19758104290245085 5.627440078094995 12.478777486955693 0.1866590041855624 1.3574326830539654 -0.9067067289163224
P 4.014964638983942 6.315308701925801 12.801661949788953 -0.7313574933166244 0.07095062017694878 -0.3314100552834292
P 2.1601236772614376 8.645087337381197 1.1991860858920191 1.006729583868879 -0.2533580481750088 0.48089013642584916
P 6.312649334134723 7.974944806710716 6.031478824990936 0.8928700801435462 -1.2022547801958197 0.4868013597039616
P 4.882817096593165 1.1550097210021397 12.696331924947037 -0.18388349832295428 0.004020434013302753 -0.4354188914669276
P 4.107679458048315 6.037191473754432 8.29719574097122 -0.7655014861881849 1.11081195360279 1.038295017379986
P 4.86072528361199 1.0192639712295728 3.481640681543044 -1.1684799977382199 -0.8085810909864785 2.2239060183715376
P 0.4675023355265727 5.424048361950742 3.6079198080866193 -1.8738796335385017 0.0035494079141551774 0.4457899502886065
Ni 1.3094527323775076 1.198675995551205 2.402982045166593 -0.049952420658726876 -0.42305085681987786 1.049580103375502
Ni 2.016227373644543 6.404510977184212 4.726072325245724 1.3716912498555087 0.29818703156424126 -0.30791788569876005
Ni 6.378071597063357 5.691954706965242 9.170282524195168 -1.3007527138634178 0.49201375714283657 0.4206142223539272
Ni 8.720902010278378 2.3343984928125914 10.199245472972681 -0.4227690639134009 0.8843530438114705 -0.3943180076615596
Ni 2.537935430406187 5.067166650192429 7.088085584284783 -0.3020102619650734 0.5691237120529619 -0.23701611648187565
Ni 0.659468754143833 9.349719962270434 9.290862616486123 -1.2722114118906154 -0.32756548472635844 -1.689919002120709
Ni 1.3190191953529211 1.123650964284821 11.401128139652169 0.9773038224085943 0.7820948717704916 1.0683064761404117
Ni 4.252592311810605 6.673542788431114 1.783993770026882 -0.1342213552111366 0.6916167230835767 0.1274423846160902
Ni 5.187655071443488 7.970715231998626 8.18744190772872 1.4784498808700022 -0.3011787672027136 0.006184788654473219
Ni 5.394704552843045 2.805859928101855 4.887594882276521 -0.008430133045224192 -0.12691659401960723 -0.19020301278307888
Ni 1.0109318905735674 7.2617259636291225 6.623897928339444 -0.2575065231257436 0.5129093696449232 1.11318688159287
Ni 5.169711146109149 4.669940604538753 7.192858321814845 1.1491522439438855 -1.1920690979120696 -0.8229869819991633
Ni 8.18971825394716 7.339029156382061 9.380437021708472 0.9272660411249126 -0.38586396335693546 -0.5169580857930001
Ni 4.528694592372352 0.46955449613258887 10.328075051220326 1.011259867639065 -1.099274642387152 0.7457286744366317
Ni 8.104527721226825 7.141591519660835 4.703675547220932 -0.012815149486797284 -0.04843624112451658 0.3746259285492709
Ni 7.509864038851923 6.227295427283879 7.061292226881156 -0.8779962483555072 -0.11188129695303958 0.1990920877425926
Ni 2.3541213809013715 5.133405783773614 2.53081504121813 0.2541566328169042 0.33429766124386945 1.303004228901756
Ni 2.351761532349561 5.194925220251178 11.72201943809321 0.3349458363508296 0.6520034795673287 -0.6890556472246198
Ni 0.9547947240622459 3.249593142907352 3.9024561363742345 -0.34086014495273553 0.4365265227088095 -0.5315706934998522
Ni 3.5167643043345573 2.410240394731525 2.431382822487624 0.3847411626064019 1.1313064740117162 1.1722919152851423
Ni 1.2051201973657626 3.5036671448720127 8.469902164869477 -0.3829609307775275 -0.07126840852768371 -0.13758744346989207
Ni 3.8268302513611974 2.745919774885886 6.7371588595835545 -0.489305614183054 -0.48837924571404273 0.7980089718975869
Ni 4.2529553654339605 7.016310790581486 6.029591853783546 -0.40076144929405816 -0.14024982079340362 0.3734753598845955
Ni 0.953996006090864 7.471915858870704 11.283510564927793 -1.0169384060810809 -0.4768938707822626 1.095323628159204
P 0.3100278263961879 5.643350903138544 8.22421197870215 0.17153294717740136 0.5225497209481645 -0.40497343049287676
P 8.591636767682704 1.6847321864993532 7.87289950952611 0.3765447428385386 -0.41222959783465785 0.7028920388870797
P 1.733889647101668 3.3443592149436836 10.717472753120404 0.782245281305427 -0.9728352451142793 -1.9858434629030188
P 4.156156193106839 5.9535348425927745 3.963111505228213 -2.3393945730598613 -0.23260256079521233 -0.7138727062682996
P 6.946522807832004 4.201174842402903 10.64524686529009 -0.029543003764439444 0.10289786250750665 -1.1828028421187953
P 6.243278863052099 7.9216394584615655 10.192762242893611 -0.039658752042202663 -0.559604716818933 0.7273262606700441
P 2.643810943317192 8.483827994227331 5.593447367340234 -1.2724638942210538 0.47805061009452504 0.6542663074595764
P 6.960491295990601 4.054192582987488 1.752124922968749 1.1532374697568526 -0.9925787462897939 -1.311704070668599
Ni 5.236866990089307 3.1155355924833876 0.5534198831276756 0.5321725887499092 -1.4851013247482487 -0.7294237666290212
Ni 1.679812809902888 1.2653235644586642 7.018423762669415 -1.3563145102891223 -0.2816466107070569 0.571349516059687
Ni 6.974577776576789 0.6975893845961452 9.261664028827768 -0.40022228896113654 0.1252631175765843 -0.42893842594890647
Ni 2.980797316515632 1.8008367352483954 9.227975375482567 -1.6151736907880185 0.5830578056355508 -0.28009854949364665
Ni 6.3862130745671015 1.8674389224529349 2.4107395934636386 1.6359947412984275 1.1717319290166142 0.25724015683823437
Ni 4.116401821349428 6.860415564712698 10.530365807251755 1.2520593624227727 0.9982860810872162 0.20118676548809222
Ni 7.915857829509632 6.989599120243117 0.34199379029856847 1.0312275690102433 0.9427132289179183 0.348402990297
Ni 7.736609179318509 3.7521955027399203 8.37991569378462 -0.28600154524164295 0.2925074646809608 -0.8657341431587026
Ni 3.1971046653107518 8.57101532187612 12.306522157184453 -0.1890773838190679 -0.0716072799243412 0.9219973365268057
Ni 0.11594480515476589 4.895723652903447 10.374011318549421 -0.5446576085907975 0.4624524985459519 0.17275499250996057
Ni 8.591918134240805 2.1058199315480604 5.558350973570472 0.21226050680375058 0.644789992538025 1.7923450671981196
Ni 3.6482078686703634 2.550878292078805 11.43856259875634 0.5992657828539808 0.4695001494213527 0.6101384639024265
Ni 0.9728838708459264 3.451106056550741 12.7084733457461 -0.23165665194217525 -0.992861310527219 -0.4374045544383886
Ni 2.8372640665220925 8.55012158585202 8.143988927183377 0.2175101852384641 -0.4064446157217646 -0.7146103557652724
Ni 5.558940935708424 7.63116933075553 3.908075298829717 -0.26976400033685805 1.1195986986564848 -1.7069553887777056
Ni 3.172961599357621 8.497115756842136 3.3188964490696558 -0.5027871936092566 0.00016635037453519738 0.16535818582525716
Ni 3.456479250176401 4.25727570355189 9.51363776558132 -0.018437380769581152 0.33286092879734286 -0.27625834981195
Ni 6.863183848590782 6.317323649535424 11.639870387102535 1.5343922005635768 -0.967615648586553 -2.168112051330369
Ni 0.30035153969970935 0.1228836675311451 0.2525936508154293 0.6212379162496978 -0.8095491113267025 -0.11408833190668738
Ni 4.409803607064057 0.4343618931526377 1.413964071298755 0.7332225715498211 -1.4662304559856747 -0.6373247945092314
Ni 5.9200976038817466 5.45594262276251 0.44086055301069843 -0.6124573418435904 1.1963196456583072 0.6109213648150382
Ni 8.010424222053118 8.866894948570149 11.238888551715247 -0.1350003994690062 0.25532314232117964 1.2937891380613913
Ni 0.06402541411277508 5.098026208177635 5.864776400388917 0.7705254217653376 -1.5769817530993293 -0.5538284764567881
Ni 8.07581925596 8.727200990643594 2.650279651251326 -0.9497873621558804 -0.6510354592271046 -1.06480000564905
P 8.465639007697227 1.5277931814634174 3.549987341407806 -0.1791830075234914 0.9793977288231457 -1.222547983227217
P 1.7250402150323814 3.2766224851661585 1.5348763576550803 -0.3972722051938771 -0.7490407695290003 0.1902120116441434
P 4.617624577413246 1.0397674246085664 8.151919833585575 1.0322472685240094 1.2932340368888693 -0.2591070348436441
P 8.464495388783659 1.75326763424826 12.279489184389414 -0.9254364441153416 -0.31252607389473275 1.4067698387261967
P 6.229854955328535 7.739940196312794 1.5539393957834116 0.46027605971992347 0.21405873635475392 0.34020014277123345
P 1.6633301754025551 3.2551660160258566 6.198553379556895 0.4470459341828946 -0.12398322242289615 -1.1718882520888203
P 7.055538734585033 3.965335208671265 6.072128123929918 -0.5054865948182907 -0.03355649579920673 0.7794096116288448
P 2.3760316670708668 8.693908973381907 10.26423116391923 1.7570764738038125 -0.8580102921518835 -0.14975904583541952
