# total energy = -381173.7814471909 ev
CRYSTAL
PRIMVEC
9.21131403959041 0.00000000000000 0.00000000000000
0.00000000000000 9.21131403959041 0.00000000000000
0.00000000000000 0.00000000000000 13.48168919083101
PRIMCOORD
 96 1
Ni 0.5569473695693444 2.423865194952273 3.1547157270019035 0.2042090972541838 1.7371573662823823 0.4348918153188639
Ni 8.397420818031012 3.215844770831279 5.744831324671727 1.8225210765608677 -1.5092285568137556 -0.3787751748309541
Ni 5.848281751180315 4.28679820585114 7.694296341453018 0.7884028162663905 -1.0713622322476 -0.27084360655428197
Ni 6.451208316262026 6.024153371485947 0.51674274687265 -0.37162339427752134 -1.1058363547650696 2.6942836853018375
Ni 2.788983263651514 3.066630693560503 1.524482617680002 -0.16983961863537847 1.8641860603998215 0.6531010835068817
Ni 1.077447411467536 8.792540136787103 6.3447393421195315 0.7545922954748487 -0.14501844582664056 0.7087844931121149
Ni 8.870744193582516 5.292010492066659 1.0253611147001227 -0.43462981990672894 1.2790104370903197 0.33439587738463056
Ni 3.8805976762205043 5.930594054068868 1.959482320876109 -0.9224807039211274 -0.05695096346374708 -1.1411000630633703
Ni 4.589896496646551 8.53896187064801 11.748402014778481 -0.8454113724409504 1.2332054629410634 0.18671428290353004
Ni 1.2393823135244675 7.626571996720756 10.529455922738855 -0.9197285950972869 -1.087793638330746 1.173766957168772
Ni 0.07192654622932594 5.598489335140505 6.287105070863558 0.7944582784318511 0.2947597510502472 0.24697091370174243
Ni 3.4894484338459 2.224753429146663 5.648463477582454 -0.40106278258456096 0.782711165198252 0.005266390605261898
Ni 2.398957801598352 8.15113791266718 1.1260260398217934 0.4190967572681363 -0.296760840640676 -0.13888610767665757
Ni 2.9009928432312804 7.886745563762736 8.314251862930213 -0.5145517903443525 -0.0867932436361602 1.8842064693858067
Ni 8.01003900312747 8.137588069611107 1.4123413163084604 -0.2134416715960453 0.1892239366992612 -0.15327245830531666
Ni 3.0073743098897276 3.4089139145806127 7.621495641514636 0.4227744632300396 1.1111829637889636 -0.02346465878084346
Ni 4.801922524834631 9.225131081343399 2.176389424411173 -0.8383236123562335 -0.9336372347585791 0.14233807078100003
Ni 5.790324162799075 6.9200642044700915 6.354540180332761 -0.6490747359563079 1.1144431225974742 0.11067416401881584
Ni 3.1802430417954404 7.026353557987438 6.285662579073905 -1.167968348209124 -1.3607041547163856 -2.333963631852277
Ni 4.240889016326012 3.7115792736128457 9.586735033709607 0.9885685966891363 -0.11667511879725713 -0.08065499194890625
Ni 7.9417002637440595 4.570608004899838 12.099452564568658 0.620318489759222 0.5740620298948437 0.39987339026215
Ni 7.364519321600297 3.4421943924606864 3.686311717877216 0.39571668778129915 0.7734343678820164 -1.2945252448964675
Ni 8.316471789630768 1.0371387009213966 7.299646799716546 0.5794765160421956 0.8130450402951029 1.0515148585043697
Ni 0.8476573640179772 1.2441537742335398 12.108377406810009 2.1415111609133892 -0.21089936479016583 0.6102968438571619
P 1.720166853505215 1.2106706474430422 4.681785802815455 0.2689170789555304 -0.43027334271024603 -1.022197597597491
Ni 6.96701427248967 5.008827062377452 5.68371886120775 -0.1133015743393339 1.0137324975492734 -1.054640548617545
P 5.252346573508231 7.338819755232901 8.719026481136593 -0.8446330995140292 0.9826092937819078 -0.46410366099612976
Ni 1.3114147898660604 1.9100028260018764 6.626775963202021 -0.9187934848775272 0.39691405052351 -0.1412612927770535
P 6.943820183560241 5.624327071219556 2.779506663694963 1.038523331340708 -1.62108697094866 -0.8558821900652874
P 8.151156335295399 1.6618316012454568 1.8502269242152862 0.3709996446505933 0.060728171117992176 -0.116604927680954
P 1.0199135435353635 0.750374833437564 8.776768524767656 -1.4707286009663445 0.09191462402312559 0.19586663882675945
Ni 2.977990217878259 1.1413278748216213 8.096064386733836 -0.6440693123219166 0.21154188347017117 -0.44571924495167103
Ni 8.43246065690613 0.816206253120185 4.969930446284404 -0.09239644875555054 0.23166282258976229 0.9937830510105402
Ni 4.736549828594696 0.5933062686250395 9.303403301863227 1.0526975659585611 -0.7287329112095836 1.1469287539300053
Ni 2.713625502916147 5.873576019726865 4.0433477795761865 -0.2975576255103585 -2.0313892698536176 -0.13624121385464277
Ni 0.9584280218499244 7.358835940794318 4.525479934811253 -0.7820295657501951 -0.35238305799067055 1.1140960236707007
Ni 7.591965089608816 1.972566071438206 12.603559230744965 0.4029872533007834 -0.22995252476687494 -0.15904664178493252
Ni 8.216694835189317 4.211247007519458 9.681106789031203 -0.25838532618627114 0.15810099004221156 1.161284508431045
Ni 1.9879305433739833 5.124963310678578 0.018228269492631503 -0.5387078187652657 0.3301841532961281 1.0728102775480364
Ni 1.7461335479818074 3.9158309526919357 5.121491566390452 -0.20662516289484417 -0.41143641250940105 0.440030679207326
Ni 0.28711113402578625 3.0939422398971814 0.6619674040023074 1.1685111080864714 -0.156176262215673 -0.45027395420188904
Ni 4.732367891988676 7.697324100401033 0.4049643712770493 -0.5591573448688693 -0.5410153838525198 0.18100386278231406
Ni 5.623470419007309 2.013206389292312 3.6460822246324245 -0.6121688640688941 -0.5428825189682457 -0.489857372921466
Ni 4.198443280906311 5.658243129773231 8.020013935177383 -2.0826426687119555 0.7344029650111674 0.7518137042884471
Ni 7.520199741376419 5.98188265103434 7.899366906356502 1.1461065151390262 0.862800000231043 -0.016038027299469154
Ni 6.211732572025615 3.321590656816124 11.031701903464906 -0.5734963871993607 0.3644543873329078 0.34446406025390996
Ni 4.088100949180487 0.5218246288672351 4.448040417086986 0.5171331779182835 -1.661409067606474 -0.25416871700176225
Ni 2.4325054075876205 2.8623698031673035 12.723263021000964 -1.453082348639491 -0.5870011065540148 0.08325463435528242
Ni 5.0435537165728235 2.1948350809168042 7.326085113475579 0.23180449037394915 -1.1708909211725578 -0.5932691989509138
Ni 8.081647759019996 7.9236552994022205 6.443573057996098 0.06523942872478442 -0.3320705716855636 -0.3900090958735606
Ni 5.489547123159428 4.048722581359475 2.0162673089711243 -0.36866276898730055 0.4550412936835453 -0.24028835947524424
Ni 6.618845021753157 9.016909325882821 13.22240939452894 -1.2814475857769025 0.09177167068735809 -0.8518751257884233
Ni 0.8016560613517476 3.5095290986060883 8.261133898982461 -0.6930290300500709 0.8844579448204509 -0.4840119698842825
Ni 2.647488267605068 1.0523465805173007 2.4269196667112083 0.19047632104912357 -0.8340221567674024 1.9839871264205702
Ni 4.0432971173485805 1.8849848968786322 11.291790726417075 0.6241350352918348 -0.010951871025813397 -0.003020531993878669
Ni 0.4564408790503688 0.10063360665369608 3.2084259784469418 0.40500145551733474 -1.4506017483094824 -1.043827517162441
P 7.621330758992063 7.06937960619608 12.73566697658173 0.25531157235695384 -0.24164178817934512 -1.45173689035519
Ni 4.659828793371023 3.00234493238557 13.398952519633204 1.3188429957062255 0.5573159207847563 -0.5179834417337208
P 2.2122536758991513 8.50023750612882 12.433272430184335 0.2862923370091844 0.4763626808691409 -0.2498585196621826
Ni 6.4276365634540795 9.007080853727262 7.940094731694654 0.0730121306916678 -0.43560503933580463 -0.8927217274911399
P 4.235822793565413 5.114766385958611 13.39621583821107 -0.36948577910922814 0.5218876618841334 1.0408892604697235
P 5.664792374105568 3.359476791751286 5.3119741731376475 -0.5954975740608002 -0.572871094910536 0.5292487302348949
P 6.419033196075174 8.921903832150445 5.129863729785193 -0.6439829232556974 -1.0735402137355252 1.8456170391483826
Ni 4.233160723787572 8.924031645709896 6.796767080579714 1.7415832632642199 1.255015359727303 -1.0250420090248218
Ni 0.8413807745833018 0.8289961627621674 0.8550568126426834 -0.6864310651175791 -0.8165970193124195 0.38723256156968794
Ni 2.541843706075435 0.13943442507999942 10.303448040862934 0.7102595349957445 1.384156986422687 0.5092108377474134
Ni 6.968828901369375 0.2126293692622969 3.198005218794097 0.5088452268778786 -0.10258778746625559 -1.9948968313545388
Ni 6.189735953930509 5.653987502654329 9.678976212077519 -1.4398892469879847 -0.9095719662792594 0.8936624941378546
Ni 6.1153361698626005 1.5986880430201857 1.1636818919042016 -0.026284644728141827 0.30923634739986744 0.5278796178015103
Ni 0.6362134908816602 6.863515947147708 8.439200575440546 -0.03481607923792068 -0.6595843772383801 -1.0756821997791925
Ni 6.448702838824056 8.042969451071357 10.33685563487773 -0.40128286901516697 0.9468524478972724 1.0679439505946704
Ni 7.7324376297890325 7.257391738498925 3.8849509432689744 0.5949998084887752 -0.009364214823719358 0.7389129370663791
Ni 7.299330851642567 3.706365669826485 0.7435759624928414 -0.9662048842819554 -1.032822681411505 0.0007373923866567946
Ni 0.5023242768959881 7.188960885974412 13.18344737810571 1.1398795603927079 -0.15490922257779127 0.1812774281586749
Ni 8.440962699829823 8.636528109703017 9.316939327948134 1.1356932902255021 0.8083849158152723 -0.7413611414965555
Ni 5.2986242155977665 6.521149824300608 3.6560046521919083 -0.878369572534526 0.9344329911869972 1.4534603008042002
Ni 8.857645704917843 1.8651253036570883 10.410075449608124 -0.8402761080969142 0.49434317660696153 -1.8775123451950828
Ni 6.641928574913264 2.1325389635896697 8.93935743012641 1.064482217298315 0.20133486103018228 0.6125972098555643
Ni 4.062327692300208 3.6693730323600096 3.693753538546829 -1.7536988155808313 0.6149232868855797 0.27170312634109983
Ni 2.073245734662453 2.6923473673216356 9.92280614449381 0.22396005462886592 -0.5704231475906757 1.35024387861501
Ni 0.5965044368840934 7.060693336990182 2.239604830886503 1.450275218207999 -0.6585695628206206 0.5042822900975444
Ni 8.548200818700519 8.823480940883192 11.939370978910693 -0.39031994224576 0.24893189408285513 -1.755575463778254
Ni 3.546291453219809 6.807934877806893 10.55102605699066 0.14457570186226715 -0.21776138201732173 -0.7040117543138198
Ni 3.956747609969347 4.7198128708565035 5.803583849460677 0.8116931542528989 0.7034995905640916 0.044371584136839705
Ni 2.976737479159275 7.979577187365112 3.5594894240768724 0.14101086732914425 0.7412225590361622 -0.9891517228861159
Ni 3.164896992487884 4.533652212689803 11.506850961473049 2.0717751298698324 0.6888903252913491 -0.503245621302914
Ni 9.1978011123785 5.002968666603379 4.009979794212066 -0.8157069033979824 0.7926222536643769 -0.7771719805475776
Ni 5.469512514969791 5.9587161960472415 11.920644377324702 0.23750719718568128 0.417300584599662 -1.0927468685709631
P 1.9635389836102315 5.3081210804453605 7.422829703311958 -0.001743465053667965 0.8381567477610662 -0.0005391603329216522
Ni 8.235679353570394 6.549225909708431 10.548720465068882 0.7891422655355764 -0.3671345052682322 0.5872903556596595
P 6.178479728087872 1.102317959565017 11.111878102611307 -0.08699147568989535 -0.5119575472546151 0.05984705406461951
Ni 3.4323751316192364 1.0450880649984802 0.20822175546057667 0.33205411662533135 -1.8007068088992537 -0.37539597394607604
P 1.3250475347491242 4.762995511405018 2.3786422483283536 1.3745279479733554 -0.48193143320617 -0.7501687124858564
P 0.7594544257559666 3.6871692912208736 11.573383362159452 -0.7908492209243541 -0.4933047080401181 0.04785517181006597
P 7.974096455469556 3.7197865544850144 7.675624086620275 -1.146212187478955 -0.08333099611917262 0.15780582739929594
Ni 1.4243731347991748 5.1859698440302875 10.206650025404718 -0.7128077553388951 0.6965429567406004 -1.1158474591441685
