# total energy = -340870.30399941135 ev
CRYSTAL
PRIMVEC
9.26422826860975 0.00000000000000 0.00000000000000
0.00000000000000 9.26422826860975 0.00000000000000
0.00000000000000 0.00000000000000 13.55913451365493
PRIMCOORD
 96 1
Ni 8.099149533321926 4.067440830603444 5.107888689487883 -0.2020390861860585 2.959916437079141 1.0464209889212301
Ni 5.079279826609595 3.7464723829232662 10.281999934471566 -1.4539066443129993 -1.3069629564391878 0.8710380718701192
Ni 4.081791119971816 8.682656941886725 6.568315507734573 -1.369224533482571 -1.3492344635138893 1.4585852807355912
Ni 0.0843517235170811 2.699818417616703 11.849219216026817 -0.5776978268752179 -1.3503580355953713 -0.46759521908915597
Ni 3.9783374844801416 3.8966269924020036 13.152292193117457 -0.2612811596768274 -0.5068824467245528 -0.42277472034035574
Ni 3.7289444633074114 0.29972742543111314 10.900283402578644 -0.2582665412202197 -0.15581630777309294 0.6838761599062093
Ni 3.077354242238958 1.0494980833414824 5.325349769153251 -0.8079822810602149 0.2915085911028012 -1.0179843308470922
Ni 7.15938623214207 7.010815805673011 12.33768676108468 1.3446170193465359 0.09905020662664231 -0.8324807804222115
Ni 2.804726536924281 0.8498382180217083 8.69349330952661 0.03263372687462121 -1.317906085714253 0.21905567534871306
Ni 5.674210028454705 2.3775900349112833 0.9014705406406524 1.2335972990628434 1.4782925293565314 -1.1105970093785067
Ni 0.9333246626317487 7.376558267889883 12.666143484359726 -0.6512054091460656 0.3639658777322635 -0.5840006291647942
Ni 5.335973059546222 -0.08326317671218528 8.256007738273196 0.04704630275552543 1.7267747374964777 2.118190483909578
Ni 7.297339853177847 8.323732951571158 6.87900992642216 2.162069444680715 -0.025368303561459537 -0.19951092044756608
Ni 5.38024680576407 7.920803877653418 10.263843900188714 0.7949676139681018 -0.8188050827073318 0.670591269871845
Ni 3.5547306533834453 2.09967245533622 1.6527225486284929 -1.2697230982511227 0.3138098257031628 0.11335505328508864
Ni 1.359275343444519 8.752666713840748 10.034721936580178 1.2075165428153913 -2.3499934316216304 1.076932527246526
Ni 1.5175083598498025 0.5839456065551956 12.203356379669282 -0.31403659700198816 0.3173039548993503 0.549077334925048
Ni 8.561453045304154 0.05486275896674988 11.144482897463506 -0.848121829393578 -0.27309126493787805 0.022695127604670594
Ni 2.6927868684684824 6.6642873525910655 6.483449619556456 -1.265220325284763 -0.1321297627894305 0.014478396121833128
Ni 6.811959148931828 4.474668506372007 8.290027836800332 0.20925025922251703 -0.2694878638573359 -1.0421241613180892
Ni 3.1628074824803116 5.309440310191143 1.8015616377132284 0.9345162949294229 -0.9374717780133209 -0.3759071092545397
Ni 5.77858082253093 4.94849671814394 0.9933438909738606 0.22491341968107073 0.2532408058708542 0.5482196149104429
Ni 8.851275158022121 2.887011411146279 8.681669375168411 1.266332327402019 -0.6554703550700066 1.5010593907394019
Ni 9.194978021525401 5.225070984640622 9.319125163383847 -0.035297646860029536 -0.8883665358462377 0.2861920639858942
P 0.936863597776176 1.5999970470905895 10.035698386224738 -0.20892064379724018 0.6059025714442081 0.13051125334940103
P 2.7703655148020796 3.1822253046340285 5.557970831725272 -0.6483283447085867 -0.12044358470075388 0.3798478390698426
P 4.446959200044828 1.9376596338552128 9.246597374224967 1.378612145345058 0.2356223214581426 0.9368076620667608
P 4.892142418448779 6.645351270299941 5.956066757829273 -0.4257831681493764 0.17006536149293935 -0.37818202133164547
P 4.2906160861774065 4.136653878938566 3.3478317202054106 -0.9872959006242997 -1.9115992595764626 -3.0103033741721252
P 3.5555366412304745 0.3567422645917124 3.1446347725868335 -0.7684847371862249 0.6760319812714422 -1.2714254256542104
P 4.021610694060299 1.2969456166075901 13.050829440250224 -0.7182942323747629 0.3084246501318495 -0.07982606828970767
P 8.717684988434053 3.0469768382112687 3.2491074731724536 2.1907907238748074 -0.03897612415288126 -2.1219905743819587
Ni 7.226394394183019 3.530467639919426 10.527352825758209 2.126230323494919 -0.2898044639275009 1.936145324346943
Ni 4.309811566856081 4.986757980307512 7.299708716309863 -0.04957575404559849 -0.15152847903101646 0.5536212455419884
Ni 7.401201114707099 1.5433092351828654 12.880431565891676 0.18421954150613434 -0.8554949819291975 -0.18203487514998973
Ni 8.293596417474765 1.7645297386220784 6.600790333010163 -1.0967019965639693 -0.1510973050308688 0.6668143193279161
Ni 5.131724622035257 6.104727973733975 12.093812440607065 -0.016659720043868086 -1.2998561701910776 -0.5627522613089792
Ni 2.7414240661340408 3.353298541223019 8.386839947147923 -0.29434451788969956 -0.24484821093178477 1.5477889335854569
Ni 4.754726122644355 8.612044995104462 4.505699964905446 1.5566880358472996 -0.8310620456978138 -1.0743172011108661
Ni 1.505159143756814 1.1186555463078431 3.0448794169633673 -0.09318577742606532 -0.9056816300859176 0.5073236480270295
Ni 9.253398244092832 6.649010640410017 5.54100803002515 -0.6828232931616627 0.17080943874781548 0.5134246187184448
Ni 3.3976464012658814 7.519885141239189 8.896567969333914 -0.45053646383465634 -0.7196332629011606 -0.04362724977164745
Ni 8.57820276975736 6.113584575823169 0.6873056733427896 -0.22024995276713036 -0.12539398672749372 0.3352075746526485
Ni 5.363645308960893 4.5330516720269305 5.020716934929012 1.3209289317009767 0.018478261309845596 2.3076591896297933
Ni 5.878412144825036 6.875947172603449 7.9468326529984 -0.6792625723935979 -1.1327504055470943 0.19304845265167397
Ni 5.400841184889886 1.747326066990661 3.270829308861298 -2.077904125585705 -1.1879057105629993 -0.026038333045290643
Ni 2.6676437533324204 2.544021893208761 11.241321874072662 0.0902907152664574 0.5088274862660657 -0.09701697824669743
Ni 1.9966171816539962 3.4512862821198973 2.8752282393918365 0.005822777329364166 0.2910617333733697 2.0696015192572808
Ni 1.1032213422486392 2.2749979726353993 0.9951337398479532 -0.4614597956153795 -2.2786044383556825 -0.8898233228974224
Ni 6.761756296712845 6.820352539614684 4.892379582688825 1.4031754365067188 0.24369661382584484 0.4667629529958478
Ni 8.725179748988614 5.1038207669174165 11.882126680755928 -0.6766320767492864 -0.9306215878607069 1.0111392829008004
Ni 2.984211692652382 5.005684798370511 10.78654925313469 -0.5608411603291954 0.6761507662374936 0.30107540885562983
Ni 4.36461874045407 2.4836839754190883 6.961218833973518 -0.548171792391643 -0.823914378909439 -0.07703127915338992
Ni 6.011687330656793 0.8073246751479468 6.268496366445005 -0.29229791977331593 1.6388856896929775 -1.6655418588279252
Ni 0.5511057706914105 5.784621099269586 2.811378252719304 0.32459740323697 0.05252429515096115 1.1412067638445638
Ni 7.268852351688019 2.16271552773891 4.3900953678026955 -0.1895278410929252 -3.644457998483491 2.1469171624203094
P 7.426399815211922 9.219231770761292 4.734077084572591 0.9069743807554121 -0.46887280024999894 0.7113208863807233
P 7.636605151408403 5.618670980834701 2.767812293530341 -0.6730821546144989 0.9022438080489623 -0.21956012578895737
P 1.9018904490577422 5.263952950088688 8.23500480668699 -0.3345324029624948 1.5110676669050234 -0.008875962333391165
P 6.3371767216628365 3.069099814978003 6.6519890897527745 1.5826975725371841 0.05856947290377656 -1.1574887888340388
P 7.849200658461589 5.8869074420172876 6.918833137447907 -0.7012485897463858 -0.0767181187883453 0.7998362549143129
P 2.842320774662726 7.436534880782611 11.11496521380598 0.13174538286681825 0.06147610502761026 0.31670205964929327
P 4.714713921364823 5.580817344708706 9.492506119199218 0.4694237876574625 2.317945659157466 -0.664816572171597
P 1.9063372785585933 8.705622963412996 7.08832219102722 -0.3119802286935917 0.2297699764424236 0.9232713181432228
Ni 0.483584370412238 4.131197248571897 6.919660433019628 -0.17671217738549566 0.256317645023965 0.9888269925568454
Ni 6.715796460975924 2.073853051546903 8.750686021867246 -1.2479695086241152 -1.0282882838762615 -1.134215163018079
Ni 6.479188074618141 3.716938023655114 3.058873033548858 0.3735604633992341 2.1322693306001472 -1.8277815536288586
Ni 1.3808517307517734 1.7541538031200925 7.255194100160718 -0.7583484200831714 0.4401962582509128 -1.4915895035757538
Ni 8.00784130090445 3.4501004609196704 0.567990752875267 0.8863255941568091 0.7232412919673932 1.1601215984711957
Ni 6.586745763169976 8.839889421654318 2.8461709878722123 -0.6799989363389902 -2.7330209539710353 1.4088951125993154
Ni 5.504304084609688 6.515003580556245 3.0216938332304926 1.2692564430273496 -0.09896356045010699 -2.420514677570644
Ni 1.465276641671056 4.802548068234758 5.034940304372046 1.0415358929147869 0.5423659843431433 -1.4216398138594935
Ni 6.938943923865506 5.963096454131869 10.030342735944652 -0.26682702919572115 0.4585865878326425 1.276657363477111
Ni 8.994685409424568 8.013473951605528 3.509158062382223 -0.2759382474683699 0.592164138812193 0.03850535516404981
Ni 9.249192284523275 7.190967985826239 8.121405914973685 0.7969507058364016 -0.7289871933122349 -0.5128520340444264
Ni 3.662816402938506 5.9972536632352815 4.111169840207439 -2.665112720164836 1.3130461865187903 1.840662780466901
Ni 0.6680861056709863 0.20334332242297926 5.457579023629496 -0.8358779790292186 -2.1407169471468683 -0.057919240914287344
Ni 3.2477511901746943 6.834591658245533 13.18905172390168 0.10633208500003623 0.26503985538831126 0.2723608145297568
Ni 0.6148742321564272 2.3893463404041584 5.038628393589315 1.1919117463985989 1.556294914173939 -1.1613323309498451
Ni 7.831376283545677 1.046292660409619 2.029937830957561 1.7683569318136385 3.0185794981379885 -0.8204534169440321
Ni 5.088349505945706 0.2713501682559947 1.3130125674478526 -0.8355136537112643 -1.599143376798033 -0.43526153995345684
Ni 9.129591099406635 0.11148386843196127 8.53045771726041 -0.784190835067572 2.652098310183039 -1.4253928531440225
Ni 6.108952461759784 1.071482096686315 10.890114059363885 0.18670425560120102 0.43454420217145806 -1.000861040903244
Ni 2.3274705607454416 9.21533153071992 0.8137540494679273 -0.7844584869066619 0.477176692130004 -0.16409037485642708
Ni 3.5095304843529194 7.677812438116288 1.9873084852322147 1.2842318333902594 -0.2814614912794443 1.189776445223151
Ni 7.444001848652791 8.40867665926554 0.5166141229526219 0.08270724649224466 0.6849043440604076 0.68496527920533
Ni 5.5077318490165945 8.84180711687656 12.579310800550296 -0.4502767824153665 -0.39183689311091874 0.29180169686318774
Ni 1.0990246469072111 4.3946718964973215 0.9940822499555644 -0.3280254550819125 2.303794050247432 -0.48478664326677795
P 7.193293307086059 8.972608753798466 9.283966491219932 -0.5611594629005626 0.08972610101223902 0.567772597341706
P 9.254111589658592 0.4879876580408932 0.4425493983475095 0.16634214700508126 -0.3565163634327537 -1.1098051096048307
P 1.6407225939358838 6.814729153141733 1.2021336531125697 -0.9057957870662788 0.36880237988895836 -0.8545644996951283
P 5.408993705641447 7.044658031020112 0.6908788861312859 -0.37543351205223086 1.5856826233074368 -0.2650825357007886
P 1.3020594705335689 4.230324489528368 12.517304395274993 2.4807659090522183 0.06475271889635299 -1.2437904375457614
P 6.374622731751253 3.8116740204794946 12.838100528312012 -0.5591113221222822 -0.5147978449168876 -1.9672286760153088
P 8.829680242258613 6.857363130981143 10.808663892096108 0.5383190679672794 1.9430847317792537 -0.716860842362346
P 1.657407468792202 7.055673198262845 4.367451741415238 0.6699207261673817 0.016258113730075227 -0.6964974482146457
