# total energy = -340891.4272074363 ev
CRYSTAL
PRIMVEC
9.07643194809140 0.00000000000000 0.00000000000000

0.00000000000000 9.07643194809140 0.00000000000000

0.00000000000000 0.00000000000000 13.28427561583144

PRIMCOORD
 96 1
Ni 6.434845476841498 1.9120956514231946 11.510360003145987 0.5422310014271757 -0.20117596685481481 0.6232356634060169
Ni 4.822571608019494 0.330731572225153 5.676650256949295 -0.5067058119373725 -0.3769643468744605 0.46219410267824274
Ni 2.9044855113894816 1.8695907197511887 4.7665709294111 0.1109479865054928 -1.1317571883958895 -0.6581386459307891
Ni 3.442917618296751 4.413070219540763 4.9772857472041006 -0.4963548077203516 -0.6544786805806986 -1.117901770570036
Ni 5.1199427539451685 4.359600957853855 2.6434509538592184 -1.0892018315321823 0.7218744935268535 1.0008273594518313
Ni 7.256507648413501 6.16036509275157 2.808760919914186 -0.6897354469004637 0.37394227221868503 0.17544745174045914
Ni 5.129064568237366 4.6796087255155925 11.573898658639626 -0.11351960388741096 0.21251658867861464 0.5513021104905087
Ni 5.654989351667372 7.954694037268021 12.336854467184823 -0.07966845966592086 -0.291656172424259 0.5967363315639078
Ni 1.7056612790234287 6.471768402752607 0.2908842198812622 0.3519634539547487 0.28140081324483796 0.7122418555330959
Ni 2.4306503719623893 1.7869134994649827 0.34159696912982057 0.6194178323218236 0.42989384788364027 -0.04215657876339191
Ni 0.9114008560565477 9.012497743606323 4.695925427558464 -0.6936157557914764 -0.20808169283571262 -0.2857634610889078
Ni 8.40211675919233 2.3176760212210996 1.3444220031177405 0.977866894000916 0.5423531288273369 0.08640732105165118
Ni 7.108253205976912 0.5024104707068228 4.743469594349901 -0.2888559839713026 0.35173282600118133 -0.4100001942835068
Ni 0.5173094340507471 7.374837094112399 2.5185928305281022 0.73685142655166 0.2301687545427391 0.06855975134726902
Ni 7.70016365100322 3.882171551302673 3.902946596808557 0.976235014824448 0.9484987252514437 0.34451008300049696
Ni 7.220492365715547 3.9000884283303345 12.757686873536569 1.5256082837233595 -0.2895712648707722 -0.39011425399285715
Ni 8.218010409836154 8.943417018653166 6.733401097160338 -0.3752144540628893 -0.27613390841894375 0.24511817676371978
Ni 6.3474212825504965 0.6850609603490991 0.5547624235983375 2.1530338168410084 0.4717004995067812 0.015047638361741824
Ni 2.1133201517794564 6.6268392457199825 9.27324820881087 -1.2698249139363098 -1.628873042651982 0.4654573468105468
Ni -0.24777389018608234 5.116412021845998 1.5459841467492954 1.336007937521286 -1.9918300195037568 -0.7482858936408467
Ni 6.337228449266775 2.0638989788232163 7.159135684506331 0.4111592475886145 0.3180279775495684 -0.7968262644433953
Ni 3.283934833080681 4.502709063271861 0.4884545486613655 0.4793932401653486 -1.8007764857949244 0.9861018803161985
Ni 5.843733757842765 5.4699662826659115 4.808071100046144 0.9657058331583498 0.8182970327226616 0.2696776112706388
Ni 5.7693433200926565 2.779575652395216 9.367154790930218 -0.40324050696217006 0.2543155269922717 0.5199719329186593
P 0.0023907322234478726 5.610315152715928 12.429299743730992 1.810610441166211 -1.9714779382099659 -0.4930946489118411
P 3.755736851710308 6.215132284233287 12.745598881223781 2.003817530882936 1.7637973374674139 -1.0613886659746559
P 2.344823629726539 8.402198447081513 1.5385977462806473 -0.9573448627881641 -0.22305554053672552 -0.3499770196523392
P 6.451736717038296 7.667397731008357 5.93205379598515 -0.778678389889775 0.947440973410891 -1.0849769948175574
P 4.622699496050831 1.095788574808801 12.653472187445429 -0.3804260801708158 -0.1574355885440708 -0.16899578257784442
P 4.056765799784993 6.23859486129332 8.146223092821371 -0.4643687417320583 -1.8527240825068092 0.8118741599154534
P 4.738160789196163 1.3170629137436365 3.61708255153925 -0.3885821336190469 -1.0086784800651338 0.20269857414692832
P 0.3427932428847577 5.572847640876927 3.839249103752616 -1.5804545421392782 0.14511717618803394 -0.35396608620707426
Ni 1.624218453507112 1.1287995584712154 2.775576576398059 0.08613324145465812 -0.403960158737014 -1.7346328000883158
Ni 2.0379948415197986 6.4220023253753675 4.9136009611531435 -0.65707266656012 0.3109569296354 -1.4477228840997904
Ni 5.9032116176007525 5.379265496375424 9.349725318308021 -0.3218643205765231 0.6480866610114258 -1.1364003435948558
Ni 8.622628677828116 2.272729529305709 10.259791938841232 -0.2590257879837474 0.5481820768042881 -0.5616911670343164
Ni 2.2727386057378407 5.343395436591574 7.127465289869744 0.7347492926069927 -0.7773239327444097 0.17648797718983156
Ni 0.4830431798245408 -0.25439696271246776 8.80485802101949 0.9153813738721849 -0.14372775203967506 0.9020345202516337
Ni 1.3126699205919707 1.1265213740061986 11.50165933530469 0.9591762595699482 -0.5162731439108335 -0.8670541475217068
Ni 4.1746777296058415 7.145865940730017 1.4393378844901161 0.04756463715284067 -0.9574541346725189 0.20009893174055216
Ni 5.665390942890118 7.678280373134075 8.14197259965417 -0.27057415494297915 0.5041203105983834 -0.545496559552325
Ni 5.560558151770821 2.8415949131500353 4.955845399222975 -0.30078024621271426 0.4400008544106551 0.5194466565428086
Ni 0.9513280810031961 7.361957636917743 6.764831873988652 -0.5308410144226794 0.7918378100898685 0.6111422225765927
Ni 4.8454805227195035 4.534703486535542 6.769653274736926 0.6540657614129961 -0.20807217975401582 1.868507313482995
Ni 8.109047842097006 7.0193041710878115 9.534044963819287 1.2881298828930847 -0.7614268018981789 -1.0115156924036128
Ni 4.740066839943787 0.40243084784826033 10.434878129945082 -0.41594381346145143 -0.11017254179204897 -0.47001462716392606
Ni 8.29408906396273 7.385429290409908 4.751002125375868 -0.2843328992899684 -0.9006371256834746 0.0472087964753187
Ni 7.347253816864646 6.221612856775208 7.216935311963196 0.029295149419691486 -0.9381191817893326 -0.05439091604605471
Ni 2.157159318974799 5.464175518965988 2.6419896482860405 0.9481081746812446 -0.5193777509780861 -0.7455967768444578
Ni 2.528793832600741 5.0788446692535505 11.435224390317877 -0.8032218835570941 -0.3478034090397881 -0.6632266019766578
Ni 1.1982524171417661 3.3962284514121044 3.794692898418882 -0.7115679693945228 0.36956754018975707 -0.2374097523758686
Ni 3.380444535935355 2.7024985907341708 2.449447662906811 0.12647539271713057 0.9117291218315782 -0.0361175716581636
Ni 1.2348395150640077 3.324497408276537 8.199732290809658 -0.25785413627314946 -0.41366067385422955 -0.22840214956061952
Ni 3.5394999326084777 2.283476024949454 6.944501663318929 0.8640248737770796 1.0421064207062765 0.76156487013794
Ni 3.9913610298451094 6.9259076844542555 5.976595479027474 2.3631423102987625 0.22226209810115272 0.6395727100031436
Ni 0.8569431709105155 7.457314632891712 11.479687108400658 -0.4599101917400724 -0.40415093459158136 0.19984336408632034
P 0.2610109588067216 5.776486472180179 8.129179368564763 0.8963202434756756 -0.3601624448257733 0.8117949699380858
P 8.675880105143866 1.5814503053032913 8.019039587578154 -0.11032809353330676 0.9723107400693772 0.2861352426060298
P 1.9266542485621863 3.1538514077714366 10.406928164839215 0.2968174049102243 -0.8014583638987681 0.12583415958870586
P 4.076107676657307 6.200791521465453 3.7179235278070952 -0.45617592150862074 -0.38023941808130646 -0.4974285004005046
P 7.160115939176537 4.112476940208391 10.547263420241034 -0.1017740333157086 -1.1745534576258092 -0.29604787373405145
P 6.401035767151508 7.901651367891296 10.218650287275384 -1.5666407761846375 -0.32640026077366363 1.685612404325555
P 2.6073412762670958 8.518885058564603 5.841042595715764 0.3872294762458944 0.9722107241564031 0.39592880379210527
P 6.871558008850588 3.979316604406555 1.6268724022623746 1.3197212845461206 0.2909835718372666 0.9120911331566872
Ni 5.362165498239601 2.872100801544144 0.5231610098459516 -1.8321701696148576 0.32081711025893134 0.030633408615140786
Ni 1.426815131078229 1.0702928769513027 6.809944464612049 -0.03437127839101822 0.44854180200213073 0.4755507264908068
Ni 6.98001229639037 0.46998037870082715 8.896758711637766 0.03708224956427807 0.6772725385467626 0.6124642838221258
Ni 2.6089114990258526 1.3852541483479035 9.159428842238134 0.08245116461738058 0.5350681651301495 0.7154225672539227
Ni 6.544624923472485 2.145949925292346 2.896516403977989 -0.026895281728947226 -0.8248728861679665 -1.228362275916149
Ni 4.298217047348245 6.908735074861379 10.586837571977766 -0.3082192189892627 0.08961091559061342 -0.35222133560182567
Ni 8.27640817417049 7.089192698500677 0.3311381963846461 -0.823250262962879 1.9209310785003495 0.5429118295442844
Ni 7.89908273759807 3.907848777802802 8.392461250690797 -0.07616790271183012 -0.2740263751576377 -0.2958817804698323
Ni 3.081857148104054 8.58930909547323 12.562660668682936 -0.11614932820077416 -0.5781585685617204 -0.10558440820073431
Ni 0.4409984232616039 4.732351872631977 10.157011329026876 -0.7698592489362482 0.7675257157070652 0.5942487892553637
Ni 8.208924901272482 2.4530419300309005 5.851882578610463 2.3150133160020196 -0.948614682004018 -0.5122498816840533
Ni 3.9400065768448513 2.740946357243378 11.403129218657536 -1.0362149949225057 -0.44029498861230626 -0.24051538788438576
Ni 0.6614822049577823 3.2327619087230532 12.480338336893073 0.21986788683736327 1.5417848934832221 0.12166280181983563
Ni 3.2795055342004886 8.335922339657001 8.321708646939008 0.7146936595076983 1.0668638301566142 -1.4794402698077294
Ni 5.5958291670339895 7.914430984332506 3.5030371818064383 0.475736874359684 0.24689249505532318 0.40366679586631127
Ni 3.2007584090272396 8.374941921390496 3.5211038199642704 -0.27386542409974124 -0.22794063654316873 1.5563278242944036
Ni 3.6586371807670837 3.9068322174040695 9.03911256554564 -0.4091874685742243 0.7567736193968838 0.13610674515930754
Ni 7.225765772783972 6.029519247143276 11.582706428380073 -0.7549255104445516 1.0419495834134378 -0.6869699683401846
Ni 0.6678965195451423 0.038914295120768445 0.4419714167861051 -0.35158935844478156 -0.6762140153752613 0.0733700282517188
Ni 4.189327091066148 0.4654666690018119 1.6300999815283508 0.40303687559179624 1.1077004045570018 -0.305200486767597
Ni 5.980161609211956 5.672606706434694 0.5680094762943215 -0.4254849201826672 0.8750556776699446 -0.42691831019508414
Ni 8.134951979400423 -0.08514782511241147 11.025736616487343 -0.2614315692117627 0.15150688176446164 0.8700430549467015
Ni 0.06651118701671854 5.005307416123807 6.045886777206084 -0.03972251540060256 -1.0954760945766682 -0.8014398519560069
Ni 7.980988461153095 9.115279261063893 2.455425401108643 -0.09592605917536383 -0.40210150826172036 -0.3381792556864627
P 8.856954926168108 1.586814476693032 3.651448646518903 -1.564996555712995 1.21899471865832 0.9563274772672434
P 1.4436882184107638 3.5753518395280643 1.3241779288915514 0.8698129412137665 -0.32857310005526635 0.5189087817614676
P 4.837121128726354 1.0968505173681913 8.213654630056228 -1.3757399660035856 -1.3311318403759074 0.8817953103866233
P 8.493725188695972 1.407818158626914 12.62511015232079 -1.4191497004477882 0.2799977622497242 -0.9035954369808502
P 6.517631614313283 7.816950103239757 1.4016770446467135 -1.2911761259185763 -1.239297177661098 0.26389108649584875
P 1.6884977458626849 3.2499980533408492 5.976130765702339 0.31246359608791346 0.6005546768687335 0.524470077899329
P 7.045362607737465 4.1008137249193615 6.379786931888358 -1.9112714439233986 1.2850874965223351 -1.106740354636578
P 2.2969636030969234 8.503654805447878 10.338274939839454 0.9141207619922063 1.107982197463479 -0.28048190097499437
