# total energy = -340852.30696169776 ev
CRYSTAL
PRIMVEC
9.38144286021416 0.00000000000000 0.00000000000000
0.00000000000000 9.38144286021416 0.00000000000000
0.00000000000000 0.00000000000000 13.73068991670065
PRIMCOORD
 96 1
Ni 8.56907570185469 6.721794524569205 4.11795719652858 -0.5535546539701112 0.9014251688024087 -2.26524035834395
Ni 2.997474232817675 6.99612668063286 4.391184218607409 0.6261746914296829 -1.0783245224980462 -1.7951979632658825
Ni 6.822992150157695 7.936550670793894 8.409882933814592 1.2502053399331694 1.689743138664477 -1.3796822384807852
Ni 4.021111622345531 5.743375690277886 6.092251854236561 -0.6986304353972483 0.2998649334872965 -0.08485283208033773
Ni 4.750256134813194 7.114633068547369 10.251909564878504 1.4777024611810163 -0.7487993429421556 -1.6037626207375992
Ni 1.536079950250961 5.599060952683767 3.007804139699615 -0.308871507861281 0.6668513432134386 0.08029683727853913
Ni 4.833263142434124 7.240888528375859 7.487304324518898 0.9280489420375243 0.7176902802421768 1.1705852170066808
Ni 5.028575404149779 1.2628454230177366 4.279622912942195 -2.6369979642064907 1.576279327715666 1.082463227256768
Ni 3.9909596645591767 1.5866271651087331 8.21380889892773 -0.4592144512246285 0.7888810414543898 1.397439562464206
Ni 2.4731735281487235 2.877025886203173 10.197481247053645 0.519899427809511 -0.555833679812275 0.6253341978062585
Ni 4.370720477002127 8.252292516238063 12.074549443992975 0.25190768888172743 0.8861399605085643 2.528871763420509
Ni 6.873173488738658 3.596995347421596 10.339457190909076 3.619791863195379 1.341978039061792 0.21582534133687348
Ni 3.179802577428069 8.864215898481548 8.372164842252664 0.19970838117035283 -1.3337983314644772 -0.607935799824153
Ni 7.892167063983924 4.263565635111727 7.54332561136433 1.96139689982488 0.9146614649870248 1.4688115864492897
Ni 5.734200639028646 -0.06134619388946878 6.270284436099484 0.6496594048151842 -0.20276310883627657 0.5043373117051959
Ni 7.925424279401668 0.6890444725292696 4.896034377514553 -0.10241706621634619 -0.3853937085887363 -0.19882212191065757
Ni 3.717518745580059 4.179789349165197 12.836711945082005 -0.6797156007706164 -0.9650386318879961 -0.18294838810319458
Ni 7.069058018477017 2.6519932130789377 2.3581636040384995 -0.3650639958924487 -1.0690461825199138 -0.2601840699579067
Ni 2.0244403468055614 8.392488800357318 12.727058824922002 0.3661418023376598 1.2833707709415445 0.2582925093621487
Ni 4.484292225901196 0.3853774823641359 10.307505872356256 -1.6747320099676253 0.12882255279306845 0.2537707102323952
Ni 5.6614287857154055 1.2384255269014075 12.072077433763758 0.6493405880231848 -0.5624236743249668 1.1063588029274432
Ni 1.5858485053401372 4.906363346252193 0.6687261432904124 -0.14643486655819296 -1.6438157800047435 -0.41486112192023383
Ni 7.357040174098589 2.3092234303657935 6.417491472569001 -0.6336843695431668 0.44570587521523236 0.5585657340314574
Ni 5.143976534432901 2.303172399633933 0.4393404806164356 -0.6798660103055516 -1.7962852827927902 1.5007210335633767
P 1.8129263330373113 7.2270227556290525 6.333899062905176 0.062307085569337846 -1.7388810338417084 1.1057371101830442
P 6.461966079376025 2.8215815581019417 4.5455173991760285 1.3424223256880623 0.4918031837939272 -0.6350740508018416
P 8.70851208909134 7.347658731103458 10.355164540915828 -1.2751761509458943 0.04480455790920025 -1.7577480459495405
P 0.04560882326513456 8.336903750611159 13.20509306717186 1.4094805527891403 0.1479160790894098 -0.30456568139707546
P 3.6809780251140194 2.077886427548829 2.6090374618928265 3.814176518159973 -2.4916558164918445 -2.851139490083038
P 7.8431865501063385 0.9926223389859495 11.6117703661975 -1.839113176591594 -2.944195941020091 -2.2785563587265663
P 0.9350634336336157 3.2925299964575765 4.513249925994271 -3.308053575309264 -0.054820033163673336 -0.43278582471945465
P 2.174168177007871 6.885697715137159 0.9901090504075536 0.545866541297234 0.9884654954523685 0.602709261317891
Ni 8.552170341577462 0.43515448075200763 0.6883464931704317 -0.4498232398177157 1.7396384808330236 0.89774052086197
Ni 6.432395771055368 6.146543202993691 12.222689934040508 0.4390814279201793 0.08515133715736302 -1.3596919114017876
Ni 2.131613951581951 4.791403143789843 5.458553204657074 -1.2878992549395174 -0.0830844273260053 0.17396186833386815
Ni 2.752665477859701 6.404195153412 8.224985011967831 0.9745658546521411 -0.2293912529467662 -0.07929076461152797
Ni 5.888703623715477 3.5510919468464146 12.479165451507228 1.6010341660628424 1.1496119571891232 -0.5449342592909517
Ni 2.803118878287522 0.406501677556275 3.480304268726645 0.8366205136221979 -0.962539519615226 -0.30999379439118224
Ni 8.788592086497788 4.77982644313385 11.680258652639164 -6.367312039223854 -0.9506471390530145 -1.798598247196683
Ni 2.8549232065066414 1.9691648846782426 5.390188753262946 0.2550500911654511 0.8442973134411653 -0.1293347165427966
Ni 5.967057435610822 3.107340311733668 8.296810277682864 0.08201381996964584 -0.48050164273817886 0.34666775277344813
Ni 2.4919270326959926 3.3474302008650905 3.3411296237495596 -0.4063808523633646 3.4650983561728195 -0.6063345167753041
Ni 6.198394438427786 5.976194961088081 4.558616708030131 -0.11716182862568855 0.8348269120568849 -0.5307230007875764
Ni 2.701095685715459 7.772975830730769 10.394530952012001 -2.162778812042914 0.39028574657371495 0.29902726807734953
Ni 1.2095869711343712 4.060766981885955 12.061175258859116 4.501841969905286 -1.7294422570263115 0.5817385726034949
Ni 9.096838158988847 5.622617756044544 5.946926735231867 1.2106095799184182 -0.9566465511695589 1.4786622539911245
Ni 3.4710963824269223 8.493292405340013 5.899981056339927 0.5336298900217261 2.3701683639076085 0.606734066206568
Ni 2.9088665037286514 6.3810042263280335 12.686306774695447 0.5073071929667973 0.5849005152712443 2.3780140852042724
Ni 8.987544348095556 6.09859464784557 13.461609862987759 1.455747297066164 -1.0432073670799389 0.9594611378002187
Ni 4.397495115310234 6.623730300941088 1.2800791337997945 -1.362909904118453 -1.6617301983913186 -0.1446464071992025
Ni 0.8456470241584119 1.006553781833721 11.793372587120073 0.661235539688558 -0.045791090192185656 0.080592514142087
Ni 0.9293126090775996 6.163082686994108 11.124193320132994 1.4341662284612784 1.9937609179778824 -0.8381395213698856
Ni 6.518376696105754 8.516248796349101 11.06009836344595 1.9558122066482513 -0.19064061454112974 -0.4997561200924167
Ni 8.711936315784563 2.217116423039586 8.473277096709898 -1.1192189467195626 -0.8731224652029737 0.4877791502361986
Ni 1.046312337247091 0.7746632738800437 5.007981260486866 -0.8883197417687023 2.3143396869737627 -0.7937679372330458
Ni 7.578620476200616 7.742148409048766 13.584567745603458 -4.21984928871272 1.3431746304730545 0.915997667299945
P 1.7873056122176054 0.5829197130797354 9.672200181591702 0.39900821404837733 0.7925659465051447 0.5334038900538491
P 3.034530932648447 5.324710033734122 11.037731127056958 0.45445996725877863 -1.7349721857056055 -3.3730227810917968
P 4.311204602641008 5.635451570061885 3.3444938092076137 -1.86419480215057 -0.3043761910940887 0.47304158691570797
P 6.346761959395801 0.2256171370228321 0.7277992135421606 -1.1963839232373397 -0.32532451121098166 0.4409364788510471
P 5.135795916141145 2.6787959957160306 10.45951808392788 -2.7440121628752157 -0.819565100801808 0.26591917266947107
P 0.11029199642797184 3.763525342028187 9.542266257964823 0.41238334980370267 2.5260096113813657 1.6474027260250532
P 5.071795712028353 8.452689520057081 4.113440031726424 -2.251473643577161 -1.7231553955763355 1.6844937173400796
P 8.891909918203178 0.13508715026410617 3.0273428710255765 0.22093952263498726 -0.23969751996878075 -0.11306914661355366
Ni 6.899497817782999 6.105696400192885 9.466926703703814 1.003034137295163 -1.7518165109564539 1.3918666963621191
Ni 6.241201962814573 7.43615388287654 2.3432930787469153 0.9128269828814471 -0.15787524718465068 0.174417467814048
Ni 0.4795484071492726 2.8761252676756404 6.417216596289244 -2.243046081635098 0.5701506106555794 -0.7047866848066313
Ni 6.449394945762547 0.17625292212674612 3.180645969153331 3.8456385933239963 0.5398313908467477 -3.904915119597127
Ni 6.037605886934215 5.078465917997893 6.608965785955349 0.9329916307547803 -0.49480623228630904 1.3743086328736978
Ni 0.2995410315358746 2.123433333290196 2.5737632362311293 0.14706890059776606 0.3204358156601127 0.022618251620148144
Ni 6.008054341499549 4.9502966437983975 2.418139169106379 2.3713968369980707 -0.6125910392079772 -1.6482871855125356
Ni 4.096838630202238 8.763112087323009 0.92671019679075 -0.026230908672070955 2.093714867365717 -0.4169419157086625
Ni 4.552392120602861 3.8328823500911993 4.69741984786461 -0.1893373223486739 1.38768993927661 -1.8842879733560194
Ni 4.755096959398682 4.967183241189635 9.455612683451685 -0.8652736585825163 -1.2824593148708687 -0.21940611670959628
Ni 8.91765259778182 0.2947583718969562 9.990037841400984 -1.8033982396884873 0.25088156161005826 0.907599930154553
Ni 1.69147417202233 3.6164524601935004 8.082666645443076 1.5774139555407414 1.5554600769774696 0.1451824822083306
Ni 0.5203436120136048 8.546213125275553 8.519852208603531 1.1571884839848006 -1.9723443999753194 -2.557828812774492
Ni 1.1733464568441756 8.142088705374245 3.874361462149877 -0.12907863466793254 -0.02130801744915685 0.02445813304236433
Ni 8.525442610484331 4.305566355400934 3.2436695650503293 0.5180204656192433 0.6361847673675173 -0.12981962659901514
Ni 0.5891790118460877 6.028205681053093 8.351554750136657 -2.139294612878045 -0.7857430100460403 0.6032203966263547
Ni 0.3445560094594173 7.780753046973734 1.8548651358027501 -0.8915256503005097 -0.8192100314552343 -1.2723597645430214
Ni 0.15704817017141107 8.438870654525251 5.874456026238771 -2.1938241113844925 -2.816218509836137 1.7640788732635746
Ni 8.310410555592906 2.4305536326218378 12.758831896057915 -0.04483129738207763 3.154151968060381 0.18316127544494906
Ni 4.804227576364189 2.455048580282128 6.402469906045196 2.481968156890435 -2.1619038656371283 -1.888802059176289
Ni 1.1205852214395524 2.340426109767603 13.640973671611691 0.4781495975662345 1.45713492144231 0.8011739998891299
Ni 3.9530492534158475 4.070448631056932 1.4691705606653789 -0.6143797556772839 0.20288575045706994 0.813700928711547
Ni 1.7365520056139403 1.3581702652912746 7.4487625422619965 -0.2561001296965202 -1.9532061364839715 0.9179288228843868
Ni 1.5099901572814984 0.5170347770692217 1.158429024337616 1.2027841703367286 -1.4560218908837892 0.9556060257201865
P 7.444831717647037 7.000310804208689 6.070955978637611 -0.678354972977664 0.2061104280419547 0.9106510582760511
P 8.161902312979963 6.116738358598155 1.857089475936896 -0.6979254389104238 -0.04892269384263187 0.8290496432534754
P 5.770328576002901 0.3760673383357667 8.727364098790058 0.5339499923653063 0.13903420321874765 -1.8642451957725314
P 2.951777223988386 0.9671611026971608 13.235478622888794 0.5514324654207858 0.29052334437139643 -0.07781032341125954
P 5.559949716837061 5.25281065461943 13.847264097920252 -0.6834177322125521 -1.1607520329663428 0.5012774418329496
P 8.660732399917132 3.2969298932222935 0.8357993234464216 0.8666414854643204 0.6738375447232846 2.681976328689394
P 8.777109200271747 0.7220521415633426 6.993521453913112 0.687316553046326 -0.42853630541448134 -0.20869181561588576
P 4.085186878002284 3.9544939956370975 7.467339675680958 -1.6222977034273094 2.622366073225929 1.2388724314188535
