# total energy = -340868.9044944013 ev
CRYSTAL
PRIMVEC
9.29052482301391 0.00000000000000 0.00000000000000
0.00000000000000 9.29052482301391 0.00000000000000
0.00000000000000 0.00000000000000 13.59762217911987
PRIMCOORD
 96 1
Ni 4.177484354819057 0.7413206819102591 13.14241409098831 -0.5900195816653645 -1.3444316428086074 0.4692949753890821
Ni 4.5613781189144165 7.589568846251551 7.664693885704321 0.3420937602495205 0.7216317813884281 -1.3595615564715102
Ni 8.145708935129177 5.170474197611831 7.004325260231915 -1.4196245832016776 -0.385227101103885 0.9835228067351127
Ni 1.1870596096955093 6.747048338743221 0.8193517974359463 0.9859321875075535 1.9285839670599174 0.4892984150942025
Ni 0.25956517768038073 6.988035254521384 11.750276371874719 0.07493608718725804 0.7579355009154689 0.035982331631879964
Ni 6.861777026161569 2.99472625798084 11.272591975493793 -0.3344370150352111 0.1595166394428156 -0.7266947977336323
Ni 1.1750562520030237 5.290164025129086 3.3785605627192083 0.8378155623715634 0.28174354129623735 -0.43289586793475765
Ni 6.217534893167969 6.327627608845954 5.754540674173543 -0.35850948260338256 0.1850114412798104 0.10440247207749116
Ni 8.902858812733287 7.060882257359451 9.23179262086778 1.037158846893014 0.004317653538747403 0.5062293865215862
Ni 4.542100280515107 5.573655090631029 2.142264889225636 -0.3836445871081135 0.14670200417665055 -0.5315879198910329
Ni 3.3823641034617036 8.211420815128365 9.974780022878685 -1.134011788758021 0.2226613904221004 -0.5173496648044638
Ni 9.02265083602037 2.07423966861853 1.1408745541530285 -0.40382389026946586 0.29618697041507697 1.4146680105273508
Ni 6.026187249952461 4.068571535756356 1.04356188401822 1.197740180154918 0.24676445411789114 -1.1989431993240836
Ni 5.290981591287707 3.841892027754065 9.29740137604469 0.7635453909030785 -1.1307737414366978 -0.25034702926282687
Ni 8.629550162115992 1.1154389560953757 3.4191629420717398 -0.24799652675277933 -0.22349905583204732 0.4581968085933915
Ni 0.8723403040915907 8.904837694458132 10.316325718062366 0.025181384361634054 0.7441178783060862 -0.4206291347522626
Ni 4.729062796152556 7.784799928720512 12.0858649827299 1.4882761229318047 0.8205318355904514 -0.0603695022269928
Ni 3.7114716444049045 6.185287482525076 13.46106050131097 0.9604229874928556 0.2548310331761095 1.6853858901370458
Ni 3.111220145059848 0.5680793419508542 7.586208463529128 2.7155328244886006 -2.8260087564536818 0.25991796078071366
Ni 2.164645762817895 7.595431167229848 3.301611793301242 0.4880874255052368 0.13655051756494546 0.8413040351407962
Ni 2.221884684445917 7.768532220268853 6.40413972361102 0.8732065402763477 -0.014735506437961718 -1.32343909971734
Ni 4.283907313307776 5.995342708513564 9.209369939915138 -0.208234416363493 -0.831245879573846 1.1722176104037811
Ni 0.8416704245138554 -0.03359267859480651 5.0106827500142 -1.6963724710555363 -0.20665010259550862 -0.2843010176107684
Ni 4.1946625346746345 4.611974315503641 7.021227511508958 0.8617962415568771 0.23204848806395523 0.32326428624784326
P 7.825204419900558 3.9284797163716862 9.455120107619724 -1.3165611416505842 -0.5117624005246735 -1.8559698431376164
P 9.15090652715409 8.403140079325064 13.552735681161103 1.0156042606506896 0.41894711906414944 -0.1274722094127611
P 5.837004298952393 4.1896735230021385 5.415348268853258 -0.07923522878324418 -0.27742280243369644 0.22216953838734638
P 2.8230466551948923 8.650119383424942 1.4285798015816833 -0.4475028192146551 0.5497553348286791 -0.8909175844028655
P 3.2953676317647713 6.361361503413613 11.340035609265334 0.47337197367193307 0.7575074122391148 -0.48247007931845937
P 0.41734058145504804 6.973021766881248 4.727675720840258 -0.21283129170555604 -0.0818857790322138 -0.6660337324081498
P 7.372514321662122 6.686074626254224 10.784042310675282 0.23609489021918695 -0.34903008235803756 1.1441331934627392
P 2.6317175930284433 3.9180278762756755 8.655335083895965 1.0056944577361453 1.3381787199203599 0.19767952366578215
Ni 0.7016204124895702 3.0431577623546233 12.774108898001483 -0.2853849947035666 0.6417617472346625 0.524822061922109
Ni 8.744139491666393 0.09029925316727194 8.153854867036895 0.22633729661179083 -0.18909358176898403 -0.2566526597658806
Ni 4.371897871129396 0.3215571316578424 2.9616984432774442 0.5530183218506669 0.4662664729754034 -0.052034499998736196
Ni 9.032954027723905 2.012708524657746 9.456710645419225 -1.477809419072526 0.5855466334956754 0.7591369774227378
Ni 7.444506596243446 8.302421502897635 12.270331134426193 -0.7670294927969371 0.20263146835441878 -0.9496037853901647
Ni 1.002893541941527 5.311792366234432 7.915284416688927 -0.4811364481087004 -0.6859348422074509 -2.6654325653981
Ni 7.471198273217527 2.677928662039608 4.972623187225471 -0.19114686475358691 0.6600194078932697 0.03076967708268894
Ni 0.14845143335657235 8.575637248269633 2.092728741485261 -0.19461939668321965 0.7483766535824401 -0.16312775383284164
Ni 2.309596526531643 8.151218216175339 12.344519689006361 -0.16242918510392026 0.44113213980162086 0.618179074818716
Ni 8.1827688374785 6.307346393797427 13.612715307525413 -1.932264244124982 -0.26520080644620775 0.013630446299241043
Ni 6.709003640793741 5.02957410259307 3.531302360303637 0.02291932780033472 1.4716341434997493 -1.5373641387077073
Ni 3.0494009948386407 2.7563778511691353 13.281653969273599 -1.8893247644489786 1.930978692544339 -1.530525518519319
Ni 1.74378500161851 0.9196978238297308 2.7999950057315828 0.5979468069322412 -0.8883894186643733 0.11984991698081296
Ni 9.236518710696085 7.271740002087514 6.887481120378133 -0.8020615447004058 0.6570526119554619 -1.08737429140514
Ni 5.538880657316033 0.8288550749774662 11.265820112164032 1.0680665922154637 -0.11434518511249986 -0.941090862823147
Ni 3.0454803934870704 0.5080820635899379 4.914778523398106 -0.17913364234279472 0.08526729390993701 1.0704870287314983
Ni 7.371037128261885 2.4913935105305294 7.579354843583503 0.38291696491346955 1.5884095353202967 0.6498728063775712
Ni 6.824345502831055 6.062522491388461 8.839351574205018 -1.5182544144614496 -1.3449947144009289 -0.9940838700804104
Ni 5.032472746246364 9.378227081348935 6.040036634869015 0.8300009514231513 -1.8642235985059767 -0.8686405181722202
Ni 1.899206186477329 5.753835523361732 9.788275530100554 0.7894286864277437 1.4370872587628154 2.506844865527457
Ni 3.672497894002445 4.25219875308761 11.112533889842156 -0.01828954233780721 -0.8497585936660526 -0.41642563819387635
Ni 5.6492242171563225 5.013278522567822 12.064394580541562 1.1222909007766673 0.4904482124279295 0.21693631501286512
Ni 5.001665366905588 8.114957298935579 1.1571441207095927 -2.122051766637197 -0.24654256791507217 -1.4148559581684406
Ni 2.7525687361119227 2.656653360866394 6.7243506582644965 -0.4495810418999225 1.2992187937173947 -1.5175296204802833
P 2.281158230945963 4.851093835851318 6.055863972457962 -0.8615980095031419 -0.7782608427363822 -0.8922393885380827
P 4.570111211972417 1.5704795570398493 9.00056540110816 -0.9021394212606142 0.8432678437353864 0.7476968539065962
P 6.2805432305289886 0.8929169578201647 4.210762084632305 0.652463964143515 -0.46494184062670896 -0.21114361959048797
P 6.309074431359967 0.38437036800373736 0.010643224901324836 -1.1717139312944853 -0.4555467725650541 1.6369751029338258
P 1.7626726379875686 7.477051303671292 8.38683613782774 -0.30550799070568674 0.5761147986588143 1.897041930587578
P 3.3202012038328936 2.3498059166965644 3.827349569707588 -0.26319997396609507 0.5036608544634616 -0.9997523812200975
P 8.542172778913338 3.675108531395315 2.6458800686216515 -0.5939173740578739 -0.5770468235547803 1.8551758864814114
P 5.034154331186255 2.7865256032682963 12.673119038257783 0.4335841522510339 0.9193830388324102 -0.7106503426762599
Ni 0.201558858726198 4.754147212382982 1.1030258862711262 -0.38673942398335326 -1.7975839469995556 -0.6421378996271586
Ni 5.19063463584147 2.282105864448001 6.379650830002952 0.26661979828092147 1.1965333043310102 0.5302211214504933
Ni 1.4660354802759756 3.5926922882915684 10.595688074463272 0.3915504722187515 -0.47357277682882953 -0.30314180446635536
Ni 7.864326818695495 8.156820402466801 4.350123668788932 -0.04284126353524235 -0.4271643647676192 0.13829192573608443
Ni 4.096508143017427 5.3964569162743885 4.4023930888459715 -0.3047279180065526 -0.17079478345979618 1.235136618525505
Ni 1.6577361634236158 0.9681005275774719 0.13752113124727705 -0.40419747155880065 -1.4856669674437317 0.15800457367366336
Ni 5.3855962930990655 7.423732983394841 3.6145473181954406 0.5672048977636941 -0.46211696958340415 -0.2545944916852712
Ni 6.291375982130721 0.6245991769802709 8.334308441188773 -0.20194087004529737 -1.246179506603228 0.05747572561896553
Ni 4.396750024246578 2.2993769495488765 1.3629301680968442 0.6116415308105143 -0.08979937745233567 1.4987358848125478
Ni 8.928640018303449 4.886648673226815 11.061040228583357 -1.32034760527621 -0.3525026142876704 0.48885618535046127
Ni 5.7330712010376566 8.045900830105667 9.813920164960127 1.053180933352883 -0.15742530413142564 0.5335021061946102
Ni 3.1888331869816953 1.654317250396654 10.814882206851912 1.247033112852775 -0.6150595553531278 1.537969890612506
Ni 8.498999711423414 5.002715196177454 4.792114798978866 1.3663994053289499 0.22404850057761416 0.2586388369579739
Ni 1.9873082305933063 1.9464577942358294 8.959908207660902 -0.955563088297393 -0.5102199957382181 -0.8576469952751938
Ni 1.8972923384241929 2.9476047175657563 1.81101309522096 0.561340211452801 0.8348137994307622 -0.30214164533661514
Ni 7.969830015255764 1.3535922618919545 12.768778924078742 0.9828198671308171 0.08786950741947448 -0.6978233661149207
Ni 5.367767776526403 3.3711039877316007 3.2776524595913714 -2.1103676454310496 -1.7753372197862134 0.7467193204846753
Ni 6.87749659366597 8.399972010460406 2.1558346293538437 2.2520583124360374 1.2176505459255997 0.23217447211885822
Ni 1.8987509507753695 5.281774681478688 12.620863553987538 -2.411165632255577 -1.8617458263894455 -1.1739258513441395
Ni 6.760519599311412 1.5822971042417393 2.047162434876464 -0.9197548203495322 0.20312049217569536 -0.40561286384908857
Ni 8.379068330268383 6.534666947992274 2.495136662863581 0.16793237431033659 -0.8400364812822824 0.5346639877131953
Ni 0.19590278739246322 3.2805492451397598 6.798022659680807 1.2999258470867483 -1.0436421406245122 -0.6664494797893297
Ni 0.9040925297770462 2.9766190256722833 4.0166012705891765 -0.18350528904792912 -0.3019382710765574 1.1837834608645097
Ni 7.414451749389583 0.5295394590439356 6.170927118759383 0.48065513759690776 -0.5959426320180189 -0.6626547886335877
P 7.610398202247336 0.10458064747446165 10.234521720525132 0.3374742591996382 0.8031532351026878 -0.46137212099757957
P 1.0273926551265773 1.595582554319336 11.278343739230184 0.3113281969318896 -1.160296433486163 -0.012198856059037056
P 5.831495017906228 6.365635144697315 0.2683735239870725 0.9917526508440727 -0.8031149256655845 0.5236074727887176
P 2.4233311278253042 4.960777768449992 1.2554750323328663 1.3427784234759004 0.26769889027771315 0.2525867172266231
P 3.912212007920028 7.5626263251151675 5.050809454510805 -0.1773593240511913 0.3085938287198621 0.7915225928422949
P 6.929811537293205 7.715539068350944 7.281539647361534 0.2984865650825311 0.8940941823586342 0.24596895479978928
P 1.2169936797304854 1.0207685111368385 6.869191793788793 -1.9371822502518896 0.7738038354062932 -0.07300544582344845
P 7.954612136075972 3.719656596515647 12.973613621754144 0.1654440606708441 0.5139311260412182 0.9472694808300332
