# total energy = -381171.5883176805 ev
CRYSTAL
PRIMVEC
9.19178932462713 0.00000000000000 0.00000000000000
0.00000000000000 9.19178932462713 0.00000000000000
0.00000000000000 0.00000000000000 13.45311279690570
PRIMCOORD
 96 1
Ni 0.25416124008380264 6.823248854070152 12.20513418502109 0.3558355353156452 -0.40028785209174933 -0.30739363776417383
Ni 3.6412812766672333 5.691362757590127 13.480152982365716 -0.3095497648752282 0.8254567836958946 -0.8225866612369511
Ni 0.6401483613110716 2.3473990898162995 6.2862093865252895 0.3159155591922559 -2.311394231192194 -0.6068896179478257
Ni 3.9913689465467592 9.337019325849312 11.167670741646782 -0.9705317937920833 0.41751861414773894 0.1063811930704168
Ni 8.012969687307654 4.841159036814622 11.605528966890228 1.605473432781119 0.1695331431385532 1.1186715588565248
Ni 9.121995804398638 0.2701714982662838 5.270081923914084 0.6118276786793915 0.3760786018353975 0.09256125646818898
Ni 4.565543241888857 -0.07507577549491969 4.965530377031465 0.14835085263398323 -0.3779634775629362 1.3568575272767858
Ni 5.059546753060786 6.877241423001083 6.225777969358724 -0.7836596451544504 0.55406810327142 0.9338480652178046
Ni 2.4528932528432463 5.694193828620213 2.623747470330044 -0.5794734307184021 0.1433881093120692 -2.7997613927213783
Ni 0.5976032464738732 1.416684488675453 13.097345300973858 1.1710223045440993 -1.5202454767495497 -1.207123678252347
Ni 2.8911577551630883 1.2600104441695448 0.8837096302523565 -1.7732597684318943 -1.4713983733398595 -0.8167050056451934
Ni 3.2827371608536833 7.471766339319189 3.966071304699346 -0.07995925143346229 -0.1557774841153575 -0.46231263053397803
Ni 5.7900182295573845 6.325495092962265 4.073387280317731 -1.2486775904347334 -0.36041826959032125 -0.29707271545414
Ni 5.41569181193001 1.7576079448634336 3.9381567605069145 -1.1410386136978157 1.7716026924444457 1.203446743621392
Ni 7.111981331982712 3.5621583564497583 4.099687746351451 1.83381901807219 1.4881493675459534 -2.789713007346441
Ni 8.390834943722636 5.623306751399352 0.5654623176722416 0.6870051924534942 0.6952892868391574 0.1481359084096997
Ni 2.7748632399921433 8.286039356664151 9.334240648016861 -0.5294320498902946 -1.5076604409956875 -0.023578301540572295
Ni 7.006211415284004 8.40820742504362 5.410344029055645 0.3147130542437225 -0.35829325282751845 -0.9042176439458814
Ni 6.966429352237857 3.8112466481520526 13.63351890198939 -0.7259718035246787 0.3860624525209867 -1.2771862393973874
Ni 3.463677528474616 1.2904168823757955 8.936781254865402 0.2939349411561067 -0.9138564525872263 2.5465781795613367
Ni 5.093335769640646 1.654163550796582 13.524817723759854 0.8975371466019123 -2.9826506454518635 -0.1294023365559384
Ni 6.436109082494919 2.4521946768747833 2.0057779768387616 -0.5407454180205848 0.6991012043860798 -0.5278420796953555
Ni 1.5424189712097045 0.9009525073476122 10.677681284756796 0.276184302040905 -1.2593348130382636 0.347883113237788
Ni 5.934154673787196 4.481465947368732 11.148244814650079 -0.5785712306191068 -0.36890779511857114 0.018102108917349466
P 0.11808231814286589 7.342584935887917 5.883395776247125 0.20089185995549272 0.036168222390440936 0.09502205930385571
Ni 6.375388123973005 -0.09785486714024333 1.265076958298712 0.1334058012883767 1.687007742011185 -2.4951630583141546
P 5.689671468403321 3.4768677457738812 5.459959468036812 -2.4894968611673125 -0.15399802361743156 1.7950066731906829
Ni 3.635701860708589 4.921835369383021 4.3516778858595835 1.94927929062574 0.7333835226077177 1.7358515029867652
P 0.25286060193199356 6.333087510724769 2.383905199241918 0.6988338096573061 -0.18048372861278594 0.05373065675423649
P 0.08035553913024931 1.271877043844354 9.028154991540339 0.4740348040669126 0.13184848410358582 0.5321291371064836
P 5.910017035718994 8.324019829054789 3.3355108985554267 1.0958725586841385 -1.1063096948570625 1.3256420209059299
Ni 3.614404485459531 4.607770320824623 10.90657245836036 -1.8362487105596053 1.1777346835672686 1.43867620051649
Ni 2.3039678865138407 4.858081120471728 8.353844427013623 0.8189637197723831 -0.45709251978561927 0.6390698022247961
Ni 7.369581220353383 6.799267476415948 10.418224654996264 0.04846452325929072 0.23702177290883047 -0.055647157050659
Ni 5.253162597793696 8.023531052936125 9.224933730888354 -0.19624767631526202 0.6486258213443475 0.16637531423586188
Ni 7.299916651077333 1.9173980058602487 5.639557834455172 0.039397785071332146 -1.158088627201567 -2.345443350357103
Ni 2.9838569478202945 1.8832964684523916 5.261942594702587 1.635046004231913 2.6049777025461522 2.962059965784705
Ni 1.9525933661660932 3.5333696731178423 3.811993021423621 -0.15286570978520125 -1.339566858517138 -0.931921537619053
Ni 7.5762310219715605 7.670897257487333 13.342998621104908 -1.8859679321616034 0.0696432142194349 -1.9887462383721104
Ni 0.19197419120702225 1.4067941236482684 1.816963922710128 0.4320150079917011 0.18209169652985413 2.256879645084081
Ni 1.2736142919764526 0.18756213245883593 7.369063722629377 -0.319908482401733 -0.15233657675460863 0.6232811719319717
Ni 7.695917307305172 0.9525910591006038 7.51315972298733 1.1511654177191721 -0.9282309761413433 1.3377372615075669
Ni 7.994641259924562 6.31518190563838 4.252232839212182 2.074032815555757 -0.4357186820955335 0.3831128829743595
Ni 2.5305822539675606 2.5644448048598907 7.4914459596939125 -0.7064838700033963 0.8381981425219629 0.12886703287775872
Ni 2.269085047035992 0.6111399942206522 3.9161203654175356 -0.05891914293371143 -1.3370983423719875 -3.1202586577470455
Ni 4.614654970829606 6.52763172615261 1.9677193742411254 0.9391005718659956 1.4215182006799647 -0.19564346707235986
Ni 9.615254780656812 8.17705231379489 0.8180765796574615 0.2925285477268833 0.42746389828590897 -0.14406122411969383
Ni 0.8095502761265915 8.237727313371511 3.4909210720657606 -0.9612642524472284 -1.6886262514512143 -0.7751027567233747
Ni 7.444779246642784 0.7756656649405204 3.174921151910503 1.6554790752752844 -0.5846092092830706 1.731180065653025
Ni 4.713080648070396 1.969901504963666 7.111920666174925 1.7916364711668693 -0.8871825428404656 -0.9612652808884927
Ni 2.6732296283698593 6.835372823838607 6.149673632668134 -1.0976000828982067 0.21894588924372616 0.609817333117582
Ni 2.581192244524881 7.923597922289704 1.550121690440913 0.09317497879278791 -0.15694193673710388 0.7786020281258849
Ni 6.794055732019653 5.344161309475039 6.117520754540727 0.5528152047009254 -0.26528822395369156 0.39179678390160266
Ni 4.631264533658715 3.6195610791214743 -0.4213957310392759 -0.11496507808468588 2.9643119950436754 -0.0011971056318947127
Ni 6.917216513617462 5.005508225184562 2.29156264800019 0.5019130185344194 1.157231164297278 -0.23719095149684316
Ni -0.002340229494350497 3.803507161764609 7.914775643151144 3.4136860631391146 -0.449034168257517 -0.33151212807893227
P 5.972144337966893 6.052186437090239 0.13034324556829452 -0.48436498234832703 -0.4133084327211334 -0.21323418357092955
Ni 0.725923379270343 6.61736197094385 8.172106212102394 -0.6680813589657978 0.5517988476212691 -2.7329160529620546
P 2.136282078715584 8.469369589440353 12.724357207833433 -0.25792715560293 -0.055885241203394075 -0.31452022150662606
Ni 9.205944413871944 2.834233005522426 11.017144165663346 1.946780692573602 -0.9914310058385958 2.367086382548175
P 3.6530559584514553 2.3374627658438216 2.4086182433051966 0.26839205968999585 1.5393546867751746 1.8474222106779217
P 7.69219463273639 1.7650165268447633 0.4344508290393781 -0.058095361480835425 -0.7523484937459947 -0.9880682600139498
P 7.864007553822012 5.274000383589818 8.290278609778035 -1.4125373373375931 2.0576178645328436 0.3943362624940048
Ni 2.5831041366490957 2.630625686082685 12.479967758697958 -0.4570102444844581 0.12646330853227253 -2.2764537105612668
Ni 3.6910088554749163 -0.3230426689320499 7.335524722711914 0.5302622591010738 -0.3035130717628451 -1.3418592540957406
Ni 7.5488027234203345 9.151115392136669 9.708613024589528 0.18996698551287283 -0.3656031562253704 0.030887690717791964
Ni 6.027690319248747 1.6875848958140933 9.417743455720816 -0.6908358790534941 -0.46019352730844615 -0.7060912625506679
Ni 4.811772887193889 4.259787570639545 2.4126543578808812 -1.4777271437713646 -1.4149521174266728 -0.37245540326051335
Ni 4.605895195856644 4.334902870827417 7.156046768730223 -0.7682582229977155 1.2910532271874668 -1.0885623981759704
Ni 6.928816551409568 2.131327704412933 11.482553859431405 -0.01771721477410497 -0.005288244982132828 1.8428623592213809
Ni 4.907376685193651 6.73611988558253 11.40745878117946 0.4828284910991426 0.27199571788085414 0.43183091700535303
Ni 8.94814230614198 4.1495872116145325 5.475739931492826 -0.4364025955364355 1.7002052145380655 -0.614834069605883
Ni 1.9653239940124225 3.028611768747209 9.861427436869679 0.613306320107447 0.46689690747055074 -0.5243050130763744
Ni 4.505576010069758 0.2534130284544227 2.427385119026388 -3.257616501704635 0.04551726770550871 -0.8216296966403206
Ni 0.6840869513695721 5.273393725511942 10.0036400396495 -0.9345468910570421 -0.8219893939725844 1.232747035247406
Ni 2.3529601221968264 6.741634959017764 11.110292836805524 0.8276663897527036 0.08564807428812346 1.0028559598460858
Ni 9.672795380164407 7.82132088543331 10.039115749521635 -0.2523900278347847 0.935776135478453 0.12300980276603331
Ni 2.37507556667211 3.8200707656484254 1.0101068407777418 0.5039249067581256 -0.28730123788967293 1.0819420646459754
Ni 4.269301072315322 8.392792794792143 13.457686411548389 0.47526147738516217 -0.3947175570928234 -0.35640734865871526
Ni 0.05661222881266579 4.055408140918872 2.4252057458405654 -0.2773911778648126 0.45497315944977124 1.2746467608049854
Ni 1.2385016577721364 5.777057806984588 4.47036134700689 -0.9074346082212824 1.3181002040029302 0.8461305099951622
Ni 6.147165193434009 9.053801921371983 11.827344301276389 0.8545644996951283 -0.5108673995142299 -0.024920160280447405
Ni 4.464920727063033 3.422516697069661 9.30411915527143 0.1269235359981427 -0.4796668055417094 -1.2359411167046714
Ni 0.12987630268411146 3.4960510095394333 0.26542210085964235 0.4102056254260935 0.6490379691811016 -1.8157984131250535
Ni 8.723154885351654 9.221846208943532 11.701113462132966 -1.1124685153696066 -0.6697911425680529 0.38559142642183913
Ni 6.969692437353704 3.2509335707105067 7.380001032430349 -1.2349617835105375 0.9572073087690355 1.0076261275412195
Ni 7.084350814072196 7.350351997642536 7.720377577169336 1.2092438099191434 -0.08889074959513724 0.17759175177697156
Ni 5.677234977806872 5.633270650739007 9.019074423129227 0.015665988672031082 -0.39434706112728213 -0.1144068915883707
P 4.599139230898484 2.3488789678547537 11.231317446626086 0.1604610056339559 -0.4020454582128044 -0.03368916472232908
Ni 7.7842779755266625 3.4016697194844805 9.60865691447046 -2.7646275251327226 0.8249932137959146 -0.629462103931703
P 3.6884075791712982 6.371343736787168 8.071866994880317 1.0575795766412108 1.824221347081426 -0.017929845005543312
Ni 2.167855874132292 4.422638497392914 6.125875171616198 -0.3482829197793679 -0.72637418116942 -0.042912225982493835
P 1.47486851341716 4.59816490125826 12.023450201665307 0.031978866899441696 0.1640327821456143 0.2408079794241401
P 9.250340755025567 2.4404751458249136 4.066526528964301 -0.6859476977232574 -1.2237381468805764 -0.27074770440636603
P 5.858662510247917 -0.051625683248309365 7.035345709884528 -1.2091419942339565 -0.13554264512572142 0.6098921522195755
Ni 7.697820007640328 7.626905355052291 2.214691716102102 0.5862351749222677 -1.160724522162517 1.33751126153969
