# total energy = -381165.21140946494 ev
CRYSTAL
PRIMVEC
9.30266704646573 0.00000000000000 0.00000000000000
0.00000000000000 9.30266704646573 0.00000000000000
0.00000000000000 0.00000000000000 13.61539355050258
PRIMCOORD
 96 1
Ni 0.6083488406942476 2.6948524012556567 7.857171183285717 -1.0969099988097173 0.5563666694976096 0.41116721800841444
Ni 0.4468415173194212 5.480991874076808 2.019652734750347 0.16533273190396042 -0.05010385863492662 0.30948600151682826
Ni 7.241047173487787 1.9508995135316476 8.590646477133825 1.4260793376880858 -0.340105269064582 1.3941858314135989
Ni 5.89416983021473 3.956247537189947 13.02936009503462 -0.24541745317169347 0.4189080382960979 -0.7364341365085834
Ni 2.165977175265493 2.7741390323524375 10.423931441138347 0.6312580194898612 -0.06017101306294154 -0.7426034985440888
Ni 0.3645408221049172 8.567077239946592 9.008570653990459 0.0641366825789089 0.6387980366206482 1.10012284932006
Ni 7.695538273905986 2.5612102867025244 12.856362117344325 -1.2310452220649506 -0.5153848277686092 -1.4556387965127577
Ni 5.178878459610183 4.803255370272414 1.4077632989844773 -1.15781146228078 1.0988591521162883 1.0471216145326805
Ni 7.933937721884069 0.9598770921575859 0.8321812423700361 0.8088777962912909 -1.1358822663078567 0.6702724530798456
Ni 7.168839872000845 7.3615539221945445 11.237192919302746 -0.17736215226466873 -0.4718334255402197 -0.6617929548539248
Ni 5.7102281950303295 5.718535476688129 3.630367668995051 -0.8792499182569503 1.4223499525526406 -0.24376757627309628
Ni 6.039179803878535 4.5626139795400995 5.448431609205067 1.3526062081995995 1.0959280945124223 3.0584064003269393
Ni 6.268909166184647 4.490583428726727 10.661533650551956 -0.34265683184184215 -0.11627814046915458 -0.45782374152468897
Ni 0.418656296751895 7.375945148089971 11.226667881824993 0.3608967518886365 0.3688743707774744 0.17859191090671178
Ni 8.50428423749402 6.140355610496931 9.368793178060047 -0.0037612668146451357 -0.004664752465520999 0.5278137975605812
Ni 4.693474596651259 3.5624098258074173 4.014172453985714 -2.3366211240797825 0.9458052375796809 -1.5564661496444807
Ni 5.00105797933153 1.5936026782429995 3.16542967350215 -0.8268693477727048 -0.7190807328318003 -0.6263577539747665
Ni 4.531868665005914 8.437937616235983 -0.22078949929027208 -0.06294677603586578 1.2025360588816645 -0.2822690747824042
Ni 0.3054921431319248 2.6435667979192083 11.652938411540951 0.5608079930984148 1.9265329980681594 1.1991797408149218
Ni 0.40525859569527367 3.469076167495321 3.5565584482455406 -1.0104489417019953 -0.1254448945700872 -0.1529101898698915
Ni 3.0615449302446156 5.006676790217655 -0.1954843844352372 0.521218917951883 -0.24957132743906693 0.6945372391644813
Ni 2.849676688636124 0.8149601451640804 0.39600895386733415 -0.12238219648436342 -1.6543035669099446 -0.31774978418751726
Ni 7.370000743857795 4.546976196262651 2.6720069115633565 1.128953143288191 0.7420784792785542 0.9134854424010526
Ni 6.498052460467869 2.778408956519212 1.453919411720578 -4.2507894299350015 0.3669427009724003 -2.0231031185854254
P 0.6021281472512795 8.67212295604947 13.44522838247762 -0.6432241907128018 0.08745890224461711 -0.2827467857497711
Ni 9.060155803205275 7.251261501886739 7.40831284775419 -0.6285951279457175 -0.5144785139042559 -2.447845247064797
P 2.511701492768808 7.895275837707344 10.387156137835309 -0.16169179271726347 0.0332955288283362 -0.19667576499161613
Ni 7.7534008628326525 3.754640137315557 7.151866225737887 0.29957002795469695 0.9998063743864847 -0.41312665572763047
P 4.112857936640176 6.7881096184636 0.9512051459522101 0.6985805559959195 -1.7953923386648754 0.43320877118948614
P 0.9625004442600489 4.240360290953501 13.220125236485533 0.6589665411487232 -0.20582375003947134 -0.44865158810711764
P 5.621620291569479 6.344363098465063 9.816902648895656 1.0333597848618978 0.16364788800236976 0.7761468817171729
Ni 2.672070169699161 0.46162345523010806 9.301397215961025 0.2025131976089996 0.8839396104231356 0.4427928153334954
Ni 5.838381736035756 7.565617226164858 2.102856718933465 0.4027771941725063 0.32566878192427784 -0.6210335135483755
Ni 2.9328518345514483 7.047374948589996 12.271091333018127 -0.10671903602580976 1.0762095330375723 0.07765220056684045
Ni 2.470593007163191 4.446758564348347 2.078594433052494 0.5964067161386309 -0.9275357498465316 0.6718559955168817
Ni 2.115454390625505 7.09426969308828 8.392801075806373 -1.282227915586353 -0.8221369752940421 0.13220303922952714
Ni 8.213492168802917 4.978201326438794 11.917050431189983 0.1438071991273588 -0.16248137849809438 0.1426563733523672
Ni 3.685800401293478 8.843664136082868 2.2312772464826525 -0.501760037896323 -0.6022228085997758 1.5505394997474007
Ni 0.5768583825309587 4.882662936040584 6.806403313178116 0.6269372806273203 -0.012543383882649367 0.8138788490503079
Ni 3.5601957910542747 5.352670885064841 8.240145240110602 0.31992493746196515 0.45606022186636297 0.316647552262274
Ni 1.7520364004311104 5.252313713145086 11.375933825655029 -0.7699227551843321 -1.174240554371081 -0.985573004395922
Ni 8.526954837046155 7.34841855634817 2.1123463695707785 -2.283360979204061 0.3749743130276252 -3.0692240597677336
Ni 1.4909477475668322 0.6700952931059431 11.77129717443048 1.0645166700806763 -1.3852314504337886 -0.010444849482407818
Ni 7.584073717552399 0.2792260627726898 3.2242476463327985 0.08728149612648839 -0.03504696430180416 -0.8211751256014053
Ni 5.681873665922857 1.8876599830616354 11.317169808293155 0.18019190840398 4.299775630025717 -2.7634682147172986
Ni 5.9290641342443 0.5547729207350104 4.916396267224809 0.6209808059335693 0.19984516385853324 1.1847553378594757
Ni 8.456542950296004 3.7725477713483273 9.653926434396793 0.6892014287738647 0.3929023582609556 -0.25517916054414763
Ni 4.672831978511665 8.831328799601073 6.632589491589289 0.8383110139507433 0.4588892066747258 0.3488102530377477
Ni 2.124794268323636 9.102548056861034 7.1318924693577515 -0.07418532506416256 -0.8309985394497302 -1.7193547908833227
Ni 0.17327519716778986 1.402023553426961 9.660530397721397 1.1257881152966485 -0.3668449990522714 -0.5082438458484537
Ni 0.9201602855396586 8.917006362947472 2.0287888840405204 -0.6112360678419796 2.2308017170501064 1.2882952048263554
Ni 5.575590695104986 0.5458209642520312 1.3406957210316157 0.5003742132923898 0.018959571821638314 0.02801936803106142
Ni 4.336540565376781 7.675956159807813 8.80286915035616 -1.1485542053485702 0.23484584830343425 0.36551342472504145
Ni 4.797813310059858 7.927202590954341 4.4592594883032755 -0.6142242039360261 -0.6658357574647307 -1.0304284701477158
Ni 8.771075425247695 1.9875520216298894 5.535637600744496 -1.191686260651354 2.010410610719421 0.6181381942784516
Ni 7.159741863645494 0.0179541473679205 7.099011262473476 0.16466321664076158 3.592557195849142 0.362719149809356
P 1.2115421433204632 4.7968551353557665 9.01125261289521 0.12022015583603812 -0.11226619109628407 0.46334595689449876
Ni 2.4190469291499017 1.652042032525526 2.5771764541261315 -0.1694254139160953 1.1875023044769937 0.6279428390736992
P 0.19391688504068041 0.6522713830764427 7.059799590675278 -0.9199170569590093 -0.3581847522741122 0.5557550040555397
Ni 0.7950505771864517 1.7574412499755465 0.4557330064667053 -0.23363023072877825 0.5846619168978769 -0.2931841790330112
P 2.371677748633088 3.3827846281249423 4.285363803244584 1.6421769588497395 -0.020284204170332807 -0.7868316151245288
P 3.7632078936501965 1.212332870018014 7.386786476246746 -0.09061698825762458 2.114816168120706 0.7525930056566329
P 2.1421437423346057 7.837003931431357 4.238254167137907 1.8805426473809743 1.4484659329134022 -0.4886319851547971
Ni 8.227818276029133 8.961845218032122 5.367542128579016 0.9534740669788483 -1.7675532049654203 -1.9111112641964505
Ni 3.5791546264614365 4.198721553327174 5.955182302197757 -0.13742263575725366 0.47461921581547295 1.0225426396417356
Ni 7.523001708500379 8.179630460813678 13.566391899476697 0.5674548089909711 -0.544396898730243 -0.5499926476504657
Ni 5.902979455892149 5.143156218214942 8.03675824003337 0.49972089597910707 0.10877874676831586 -0.46322305816338927
Ni 0.9180848605252632 0.6274900083751974 4.603677812343972 1.264130948875326 -1.4747356652432086 -1.2347609803536412
Ni 0.14514486233574073 7.2167486072054 4.02076153304307 1.0753980928798705 -0.6843659550584343 2.122880176075763
Ni 3.2979256994771853 0.719936192252631 4.6817206768588395 0.653093627307714 -0.833485310427326 0.4054987068687274
Ni 4.305562684166846 6.624438494737593 6.387212113071996 -0.9236988925989448 -1.6485640933230061 0.05035402697251973
Ni 5.414449896811142 0.5698748703915296 9.038864789173688 -0.714863352316343 0.994696563963745 -1.1213930715527463
Ni 3.9668246696030693 3.855815943933952 11.467156708818017 0.4715470046480524 -0.32035636857242894 0.1731609696991276
Ni 6.191231896484059 0.6698162130950428 12.860352031233496 1.1072327208919641 -1.8944366317542471 0.6965920648109809
Ni 8.642614896230278 3.7195969906135065 0.8482869497990936 0.5867470815616798 1.3266370378293475 0.5676124176147579
Ni 3.228239420755376 5.724489183587336 4.155268795629994 0.31701213469054434 0.3329583736071556 -0.8423324764053107
Ni 6.558054662811437 7.945873043683572 8.442633602552732 0.4722265472135803 -3.3661039424847767 3.029117421554835
Ni 4.93063678991435 3.0658985784146604 9.077641096154881 1.0540252836310493 -0.10899240544101874 0.8934832882475129
Ni 6.731977325604516 2.726621009163143 4.384374879245096 1.9555656378550836 -1.0269184001119283 -0.6490215141208693
Ni 4.106448399056498 2.6871218849537177 0.7885201049313842 0.23101181926932474 0.5506673051199872 -0.2359514226627872
Ni 6.539728408762317 7.145955311107019 6.228865835953966 0.8980585663230212 -0.4284923395504233 -1.3006293009116763
Ni 5.913844970983202 2.4542668265255223 6.97513880883526 -2.4514733307356873 -0.5686794254266916 -1.9352994314068799
Ni 5.484312926206521 6.441910864941755 12.660409808757478 -0.74806452165866 -1.024964618819667 -0.8162764027482071
Ni 4.416096973817432 9.471045303253813 11.056843043858633 -2.036806841324763 -2.4492673242233045 1.0175400442208218
Ni 2.0152088507101107 2.306112551405573 6.163075514184325 0.42412917748572115 -0.7944443944747802 -0.9063277483103487
Ni 2.9487314871716768 3.2912277792155775 8.161080942755838 -1.3273692880096817 -1.846140772862337 -0.3982021732073142
Ni 8.38276349808099 9.439602288692377 11.374544937467448 -0.17654017058400565 -1.3832139057831274 1.5128856939503685
Ni 0.10754627300054678 6.330502124590348 13.396035879222925 0.788941719488996 0.9261244713213018 0.3613328109847906
P 8.47836700714841 4.731959730154412 5.205423619980317 -1.0951423653863335 -0.8692334145612127 -0.5943745161999506
Ni 1.8769526133100929 6.484517079939204 5.872863931915896 0.10015552387567912 0.8520296490884164 0.80755624926639
P 3.494221276477439 1.8029498970863587 12.241967473347273 0.03009450539253527 0.8157287577748532 -0.8207370096227219
Ni 7.143490104344067 5.942785568113565 0.4859201609790898 0.631903366383344 -1.188710722962798 0.6959315484088466
P 8.068733367148923 2.3484955023943015 2.4576055537225927 3.3512139127468226 -1.0670278665383044 3.4314516146526515
P 7.781467009262195 1.9747887624647147 10.71801014209115 -2.0944851698728377 1.4608848754030455 -0.026709390970386257
P 7.274304208120075 7.229279299694824 3.844115979610308 -1.2105447881187539 0.7691025732758818 1.1279403857529606
Ni 2.126673407063698 7.399601830347288 1.1042461120630238 -0.25873499621620605 -1.847247118552638 -1.1686417201270647
