# total energy = -340864.2992099994 ev
CRYSTAL
PRIMVEC
9.32255480762587 0.00000000000000 0.00000000000000
0.00000000000000 9.32255480762587 0.00000000000000
0.00000000000000 0.00000000000000 13.64450129924497
PRIMCOORD
 96 1
Ni 7.264516744009869 6.609402189417565 5.185169424933573 1.2965975540444636 -1.8437262498835731 -1.0117728027197415
Ni 6.456148714876598 7.939217985749236 10.90094695918392 0.025499686933001246 -0.007491166170722583 -0.023318363010966292
Ni 5.9079452160684545 4.259260763297872 12.509591972341022 -0.3568765749856499 0.433416259214602 2.227490650399002
Ni 7.562763909744685 0.6160530509529917 4.820083271969064 0.6117109505958691 1.138504277311736 0.4749334046217821
Ni 6.566359954977779 1.726798137494639 2.4431572143204665 3.6272776300494627 -1.2206440813362847 1.8659704059937543
Ni 2.7142058271035654 6.079685316317478 2.6638155551533957 0.6704305759242648 1.7896307535907499 0.27092176809038504
Ni 6.558314590385721 0.7927219858020408 12.238912532718809 -0.22370088743020827 -1.4225700389832467 -0.7524438816732782
Ni 8.87378543606756 8.18111030912137 6.399557079627891 -0.8298248308566032 0.8986815446190007 0.06619947864520857
Ni 0.9751392077976292 5.196261400358407 3.7615705941601942 -0.45467593992432664 -2.20790244385443 1.0262956789262647
Ni 0.5904635709196865 8.85783454520196 8.569074010995395 -2.9859000056270966 0.4792258613495488 -0.9994402492963175
Ni 3.3675770639916807 4.283890952466145 1.602396104830269 -0.80959976205898 -1.7340879833284395 -1.3877842987626292
Ni 5.503868410879349 -0.3409892139175174 0.5611916818320788 1.717427491953623 2.0989007824420303 -1.2104460577573606
Ni 0.2932530732528161 2.211981167424083 7.312210933179015 -1.7858545743777696 -0.4812146096448035 0.41433224599995744
Ni 2.624103337205247 8.72458727276361 8.615015559905784 4.478490439663538 0.23582878104199384 -0.5432684415527547
Ni 3.86360222488354 4.357240811806028 7.9342229610117805 1.0869513449351087 -0.8314711082107744 2.9158263887384623
Ni 1.4336690542175756 4.762566839307226 12.475194542752007 1.3725731382398296 -0.7310371338627281 -0.6746263591731673
Ni 3.9635586549600803 6.914641271078273 11.444966495502008 -0.23627023945478665 -0.8114026195956737 -0.11142312636969844
Ni 2.313280045358395 2.2079817915144733 2.3188829006536755 -0.8618805737405673 0.98392544149017 2.6299387433668646
Ni 8.642203858047475 6.056136543479077 10.195088807823323 -0.7130463537122622 0.6312757601016742 0.6653377347823896
Ni 2.0284760033104257 2.840610344489111 6.202612520849214 0.45723495890075444 2.742587771723864 1.6847318014928145
Ni 7.659569316377292 8.043406855599583 8.534457501374035 -0.8883788771414118 0.2662043080100577 0.5055364742196198
Ni 0.34163619920452654 1.324613810882808 1.0964899683519405 0.20199486321168436 -0.5543023307694132 0.7958307332993455
Ni 2.7958900502271105 2.361086105182355 9.141338090887714 0.07072770553286528 -0.7184528694398142 -1.3083004443036887
Ni 1.390505626568407 9.01695190656611 12.703876806301489 0.6705123370047936 0.6268796879165075 -0.8370797126468034
P 5.650885096414422 4.322057490866943 9.558668771905939 -0.018340964401032927 -0.5131495106801872 -1.0327710022379633
P 5.398654060026538 0.9326376815227784 4.180688408889076 -0.9700101169606584 1.6880510956740349 -0.583676413056156
P 8.929981795002591 6.16177973184201 2.626130060568299 -0.8965647553863139 1.2043533145960612 -1.7332523748010213
P 7.532568155499403 5.514943605705961 12.134423476611378 1.7035083107693696 1.3373981330005935 -0.35473073228724067
P 2.5627982183670333 8.341187893606007 4.853375978841788 -0.7303331658171681 -0.028134810563003158 -0.4022388051705331
P 8.356476883097288 8.620752659986842 13.022789278746869 0.8390507203302453 0.49805996333691643 -1.2278238869141758
P 6.987310583934702 0.7112512491780995 9.433439828651402 -0.2977512295784033 0.4995208641531591 1.681505581246033
P 3.6120983477519486 5.146954409249021 13.23441592871446 -0.07874851895481276 1.0547891583802673 0.5254751221250757
Ni 5.187097329218205 6.650346849079584 13.697168892353647 -0.022508208404845107 -0.7430133323879978 -1.2302165555160685
Ni 7.343842360827747 5.740139233847065 0.9134667803094415 1.1209115039306372 -0.9523576939862178 -0.12779642552139928
Ni -0.18060957866488134 2.7351163169992643 4.876122079731896 1.9628346607126712 1.2366926501587152 0.12797434586016024
Ni 3.9678656751704295 4.3861220858572425 5.796279657454687 0.6199222827620678 0.12794760638728286 -3.2224908616460954
Ni 6.073793461830594 8.332806917049504 3.9871419212503834 1.170617612906513 -0.6876271423082093 -1.2527203930455393
Ni 5.245670939568038 -0.1467705700944814 8.025572808711278 0.727603682701147 -0.588005122338497 1.2331656108420634
Ni 2.642356899049107 7.378494296156465 13.526734881999579 1.4415982592592913 -1.6901894821732761 0.5124260022506013
Ni 8.689068339860082 3.769080844120058 11.255253442301617 1.1590268227451201 0.3214958814935108 1.5010161962062922
Ni 4.346864808572005 9.008906541974051 5.954323992788076 0.2530806261439061 1.0307943381275668 -1.0774943132872667
Ni 4.317787760874865 7.084004119912494 4.330232438967495 -1.1822749946397832 -1.820047161099078 -0.1350785610051093
Ni 7.603885697943494 2.2527673436584483 13.602434957346016 1.554039542480859 -0.6294528479603224 -0.7740082381076153
Ni 8.91312661634391 4.893772472295217 6.282706316163483 0.20566459875378776 -0.5630955035810109 0.41936158089374875
Ni 2.953217481114231 6.355707511962529 8.888232598881366 0.7981043598248706 -0.48088859376395243 1.6511400815802983
Ni 2.3607411706633443 2.4136187001722176 13.833204540863242 0.30194881259951867 0.37644781224935814 -2.4501237586863285
Ni 1.3310836637528993 0.5122119123880257 6.0469976432362085 -0.21924645120328046 -0.9609094402109709 0.08563521877231703
Ni 4.206588329989492 -0.21126120582853167 12.289056689228387 -0.8286662917721277 0.326039020779503 0.4738890225176677
Ni 1.4967361358691142 9.359565109489347 3.263368616776741 -1.2853960289016895 0.18846726103889477 -0.1436940705882622
Ni 5.166028355894853 5.397870965442838 2.2319808437385023 1.5632255798555013 0.4383844018531547 1.0772276898894417
Ni 0.9994710752197307 6.818348604946898 5.3787438802359695 0.8856815328149069 0.017878937162949856 -0.6555258908982904
Ni 7.767338047181695 9.205724314010604 1.269405642731971 -0.30483693278059115 -0.4190869870761234 1.3119812355893856
Ni 3.922241093115347 4.254441002586291 11.252401672859312 1.201845203462227 0.5524416234115905 -0.4602940574420524
Ni 0.9099531094928169 3.7990715021648476 8.738538475674405 2.150254197213342 1.3893220755633944 0.6146263244704512
Ni 1.2062453355347538 7.285017041504583 10.48188321527153 2.757030429511755 -0.23935659168959422 -0.5015114122206266
Ni 8.926607030249027 8.777017319653227 10.828726061202204 -1.9298967723340696 0.3057280771362928 1.052519131399168
P 6.520968436786893 3.422953038124739 1.1161661520228552 -1.6803141320410935 3.274831837141657 1.9255688343826773
P 1.8751293032237795 0.33266417268842297 10.363312440489354 -0.3185254860112772 0.7493467308051933 1.4903479178591688
P 3.806641416473946 1.6158131253643258 7.233755110702318 -0.19765355552385314 -0.23370119317602978 0.24354851828375476
P 0.2655632216753733 3.306048203843838 13.71067634166701 0.4268889996190455 0.2791251298367838 -0.5116659841561253
P 5.664747735056823 5.0917928538710235 4.6616846795620965 -0.5315724932720651 1.2378612165455198 -0.07922391592933452
P 6.673849009145147 8.242629846714644 6.335455194419319 0.28894417280973467 2.3119706725209537 0.4980234536720261
P 4.779226244319982 7.536213274335434 9.579217546684406 -0.560320511939035 0.740860547711053 -0.5665469524647211
P 8.928490186271734 1.5829884107309085 3.2215215338325534 -0.1384608472137809 -2.058746578820648 -2.103836529180751
Ni 8.716402069853034 3.6387328861523103 2.2097409575614275 0.8764677275261228 -0.3747645110096643 -1.4922466775437784
Ni 6.285918868467567 4.473772743904215 6.859841430817507 1.0749280952219875 -0.03203980204436417 0.3737604952251821
Ni 8.097347156329192 4.108142153752943 9.077563427344476 -2.8583861443431227 -0.8753104739932279 -1.3800434784749458
Ni 3.102704643609785 7.108615663971631 6.649170342693121 -0.4376770913734849 -0.24841587367838505 -0.3445044265735422
Ni 8.830230461126542 8.071989807904627 3.77555629052289 -0.3183257112956453 -0.3511000775131889 -0.4137162096825133
Ni 4.566485549081532 2.96121623293345 3.3423567571192625 -0.03876297970081066 1.4341335754511302 2.001727738233443
Ni 0.5800251065700593 7.78613231719049 0.9722361643051991 -0.8634463755657905 0.1307328824419039 2.1648912304002264
Ni 7.081076837778188 3.8493853291675606 3.7067875344976513 -0.9289735107343228 -0.14593555832427124 1.0418331124402316
Ni 0.9369447017331274 6.628382910517718 7.7536376209887745 -1.227034815353977 -0.8525896353569447 0.6403196154714973
Ni 5.340322836095469 2.4083328117322442 5.721998474913477 0.3552722066130075 -0.2561152992051718 0.29338318241769473
Ni 0.05007144058394901 1.4739704576144126 9.719318761241043 -0.4889973389140159 2.036196461434274 -0.04401317235615646
Ni 6.634945988933488 2.8364804528155507 10.851758364517545 -0.13982533166147532 -1.4428416447480894 -1.6771779004049565
Ni 5.407734228175628 6.630750839377953 6.669528005102945 -1.2545145088314844 -0.19735453622619556 0.6636634324037602
Ni 7.687322561325796 1.045403301575552 7.429184754363718 -0.08771832655359087 -1.524489082517252 -0.42800665816325645
Ni 4.221373901534109 7.906766173298534 1.819358052777044 -1.8167044698790904 -3.089186104711957 1.8567077497449058
Ni 0.2844833461708349 1.5919380631160491 12.267566336438568 -0.6881128236953762 0.9814790368322065 -0.7857499520245759
Ni 2.8512753469147367 2.2214342377558878 11.418455014821944 -1.1862843729094925 -1.599995440385683 0.7773349884880032
Ni 3.7110386193805933 0.47845773906419314 2.766886650711057 1.0593618653526145 -0.39288770297293624 1.9797700030154288
Ni 2.9965393921910533 1.6031624188157467 4.7951827287183235 1.984924293522859 -1.7094915249359979 -1.8271513762440272
Ni 4.678934202278999 0.906784373195203 10.24310462512506 0.8009462001490399 0.07457947517878769 -0.11933415368665898
Ni 0.2552580698560664 6.730353012380916 12.608514531115988 -1.8861615362296484 -0.2584154080932582 -0.47821130404210554
Ni 5.8073548522813 2.3802066646010256 8.152917039597263 -0.6735971465777044 0.48650336884756856 1.08656207991649
Ni 1.1059160032754987 5.2130047083622735 1.123741659864694 -0.5713004079893064 0.2606707797863382 0.22779974008993023
Ni 4.770071495734348 2.0002566306335288 1.3926395593089889 -2.239636541732917 0.5027049183080956 -4.70572093751356
P 2.2124939079253148 5.0846704221811825 6.690239924586349 -2.544473731623824 0.9909332402665708 0.8611958889687168
P 2.5330872369592794 3.7014830009485418 4.064601162643776 0.28465942939145167 -0.47453874028652465 -0.3750265064217993
P 4.880702250791084 2.3143334940245626 12.204747234738536 -0.2466713801834526 -1.306327636848034 -0.13106995406634847
P 7.525501659136968 2.758627799619394 6.097850313892944 -0.7152868130070069 0.60531867391628 1.443892197499791
P 2.145185063945402 4.765279702686472 10.376683780506028 -2.1699519327525856 0.5721815250426792 -1.59711400507283
P 6.362857911316073 7.363009533019257 1.9587088016909695 -0.08690354396177936 0.7034196292557756 -0.0854909798849689
P 3.0943236670532834 9.709999935695016 0.7442978406102317 -0.3126978235859066 -0.8109979279580872 -1.4847246581351206
P 8.028453478072745 6.025819596024412 8.009390718492394 0.2631051002594436 -1.1768612798233797 -0.5256910947906236
