# total energy = -381174.26284323866 ev
CRYSTAL
PRIMVEC
9.20906637856686 0.00000000000000 0.00000000000000
0.00000000000000 9.20906637856686 0.00000000000000
0.00000000000000 0.00000000000000 13.47839951173547
PRIMCOORD
 96 1
Ni 5.137038124646441 6.929232909226691 11.199174832751076 0.4615955498622954 -0.3008468377845916 -0.39251489301454984
Ni 7.622040165915677 1.5444616956649038 2.80234830314205 -0.5159856945774017 -2.125705818450016 0.8304205554590731
Ni 7.1889009478923915 7.615078111894635 6.439615409317643 -0.8591222942691398 -0.5447373127887973 1.4721812742524711
Ni 0.07114832428724104 5.593107917421564 11.023793693070788 0.19788649747026565 -0.6991937640998861 -0.19518709626123157
Ni 7.689487366511044 6.324565624806722 1.6286353231364823 -0.6525650084977536 1.4274415081429352 0.2067855997321084
Ni 7.474796406997143 0.08847702409066865 4.791921002845255 -0.12231560491248611 -0.44389787547221615 -0.7877556696006949
Ni 4.0862652570423075 2.3148000804003668 10.558667704628615 -0.4902170702537299 -0.837802449745441 -0.45701127292572263
Ni 1.1524962124671094 8.845740877973636 12.159929078588455 0.22020290157927885 -0.22809284585031683 0.41626391580503147
Ni 3.339529708888757 1.023016742181627 7.832176321304172 0.3503035497538225 0.865960914457528 0.7879868117748945
Ni 8.12254370293884 5.335023838136313 8.405803527307055 -0.6595126434601803 1.56333922261523 0.7996418795153195
Ni 5.333522760351353 0.17327226352841157 11.397725061996887 -0.4599341029994724 -0.12561278760651914 -0.31583431233235926
Ni 0.05807145033237723 3.502916960795232 6.290813476403924 0.4624517272150036 0.17541839827473663 0.935684347095595
Ni 5.445385287062431 2.5488484969939327 1.3695539019855176 0.4416949542836264 0.9664776783273676 -0.47255924796265064
Ni 2.1764706975299375 8.13772945304558 7.682701205653763 -0.6384049149472876 -0.19963381917867554 0.4129893588188178
Ni 5.276887003434161 4.728081914373489 6.5380612475323545 -0.3060530645758794 0.46906897542120507 1.8706755247789073
Ni 7.608622556512693 7.185548847808187 10.221640747453728 0.5247431290550575 -2.267564892712069 0.5298704229792939
Ni 3.061351447230609 6.429889714540367 10.118921902538274 0.6457045339324944 1.6006664983107788 0.5125139339787174
Ni 3.9979318943838194 4.933904543170113 4.755974333975244 -0.8548959148926181 0.7834220752223476 -1.6111334592803737
Ni 6.94649990828681 2.4026085262874277 5.166540289013907 0.7335956386185237 0.3212932785644015 -0.5544036322339678
Ni 7.45869895934003 5.0688449896916765 6.252791084020234 0.7548877152280806 2.4194893216299236 -2.9901613520066115
Ni 7.138720746357143 3.1793287938755106 7.227320251027812 -2.5494930392152866 0.23026568513191953 0.02551691332418186
Ni 5.476650066693953 7.517535683070751 4.531437961823917 -0.24867169844293302 -0.4232606588378388 0.03232468027463466
Ni 6.558116751827356 4.885685872728094 10.561795103498383 0.873954731296282 0.7290998076306991 1.952415008041244
Ni 6.196752995497175 8.74934037335426 2.500256859372215 -1.111873304987769 0.6684325716576295 0.13183845680125683
P 1.932154172161954 2.5211476259684185 6.672292595959182 1.0739060817153763 -0.731134835782857 -0.05163932144284656
Ni 7.776328860450739 2.683954706706473 0.8717145478040031 0.41197145907726473 -1.8558189193820487 -2.204377461420307
P 9.250322781818024 8.915527181375015 6.236873213153345 -0.5757198772132407 -0.5954376673571422 -0.11947402169863297
Ni 7.4914463986241815 0.7852865409351353 7.270288832848938 0.1672955120572861 -1.167648760086176 -1.3939336061934766
P 4.247073970422471 8.755869601265525 1.4845106749281691 0.5516016440087984 -0.15107879308810754 -0.947703483043658
P 2.9486877317631413 9.215696693036131 10.91903964453278 0.7477315637992736 0.18717219637655508 0.25593994996957214
P 6.459828388644072 5.509802704889383 4.163963069186379 -1.8126634670404975 -1.6001520205682056 -0.0704939922555044
Ni 3.839397820346509 3.8677709532020974 8.63391209622394 -0.74248985578436 -0.26014833162396483 -0.6536950083371387
Ni 3.092883289780928 6.7951673239908414 3.061551283966398 -0.7603659647338324 -1.0163462810230368 0.7191810058550905
Ni 8.968230667039583 0.6414372438051673 10.220319246458995 -0.04688663724920957 -1.4757772191338454 0.8645617201171562
Ni 6.7890156677923565 8.95532876534186 9.35655672728881 -0.6013671454676998 0.76827519227858 -0.44475893792093085
Ni 6.320163691179661 0.8453554377187872 0.20665604928459239 0.1837919670504125 -0.9858915640776053 -0.9694922967839754
Ni 1.0920571112236086 8.115609276116297 4.535292876920752 -0.030465515578708822 0.1324164407919139 -0.827059352296324
Ni 1.5340738690303362 5.822192647351982 8.51352289515032 -3.3112857090933163 -0.9476926844103806 1.2866319581913195
Ni 4.259073383635983 5.32964574349572 13.262812367996103 -0.506924869926714 1.2730999851431557 -0.5637506206665066
Ni 2.608560082010367 2.511128161980466 4.155579135349401 -0.12401484699177996 0.29351482289955255 0.20431245560126748
Ni 4.287464934623903 2.6904378892869123 6.0508445511726245 -0.6912297720578031 -0.27525690513062917 0.013229611316396571
Ni 8.725802000235504 0.05400288490050481 0.5988738608953187 0.3137424628003371 0.12525411871551978 0.7652330630181465
Ni 9.044362017028918 4.525399577139265 1.0054034822336886 1.205875921888175 0.47508227149482046 0.9752711082492816
Ni 0.6591094417765643 6.522542129230427 2.5124680811075315 -0.28137278822037987 1.103739363026725 0.4415553433819686
Ni 6.599815403424273 2.3587733713401375 10.764874351484334 -0.29781910670186124 0.26318377601617904 0.5089539845416009
Ni 5.136356653750202 6.6315406363640665 1.9452697241947126 0.24582805834655083 0.10837894022673593 0.6220444713113932
Ni 8.97745815133731 4.625741562077432 4.165566367605774 0.7111205974444592 -0.12203612599885434 0.5470250803817095
Ni 8.840114138546578 7.8066266881348945 8.307222315819713 -1.1249108548980173 0.8285356797315345 -0.9751687783434625
Ni 5.244019846289858 3.1492980291101507 3.617548653702245 -0.906524180591871 1.0692539276553457 0.1375442489367825
Ni 1.9765326620130024 2.197817312901328 9.365937082084885 -0.6908518198930941 0.8516344705325269 0.23590154326145824
Ni 5.799142354739993 7.509818485624148 13.355206928833532 0.8465110332630325 0.7952792316712497 0.5475007344665473
Ni 2.5941755206600168 0.651865590330863 5.663583058972115 -0.6475305313976397 -0.04543216419087014 -0.11190186577832986
Ni 2.2131596171328796 5.77471991126936 0.9655982146403764 0.5208365949117997 0.2732157063308843 -0.9457275902642099
Ni 0.6998927121966416 0.8242058963633364 7.911348504941324 0.33038084268796647 0.8486638179399771 -0.3401723748570916
Ni 0.33942223528450505 6.713528952434596 13.274093474048714 -0.1871922509812131 0.45373980126330243 -0.303958901051012
Ni 7.7599459317424975 8.483861413938193 12.035859934675143 -0.12307716566885901 1.1066105139269327 0.39379581660950247
P 0.1252847406471441 2.849699479551289 2.660339898338545 1.3649816990458168 0.9224781328179661 -0.24720616964100006
Ni 3.1944500805190925 9.046609029173275 3.4177045506601966 0.7489818912666067 -0.15149248358675843 1.824181494982426
P 5.910737818532275 3.9194890687869672 8.912119826893818 -0.050132912100649143 -0.5094921164332581 -1.1791079097657113
Ni 0.8995774983940285 7.673178110332126 10.026042023913927 1.4334542899959184 0.20884608180556288 1.5096059947578324
P 1.5485597301085055 5.8037100515580295 4.668513069882619 1.0335472182823555 0.48322264121376785 -0.2891030669851021
P 8.006481842056342 1.7049112554646166 12.180240594922854 0.40012407282037543 -1.336309270811789 1.683036930288895
P 8.237712284403296 8.396854156807523 2.6158610296662936 2.063105627120292 -0.28538113804882465 0.19100339719718717
Ni 7.767000076425192 3.9797255705748293 12.446196583966286 0.04688483747699668 0.7362665005824675 -0.5524051137467002
Ni 0.35420554919981695 6.637904101084356 6.466167909792333 0.41551161102003925 -0.9147424547366053 -1.0523504670317876
Ni 0.1917889328671754 1.636312921598574 4.7897780531485665 0.2835911360279374 0.015152282260406161 0.6757342475253653
Ni 5.289650769139401 0.4152100871058731 6.446421830120488 -0.10480099306749048 0.2530888536740222 -0.039640240099441414
Ni 1.065838899850723 0.900658642761846 2.70351107961531 -0.32868031505709205 -0.7698618200394096 0.6166968338462347
Ni 9.146868132515953 2.873735142242975 10.697872869691373 1.4909968642970775 1.607864558721115 1.3244575136795256
Ni 1.237072276130116 1.9302202682672207 0.599717411356069 -0.13360094801831832 0.10581709303683066 0.1756017179301363
Ni 3.2631405050467888 7.618061849332225 5.6049388047242505 0.5390767720689104 -1.1649753270190712 -0.2578376812129173
Ni 1.8685011068267297 4.402799279279336 2.800299285920249 -0.8709226293381775 -0.6152343903680952 0.8455928923241373
Ni 8.00086431169545 2.2138042517644574 8.83934978605485 1.7749813791086915 -0.47091297060847936 1.9334834612440635
Ni 2.5274834634902112 4.3575459281425735 10.658906548025728 -0.600089821417173 -2.2197153773289577 -0.22150439399952176
Ni 4.230064825214982 8.361233488879767 9.153962797089775 0.2493278439696932 0.4584369496286556 0.4574416755949219
Ni 2.3474554290228644 4.722943255453198 6.638812115008264 -0.8486244800616094 -1.8791118284717183 -2.102981380269307
Ni 3.4751147900418986 7.762413961474824 13.043019585826572 -0.08353205638638517 -0.16154523983707017 -1.9110287317849732
Ni 5.053014604953359 3.524024140446322 12.161020352929054 0.5245775500114707 -0.24350815196412254 1.1827627329094792
Ni 6.2254852819332145 4.727354398146423 0.7419606473467919 0.6198040120166487 -0.29628364389394135 -0.3725415352164165
Ni 5.797751785749018 6.258499784136164 8.843164181260558 -0.7573374623201539 0.7561622110651299 -1.2469382391461235
Ni 7.3537524413191635 3.798868720152597 2.8054342612140744 -1.6461811949131262 2.2416191193805846 0.30673363558267175
Ni 7.97349496705189 6.875138854571149 4.339478661232681 1.2331535266572051 0.9797031758787063 -0.663408893190793
Ni 4.0433417996453915 4.606752467644384 2.1324716212049037 1.4388687761432704 0.60765374980736 1.5584914076046257
Ni 3.224775535401745 3.3268027794481787 0.6604640954094941 -1.1406714601663839 -0.2920402952365551 -2.154049402589716
Ni 5.6380849965733635 1.691815963377422 8.828095386294118 -1.4201560302251153 -0.027206385211462823 -1.7854789362059058
Ni 2.137746574304443 8.591478561147024 1.18419013458194 -1.6234235895016365 0.09591937430714449 0.4711245723986531
Ni 3.56538205659512 1.6404017469760104 2.176343612416855 -0.6018998780427182 0.14145592528636283 -0.8192874216603889
Ni 3.475087162843402 6.158213053594989 7.718446195974752 3.6666484185376014 1.5241057310359043 0.12030243113719927
P 7.398397994089009 6.324933987453337 12.55543913135331 0.6285737877894788 -0.9975281198752691 -0.3788638778900185
Ni 2.0235449447873544 1.856768756532014 11.874833887333475 -0.8821557790498354 0.7996531923692293 -1.4092195858182697
P 0.27851255075995246 3.878619233144935 8.7524272523329 1.8079645189029312 -0.6962138555359558 0.3475956639043562
Ni 3.851176215972052 1.308304402919462 13.021656394136084 0.9951115400139765 -1.064540067119444 1.0684795113831664
P 2.387606957503996 5.8802926457894715 12.176682211756544 -0.6299809525496506 0.5744224985580559 0.33160083113799665
P 4.995181669434666 7.672772911420849 7.135114476046774 0.04964028873494677 -1.2775343667654255 -0.012430255343552786
P 5.178773612508021 1.2974653320427896 4.484641171197835 -0.7832526395240188 -1.5462228746499176 -0.40824464504498076
Ni 1.3009555681194753 3.97556307266807 12.726155879020823 -0.3493429856127661 0.6567584777538109 -0.25622225709668134
