# total energy = -340886.54410977144 ev
CRYSTAL
PRIMVEC
9.08842588923714 0.00000000000000 0.00000000000000
0.00000000000000 9.08842588923714 0.00000000000000
0.00000000000000 0.00000000000000 13.30182996107008
PRIMCOORD
 96 1
Ni 6.310503104426827 2.3855845694410993 11.333331666235509 1.2450222530703332 1.0253659680231437 0.95429347755635
Ni 4.772405164809082 0.9362987280403202 6.354563793349857 0.0758799391577661 -1.252211828840237 0.5943773444134279
Ni 3.001598079177686 1.8822675412733187 5.06169248878324 -0.3543319541869252 0.2844146603704973 -0.7610362513279796
Ni 3.6966536292532974 4.994144580721642 5.121230767070116 -1.3184069366100712 -0.08146823187882098 -0.723810791317618
Ni 3.740278073731545 3.0254370203998615 2.866850349767719 -0.2647089544114538 -0.012186771874179011 0.28806048465320067
Ni 5.074149994209561 5.154428060475469 2.7219935641925117 1.0602121291680513 -1.9400138061634138 -0.6661825992811882
Ni 5.1653250831690976 3.2425958696422046 0.8854871563342813 1.7055045152637915 -0.6541778615108281 0.1412859753674018
Ni 5.865442886489372 7.922953456602184 12.723692698099887 0.6203891950961573 0.6874523072932419 -0.24755224012650912
Ni 2.3515120606184015 5.439931872733733 11.813128756931361 -0.19141580214425744 0.6477943265819875 -0.9909478955545901
Ni 1.1376437161592985 8.040348654378334 12.035149914047842 0.4065279194641902 -1.2828614354052938 0.7193530126565806
Ni 0.6188545516832327 0.3527118131899708 5.108475161273194 0.8795479091133432 -1.1067359837612039 -0.8634000957088872
Ni 8.510720138539106 2.5473403741960676 1.5707599247356459 0.4092440328437726 0.41545067587511675 0.5474364568875153
Ni 1.6856667114913497 1.4260921784198441 2.9085116942444458 -0.854486081048709 0.11504066851762769 -0.08967622161091007
Ni 1.9264191144556784 6.489199735120848 0.7168777695832615 1.5823147352764686 -0.206272921761748 -2.3517626077069114
Ni 7.887744894537866 4.1554555472014 3.86270553294678 0.4864792004778525 -0.1836482423836966 0.7403494124025894
Ni 7.439458285394207 4.027635924880134 13.009056548598785 0.8117618027073051 0.08093344242127351 -0.6560884482699798
Ni 8.0628061548587 0.17064337647481823 7.109070372823386 -0.25887846377260576 -0.9230208926953137 0.11142749724507262
Ni 6.796888395081488 1.0072611577249362 0.4290000604713061 1.8380759935763311 0.07359525688864745 0.47119553484590465
Ni 1.715903904570335 6.8483197974361545 9.492465540457232 1.068916856030901 1.3568847809702955 1.0854374793937434
Ni 0.042132124940054125 4.910976395009049 1.5409635203144094 -0.18887426666932633 1.0254094196665695 0.7701729235219252
Ni 6.465742507787857 2.731780890079725 7.141805974191345 -0.33169390507243524 -1.4411999953796082 -0.04317319295336435
Ni 3.3013343664469783 4.41084940434374 0.5827335116552437 0.1676942901576015 0.8748397050043966 -0.1901099388486403
Ni 6.253391435864055 6.269350711802347 4.766697633323178 -0.6336985106105538 -2.6009768089168754 1.5741093166475406
Ni 5.264679755468307 3.524346161990153 9.297992311186173 0.4828107504873298 -0.5569883622420084 0.05086464806035111
P 0.3054129181070242 5.7964435568062775 12.844339734674854 -0.7953314250654239 0.48722044951925125 -1.8101995788810374
P 4.237542210227969 6.353109645200582 12.557805294915793 -1.6788257204210248 0.5735287830991929 1.3165922519988358
P 2.4590281394054156 8.74046645769861 1.3218043085242202 2.3217215812601304 1.2248498918875164 -0.3671190786492645
P 6.464242917508917 8.114610182676618 6.098955449355499 -0.33699397712911 0.4651261887233732 0.1606461250615685
P 4.996480306186414 1.5464138493464106 12.868828498351238 -1.6440708334383427 -0.4231881537286905 -0.2451989094029842
P 4.1024609355862625 6.426544126738965 8.474502761196227 0.27013629607461215 0.8830451236333243 0.754672513893481
P 4.904414551485446 1.4242654048073173 4.045978186098051 -1.0699941482554798 -0.8609585761469302 0.25416948833271064
P 0.4631752685070466 6.042285478293068 3.673327275253741 -1.0852580163930858 -0.965696320076653 -0.36369205524558657
Ni 0.9773965901092025 7.685990927251904 2.1946685500802023 -2.467533469522344 0.4421222716290321 3.115818362587505
Ni 1.86157319542395 7.0051224100576555 4.874216438637973 2.00196170862112 1.073219340060997 -0.05353679557587554
Ni 6.115819932516714 6.279020796995025 9.434309611754763 0.18204310268010584 -2.697321957907529 1.3404464329086139
Ni 8.584172796929355 2.6043702469254435 10.32696844499275 0.9725819914528928 0.6006744902760494 0.4086462513587737
Ni 2.552502600125994 5.728053151660691 7.162436701059183 -0.35727329620343634 -0.2099398290903739 0.5496499195990664
Ni 0.7157289925453342 0.5299661106884301 8.994724261599329 -1.1302116982856407 -1.7927099067367058 1.63806267957105
Ni 1.4414425298206275 1.5666992160287958 11.854657410389468 0.5577023575898976 -1.9653409720742925 -1.6132301939084024
Ni 4.3913274654397245 7.153400079154033 1.4826349115192128 -0.7981413837103931 0.8761576524848718 0.031004675911630475
Ni 5.747747770657434 8.172876081332879 8.452595110484808 -0.5633819244731781 2.5139591079747348 -1.6489798407041858
Ni 6.893580158582337 1.1031894934474158 5.204699779681089 0.08779880208253912 -0.2020462852749101 -0.6495077097286686
Ni 1.1229295545738227 7.96047956727941 7.2090203370212045 -0.42553814201810586 -0.2601331621153133 -0.7981079593692965
Ni 5.047075573355248 5.1709235535438065 7.04335923564284 1.3375416005569933 -2.2515551475473745 0.869802142580489
Ni 8.181346494302405 7.682682740212304 9.028710430375664 0.23146510475665943 0.8268294956737051 1.2068992209463667
Ni 4.971859760334003 0.6007131446784347 10.63219232384037 -0.9440039227048839 -0.9095346852834207 0.08243985176347092
Ni 8.37123097731991 7.298887601488987 5.286107537290465 0.3959835682894406 0.9977186386195203 -0.8034034034402808
Ni 7.304913227882546 6.290653982189224 7.271884070356952 0.3692690351127318 -0.00134520117398478 -0.45763836498676025
Ni 2.701761819223131 5.5483386172621785 2.677245790268949 -1.4343886288847296 -0.3626625855398076 0.9940833558597783
Ni 2.8757233800060757 4.750347555069768 9.426953439804619 0.8837035831529297 0.004941917386307618 -0.2257670259306176
Ni 1.514522562747625 3.735606622801999 4.137201443715033 -0.7792574023216967 0.33515383859657766 -0.39088224250713327
Ni 0.5803087196163278 0.5737286992408588 0.634900167667888 -0.31845015268865157 0.2679999664578997 0.18762085387819943
Ni 1.28679387414524 3.1295085857582805 8.32041395255831 0.5621915037095028 2.6540708605283774 0.8431662851605157
Ni 5.336869122653873 3.439914685072878 5.0447589335849345 0.5782318450018171 -0.7544439428224426 -0.5909042982631629
Ni 4.40255167146694 7.1733855277806295 6.222941573618237 -0.43931359853564345 2.0212935761805126 -0.5894850493181332
Ni 8.331814474048626 7.834232242644549 0.25174667181544014 -0.6450892689459987 -1.6323370899411824 0.6746034763550318
P 0.3539914635613327 6.175858074229902 8.15474012738364 -1.4381833200404717 -2.1271268671672594 -1.357052416896411
P 8.781627938749022 1.9526846654019563 7.908270195664881 -3.164850842535124 0.6900948871224115 1.3976933303462251
P 2.0323628955562887 3.27142435670158 10.657705353119397 -2.565958898080794 0.7880868276878685 -0.4932440300055118
P 4.213512412061201 6.635396154678575 3.8096173105445326 -0.04772018889409846 1.4869162664698006 1.0545976111947515
P 6.826053153900383 4.4334159659353 10.562970327721915 1.730456300113123 -0.04538022790701217 0.12020652898928331
P 6.618746158369378 8.116845935456128 10.710766310243844 -0.20792356999129355 1.172277517107439 -1.774184851349325
P 2.8181572901466554 8.757634494285986 5.880047078121059 -0.6970471500705286 0.7196389193281155 0.2506995275062392
P 6.911738833596408 4.3703695552383 1.9332345250628111 0.22778328502969802 -0.6339911021503081 -1.0377376022146194
Ni 2.7283818187807953 1.8113778189961665 0.6796188586284648 1.002984772114466 0.3453127814074504 -0.2847123941165742
Ni 1.9611914320752148 1.247322840318359 7.122970211445268 0.22538393155958603 0.10099910282289704 -0.8508981065871345
Ni 7.085182354101173 1.0011173817942496 9.517472344411795 -0.24621886602706627 -0.539731889154406 -1.404633251999168
Ni 2.7242011428516295 1.5247743072000133 9.426940716008312 1.0022509792722352 0.7813752199956479 1.5395547186011227
Ni 6.509294244858641 2.0788138404996896 2.963195844240522 0.693936886576321 1.0498955777333918 -1.3977558081530443
Ni 3.9704515489098986 7.230424488935939 10.584199981858736 0.03700537357975563 0.5770974742870577 -0.13697397825560928
Ni 7.583146299394435 6.4065950318161 11.490599606264777 0.9534023332006483 -1.230729747707061 0.9664560810608132
Ni 7.652754553615039 4.09908912956513 8.494894462462028 1.0539633200448622 0.6518211883531936 0.36511541795567437
Ni 3.772278421441526 8.826306640635496 12.704285273362627 -2.169185744010522 -0.10991697413781715 0.15588598466876377
Ni 0.1843496316243276 5.1158840460937505 10.166309613247892 0.24405116895178613 -0.6701420981495685 0.32029877586161615
Ni -0.12823223685862195 2.363654197664847 5.878358448582714 0.13212024970773376 2.4557758147657833 -0.5821293802840103
Ni 3.839869045105011 2.8474947290582766 11.474942974910054 0.5274695268472852 -1.361164896402888 1.1648303168007748
Ni 1.2757514366366836 3.604715112515391 12.821354196647786 -1.2833329757250735 1.0339789065031355 0.8870028227294918
Ni 3.2420051219565615 8.581346296464202 8.301312807774991 0.8841604681846902 -0.8426950019510518 -0.19156158369350235
Ni 6.067542213960786 8.236267852215331 3.76686535495585 -2.1223271317857706 1.7399626969416615 -0.42784339311251474
Ni 3.3151305970132237 8.596033192771879 3.659692818669102 0.24749079076095443 0.823260290265208 -0.4100292477492293
Ni 3.803815259428926 3.03069921901505 7.66709518089467 -1.038928537198927 0.6314271980778738 -1.9649427081946098
Ni 4.800651992608747 4.852901353297382 11.21200572424335 0.5708604922384105 0.7145615048052081 0.08226090298344543
Ni 8.085054621542605 -0.08968095173615732 2.975140762444222 1.0321012298644483 0.31024679094225277 -0.7953046855925465
Ni 4.7952625560304964 0.5566724502924573 1.7902136015260632 -0.49900278686616 0.09655212279513695 0.11857336426123452
Ni 5.946411673126186 5.75839031742494 0.3044177354673642 0.7707151691786405 -0.872737056839097 1.0030608767680405
Ni 8.309711422179648 0.1977414272365563 11.591094876018575 -0.5624128756916894 0.6446285272594963 -0.34277921635231934
Ni 0.6467578369826317 5.441295136623678 5.936340788349865 -2.0105810748590147 -1.815237912635893 0.42766495855312153
Ni 7.530487959538817 6.547083919887923 2.7963105318889863 0.6834496138917521 -0.8783150651475067 -0.8466498728337418
P 8.60237691407309 1.8208570472442522 3.727531556360557 0.514830497927036 0.49531325382971464 0.7119551775306127
P 1.680749873061614 3.5342979883867525 1.8430882459188858 1.3643121837826182 -1.3140149781899628 0.0607885920422824
P 4.736251406447734 1.3233020811179734 8.549338678013473 1.4147477147253507 -0.28096218304552256 0.09832001332883712
P 8.593797439992368 2.1965907521650245 12.653618207628924 -0.7069870348920598 -1.2940220800078035 -0.2478965108398053
P 6.54872892498179 8.06868636643733 1.543531000640473 -0.3005524464726243 0.5134459588746835 -0.11208981341941986
P 2.08702068911716 3.6249641254940443 6.246233391599249 0.17611079635607088 -0.024808574403247595 0.18309442676275564
P 7.029679336928536 4.502824274785379 6.06713777900677 0.38335816621594626 -0.08592086833353589 -0.4465646236711019
P 2.281040405934166 8.739566703531246 10.47813078048025 0.9051064743087379 1.0001131069936262 -0.08837087253592522
