# total energy = -340889.8041599554 ev
CRYSTAL
PRIMVEC
9.08094189779534 0.00000000000000 0.00000000000000

0.00000000000000 9.08094189779534 0.00000000000000

0.00000000000000 0.00000000000000 13.29087638310072

PRIMCOORD
 96 1
Ni 6.192702841964668 1.904464190982663 11.369002205257503 2.7418874032227296 0.4980141977006455 0.2594438493577726
Ni 4.708313936769633 0.16314456763756674 6.159324024264986 0.2535305691971311 0.6253223707317166 -1.2265712454539972
Ni 2.6281698461166907 1.480075457849673 4.669722658488397 0.4106421987428799 0.010738212353110538 1.691138733460423
Ni 3.6242311071077946 3.9642488101654942 4.801488939900352 -1.7204277122325276 1.2220034235776567 -0.7770421398379327
Ni 4.947378810062291 4.325506836045937 2.477020294475943 -0.058392323895963945 1.0043037480362058 1.3230986856587859
Ni 7.143432041591458 6.088063149837064 2.7142762441660833 -0.10144030412537368 -1.341678248433186 -1.1659536317719406
Ni 4.833331262250907 4.816967405163869 11.445012412236213 0.36569700149075723 -0.6846109811897048 0.32039287823731916
Ni 5.63150972092034 7.829642488117061 12.391894924925118 0.3350214267837714 0.09692107609878146 0.9545904399714786
Ni 1.662166502416428 6.692690415413748 0.4331018967706221 1.0649576142728368 -0.45288876611691675 0.09487524931334627
Ni 2.6778789214188254 1.8198933801882193 0.36316774793671575 0.43442618853635506 -0.9330379106116834 0.27691526666965854
Ni 0.47226436628980156 9.162034589803303 4.530753374056776 -0.27891121405376484 -0.5755316724618347 1.0812023582664734
Ni 8.801829953169307 2.095835958048282 1.2299163979847427 0.06228291719962178 1.7219490339730603 0.5369664105941269
Ni 7.208242723073251 0.8451923104513501 5.061192069575759 -1.7775599384691452 -1.0836222805618758 -0.518793596339842
Ni 0.7273634584828946 7.551475079520969 2.5631720972342347 0.38356796823390715 0.10271222885926183 0.2155988271483642
Ni 7.787298056598271 4.026979955979734 3.9802585105231243 -0.618197072540845 -0.16451280710582636 -0.780363748011998
Ni 7.3382908903004855 3.693918254325293 12.76986097558605 0.4572437006515028 -0.1711125718105311 -1.263164985417631
Ni 7.9547687848996915 8.93402122265655 7.24066985807442 0.5140604525302308 0.40816879750172286 -0.13402955091530466
Ni 6.8012439934484075 0.9794794613013529 0.26382950962010676 1.1751252709688795 -1.197010758188061 0.7255426864070601
Ni 1.6693949320730774 6.654223546034895 9.640205200626628 0.21055637962845025 -0.8305794496344404 -0.7505415224442429
Ni -0.17754149273511974 4.692622069374293 1.0512034637600403 0.6264125184721019 0.4889322900040353 0.9958219358174398
Ni 6.410472906783906 2.123886987205808 7.375572696777087 0.29481040178252454 0.47789917211832533 -2.8737063196399606
Ni 3.5498309511066264 4.314210144471978 0.38650758449892764 -0.8820524207027518 0.030658348315805262 -0.5481355398370689
Ni 5.885458257789944 5.750787891196837 4.869205522751653 0.7733222677841842 -0.6836378186431581 0.7263307295259943
Ni 5.133265688292965 2.7549488743032287 9.408743799886121 -0.19944330043442426 0.674624045180322 -0.29235217005001907
P -0.05959277233517211 5.939816775283291 12.25485261633915 1.7127002616812825 -0.9247203918849236 0.16626295702771365
P 3.967309087545257 6.257059476357476 12.889252657634792 -1.3213757894304083 0.14955875689915532 -1.9651921052012542
P 2.5648666009703285 8.547036888714189 1.408540338980004 -0.646521630517151 0.04989405661696568 0.2797524790081376
P 6.599492709928579 7.831195329161391 5.880774308019969 -0.3736255123092146 0.07695003229349327 -1.4314637419284508
P 4.843283974441469 0.924112959270458 12.80476266722219 -1.3285370830655379 -0.4258456459561956 -0.5327973668181017
P 4.221757076212745 6.370044553980635 7.988162132106221 -0.7639683373731101 -1.6366930529170327 0.8186299905820482
P 4.680916735420246 1.1869699000259577 3.8740114917005113 0.26071320298849937 -0.6027198028408522 0.0806760749948288
P 0.23881060692282638 5.544941102934359 3.279935372377673 -0.1410895430858796 0.23552770486180727 0.6338712887429921
Ni 1.557899128901792 0.9849643501362981 2.6702300441577758 -0.30405917407430216 0.2745531941953852 -1.528844274162154
Ni 1.7537659621483674 6.253318128344236 4.746849821306013 0.5435317225164703 0.40261007246702274 -0.3603624766517213
Ni 6.146789600326452 5.683543517318081 8.979674749359868 0.1364564151892424 0.7146921168458014 2.194146527720918
Ni 8.436194913351043 2.582801460985257 10.312643490849121 0.3689664162706484 -0.7435710046636806 1.0077716519801483
Ni 2.5950062467371877 4.8694552486505955 6.963023695536483 0.20708153370597238 1.4007334027241294 0.11218597267765196
Ni 0.6982081868049562 -0.32210191302050895 9.171555049165152 -0.7860191465255624 1.5739607068848183 -0.4046132189399806
Ni 1.7242165775971898 1.4123679559401519 11.470172069531081 -1.1365823776986748 -1.5014705101348915 0.5132132740385872
Ni 4.271357180213523 6.855502620582177 1.6797008928988708 -0.3015703462141774 0.7472546241628549 0.7276659033976499
Ni 5.887110989193851 7.768845582901899 7.885078005305481 -0.7278312253309207 1.315147034911877 0.9239912270283829
Ni 5.598055531403886 2.945394385307317 4.859449866997711 0.9222503330778762 -0.4842258856673015 0.33992374918139523
Ni 0.6793516111993874 7.405181107449833 6.936854237515713 0.46494004085449603 -0.5900134110177774 -0.2551555063950638
Ni 5.163033015446856 4.333180231849792 7.472183928277248 0.2073892947543783 0.7304285537444518 -1.0967675596945823
Ni 8.298200922066561 7.009606202583864 9.183145055158596 -0.6720436860476554 0.12725417986468407 -0.11063482614044819
Ni 4.822697479426866 0.20229159955572068 10.515847725053701 -1.0833314887943342 -0.38183427337225206 -0.8829021702975568
Ni 8.154122699789676 7.252584961783578 4.454929326384549 0.5091848696054844 -0.14047736342317743 0.9361697713724457
Ni 7.503954511187744 6.083123117508902 6.917741579351957 -0.06769303247159955 -0.09268698341277586 -0.027990314565338893
Ni 2.4148494427695115 5.341791354380457 2.3299435452233963 -0.7093789321630041 0.16438245217554917 1.2915589631792916
Ni 2.093256970582844 5.30653005744984 11.587889225915644 0.6929210437172969 1.0244905073967259 0.14149449183378213
Ni 1.1030438360978736 3.4653418687882005 3.6845630681038353 0.3356261502473058 -0.12271669700564672 -0.2466950343325364
Ni 3.3096582029168435 2.6993916724949596 2.6614178982547445 0.42954597762591834 -0.3778488063619428 -0.16386360355760168
Ni 1.3055397568436378 3.3464269361828913 8.221975496767673 -0.9572199071745258 -0.3740947386361493 1.179845302152368
Ni 3.9781063273213326 2.6178266534296 6.71735516138162 -1.4342788427797428 -1.2690453554578078 0.14930293213460738
Ni 3.9006731367657412 6.953703924987966 5.925750396466519 -0.30787726226881174 -0.06579067324256412 -0.25723707151444086
Ni 0.8876139299752677 7.932456910946942 11.908505496860991 0.13013458673627262 -0.515042613937842 -2.227908197552395
P 0.48101022131784077 5.438757650704205 7.999964632137311 0.15227564160968615 0.40942940938170136 0.33761901230761854
P 8.77821042360028 1.5194595023482775 8.456014068785262 -0.056234139902380575 0.9111758204312695 -0.6191473522692563
P 2.255215567223981 3.34772551085739 10.669875935238618 -0.9437982344519811 0.4700735054263195 -0.8325347735885984
P 4.06757176573504 5.910884894773133 3.827054849851806 -1.21955856158159 1.0156459125219024 -0.0904624649576313
P 6.680867029216564 4.052978692295046 10.431636519553736 0.5474541974993281 -0.21642415126313694 0.06340314684699402
P 6.464704291092337 7.799629975535118 10.155545014248487 -1.2631012220592313 -0.3499579934889457 -0.7733832029291068
P 2.149967451997136 8.538973012413805 5.742708577295429 0.9265204212081397 -0.794088039576626 0.5751886873001191
P 6.834979692160032 4.06539233970791 1.5888978317610118 1.3049469544504235 -0.8430277027001224 0.8785091834361838
Ni 5.295987084043597 2.835769256142652 0.5522919819118561 -0.6434584182107951 -0.5035590387782748 -0.27791414024781813
Ni 1.3754902513727474 1.0786978311864697 7.129983166815707 0.29374107997774573 0.003863339610148185 -0.7192540251848709
Ni 6.805030746170547 0.9701079293846916 9.171249929521352 -0.11797635410718392 -2.1068848290887714 1.846837027598413
Ni 2.763902682898023 1.5570727631998384 9.358784090590865 0.5675921058997837 -0.21708081101052937 -1.120464903311522
Ni 6.424720904436271 2.161645543125844 2.7372555673396404 0.3667267283068523 -0.18673356617723968 -0.6341253137353272
Ni 4.096558131895876 6.851579653733342 10.340235024352593 0.17154708824478843 0.7883747912419325 -0.4021439314638816
Ni 8.2612596509067 6.992652084281145 0.7042115974155227 -0.4304193813698071 0.9621232580134138 -0.7277862310255983
Ni 7.7730591398876845 3.9227489062322176 8.319423991099924 0.19651712792656478 -0.30432194081738556 -0.44355874696524256
Ni 3.2568616074096073 8.28294493987665 12.37893642100547 -0.3521534584783677 0.8187086663387836 0.6633546429140899
Ni -0.0837135698904391 4.91166346604269 10.195324987808686 0.49409326537968445 0.09267361367633717 0.7338314087784137
Ni 8.730898716927987 2.5073660776212017 5.600509201872764 0.519427373269099 -0.9281651559004144 1.44512221325215
Ni 4.0479024458401875 2.489894345637039 11.4823732229063 -1.543148092379336 0.23090666115002814 1.056905947612954
Ni 0.8298509674087072 3.4746589150541833 12.43909039554263 -0.43349802029513085 -0.6223936271206959 0.30887253630254546
Ni 3.0395274277957958 8.282527216554783 8.035491092567895 0.41691440490483683 0.17683301923407613 -0.2144135485910114
Ni 5.808297495487744 7.933201548172879 3.5963117516060747 -0.7904926089158838 0.8368825090343328 0.9118209102144361
Ni 3.1418878035366924 8.255347957808109 3.7882456289678577 0.4120964146909032 -0.2865214223008549 -0.7212214333238869
Ni 3.556923166636581 4.631779759450233 9.449094964684264 -0.6303501629636111 0.19186471675621797 -1.0222083962307686
Ni 7.058034865095061 6.076666567903527 11.45056813241704 -0.0749016344048968 -0.17649363361678636 -0.15312590542512336
Ni 0.5657345000283617 0.04245794329103638 0.48750309469033376 0.3274757532260295 0.09195910410781581 0.5383537778599566
Ni 4.675522656003098 0.33549902642811585 1.7722456786700784 -0.1773698655741526 0.183095198093704 -0.3323305102151696
Ni 5.829210904406416 5.505012201928973 0.3690912462596209 1.1257364361231064 0.9968717172381928 -0.15739547933475473
Ni 7.874638554635526 8.842412681982832 11.3125024016925 0.08791630149700988 -0.24917614888317727 -0.12766787036333496
Ni 0.15396736787499132 4.762935801574591 5.8458453735584905 0.5762235563225366 0.5827752413981253 0.43865719589856716
Ni 7.76003706937558 9.174112242370317 2.407309536809818 0.48481749650471345 -1.0567092582211157 0.06624627272274397
P 8.563464312393686 1.7428779129544947 3.54716206231757 0.05386975343526206 1.1596935097948415 -0.5048435619176531
P 1.748144859186727 3.536590937991809 1.3328624944704306 -0.8125873839323942 -0.9136073126908976 -0.2099236311404578
P 4.543894404906194 1.0778351417173972 8.132208571086878 0.6277721178237898 -0.8370493736295004 0.38616889619186395
P 8.620855864441456 1.4519971858668084 12.305530628129182 0.4193698084238649 1.4065235270433454 0.6740211214890004
P 6.357204102304124 7.724984634105898 1.4188008950968987 -0.3510717953784147 0.3407524157302777 -0.25764382003455627
P 1.845029427034458 3.0344693432244974 6.057409522765474 -0.140590491962274 0.38289845297070835 -0.5405024487718434
P 6.990899462517661 3.9889489718063067 6.17395796194299 0.33365231435038667 0.5477066798297664 -0.30419647098311486
P 2.4464238773375646 8.604837083142046 10.269806872285871 1.2484641888723467 0.008698299104946308 1.3860377483851678
