# total energy = -340871.77702658734 ev
CRYSTAL
PRIMVEC
9.25668948025555 0.00000000000000 0.00000000000000

0.00000000000000 9.25668948025555 0.00000000000000

0.00000000000000 0.00000000000000 13.54810073486703

PRIMCOORD
 96 1
Ni 6.020226846026751 3.595261162715408 11.997750732198513 0.5206751296332711 0.576789970348968 1.447609755560694
Ni 0.6937759162810431 8.715515631879773 1.0124874373491195 -0.028363381634041476 0.6857412381394061 -0.6078627804943725
Ni 0.44353797854760046 5.506795307980085 13.409192228940292 0.22584904412146264 -0.08055446181529997 -0.7611835755391213
Ni 5.33413027932858 6.53726849296604 11.7692623120397 -1.6412541899251543 0.6127283361167899 0.17479490575812476
Ni 8.250468809683719 7.723105953987317 12.4345553948269 1.7464549895342245 -0.8167669692313804 -0.3258312756440711
Ni 2.957780729104552 9.292235155820954 10.353458137551529 1.0708899205968716 -0.28496719043985763 0.33732333544407067
Ni 4.199361974103708 2.0312694235366573 11.378195877742948 -2.212733032473854 0.7006582644605546 1.4374688104719502
Ni 1.047662857328518 1.7898364488254266 3.6552102607187185 -2.5842970342683493 -2.219273404695533 -0.9208750499969044
Ni 5.008220756529981 5.938508791400928 2.4394440713086536 0.27771153731870885 0.22573951512679188 -0.2307292550318994
Ni 8.313969699436 8.95069108451046 3.117431778032628 -0.3634506286587418 0.9533000032948291 -0.584858092069083
Ni 6.858364537241141 5.365177215805133 6.02276780728579 0.6983357869749651 -0.3982111720683787 1.570901094122888
Ni 5.074720813669981 7.52513313632958 0.4621624377577453 -0.003347833426310363 -0.9597784119303211 0.5114533539246869
Ni 2.5086461561044398 1.8204853476548448 1.808739534388566 0.5419265828128796 0.4099842534439069 -0.20085406473902181
Ni 8.424688962165893 3.2954555042173115 0.11256597227881006 1.1996389398395275 0.5987088819092463 -0.12571511751233835
Ni 8.453199565728143 6.950542650966101 9.300445839379302 1.3353402220303003 -0.26825039190580896 2.6869789241103077
Ni 3.039683917519741 0.8772222111562352 4.577456083779637 0.8387362744136201 -1.228250432928633 -0.17997670706938038
Ni 1.2407203728786074 2.9742298662896545 11.78314919757999 0.05207512342868451 -0.6653274503697444 0.5946516811207372
Ni 7.820717744430148 4.5168571661756545 8.538202819446253 0.08329911443997266 -0.7022382073531648 -0.013653072007060358
Ni 2.93573129479115 6.017385042359995 12.466935294586882 -0.23418430346003538 0.25284999819033877 0.1469773693252243
Ni 3.045376781542723 5.047793104006805 1.2812887401422162 -0.8114370723780348 0.10846507218263901 -0.4437263828913584
Ni 4.735000310184737 0.7810424305741441 0.6149727931687747 0.1736978160392041 0.17997670706938038 0.4030191349799833
Ni 4.241822408694629 3.4578918910063874 2.4968475797081915 0.4200328959291605 -0.8326648714085595 0.7005425648182967
Ni 9.048441725295316 5.701259840329351 6.8362493804325135 0.21612796017895683 0.3805152974505124 1.3281426758405965
Ni 6.518283022866632 5.421781871903559 10.21510580542098 0.6510493431841755 1.2313360138324922 -0.09780039337994123
P 0.20337964997614932 5.860761856556987 11.100500747708743 -0.581902866095501 0.9575515794823315 1.0857976909466398
P 1.1510045385522043 8.64343379099041 3.444252159074902 0.9318606024741307 0.5662623313447668 -2.059820271500801
P 1.2313803732051305 1.9228550764843633 5.97855970972326 -0.09809452758159234 -0.4571226016926063 0.3699704320551305
P 5.95549481657519 1.4716192349749555 12.583557548190685 0.2612749890292403 1.8907890076993306 0.10771276739764674
P 1.4977601260333298 3.4935671722170727 0.3998991673873691 1.0715010718183093 -0.3055046482715771 -0.15809841893905027
P 1.9583081971478098 6.857318531331227 0.875720776124483 -0.22538238889768925 0.3127713571363194 -0.5363046086404119
P 3.872110231332212 5.028974254317827 4.0883020652013835 -0.0048904953230819 0.5146991145554942 -0.2582300315553295
P 3.739036063536466 8.656263562593423 6.042167977073375 -0.12145171425029405 -1.38691423745285 0.18714519979336156
Ni 3.9859952818602498 7.485801462778932 3.9762183664438706 -0.5715042964699963 1.6236290206442232 -1.377132475475738
Ni 0.04565121545063176 7.92179153673411 7.376128205958953 0.2268972828803189 1.4215261710997649 -0.20468989354534425
Ni 7.9360931219625765 1.9076278223090708 11.812873353131527 -0.07055569873137527 -0.21531163492524852 0.07084700471954897
Ni 2.238730347899364 6.574674775107289 5.951206192344543 -0.8747967675816032 1.0629652664331564 -1.4770609709422755
Ni 6.853606598854453 6.901519223542182 7.842331188669595 -1.8474697760864052 -0.0750849540602965 -1.2667964115226311
Ni 0.9259651608892667 4.151329012452892 9.584902055401125 -0.9787477539439724 0.4565831842493685 -0.6252539793876264
Ni 2.627733466113641 0.9723504318147318 13.120969465973833 -1.6415994890797148 -0.13799907708601394 -0.9169150369078918
Ni 6.865233000826591 7.067121398129403 3.959906228262898 -1.1904295054261176 -0.7875458675827339 0.4070128295204087
Ni 8.014376944795675 0.9806814523361683 5.940557296780254 0.2929900607443341 -0.5127021387301235 -0.39540404163688675
Ni 9.204129985462028 6.609776141570942 2.055896845866971 -1.3513885337424145 0.0979034946167088 -1.293742858204488
Ni 3.420106084596939 4.551671575265791 6.172515124151771 0.8395034915969477 0.6191404102907209 0.5145075673699784
Ni 4.162696227119919 3.312284165670613 0.0829788157314016 -1.6750701100333347 -1.5229618472394482 -0.7297464400757626
Ni 3.1682500775444438 8.506138572797138 1.7777546177314498 -0.6273764250472679 0.20569159533698123 0.3321860142175053
Ni 1.961511011703829 2.079709679524077 9.268012250820403 -0.07556934989588275 -0.6062434997233946 0.5075157094331775
Ni 9.121763962573425 7.068121120591977 4.392700893013632 0.36151921596398384 -0.29951577767799387 2.040704890827589
Ni 8.348497151152621 9.232825722813642 10.616467529744334 0.6323291410668529 -0.6536947512268226 -1.5983579047822603
Ni 5.9344265913454235 1.0498381793535598 10.278307704103439 1.643101527546538 -1.3468050281367903 -1.0740881158191953
Ni 6.706406722930138 1.5558736225150838 3.842797072793064 -0.4726690340676376 0.02854927239260244 -1.2377069503558424
Ni 4.879469462715914 9.130520790810401 7.909421822597671 -0.802445924623018 0.2692505510355492 1.5075941065341263
Ni 5.534111798600929 0.6700732372286092 5.768388426684246 0.2986475161404276 -0.35935254732996824 0.01810030914513657
Ni 0.9343702349264494 4.164686415355596 2.4675566372237676 -0.43712738951760205 -0.6087330989144678 -0.04305337954604843
Ni 7.283866782028778 5.201491175937841 1.7231966156744556 0.40862311143032204 1.2400703083816966 0.102492656649288
Ni 6.31010933341487 4.482866602448193 4.0761767276669065 -0.7225735764764072 -0.467291314695492 -2.0693068708349975
Ni 5.453069482306288 3.435314825393294 9.821452126417848 -0.652679936809063 0.7689732467868692 -1.3765758316413195
P 7.864927693330571 2.3525228315327187 9.538364049099433 -0.07993919682880425 0.7615214184945143 0.5642496717901122
P 3.7743410771684203 4.70668409710132 10.788203186773227 -0.058282023570344794 -1.148895904958705 2.0026872739332346
P 1.7619367867680824 5.155041108186099 7.525265506988976 -0.9202839533801248 0.44229067888609636 0.29511430617618856
P 8.447256771089517 5.1296037255273115 3.599960783958445 -1.0973056915862394 0.7535908507935279 -0.694680449610565
P 4.893974695112682 5.472730690736879 7.761856307439358 0.48139278709388056 0.09476057811235293 -1.1875619540703353
P 0.4315811127614454 0.6868121087940691 12.344447076867041 0.40687553261159604 -0.20481382071771823 0.689897940620257
P 4.486328604309324 0.9692494408428637 2.8019369565547727 -0.623209695264088 1.9170901074877047 1.190419992344421
P 6.720291757132532 3.1092942223210778 5.731225595476012 -0.9496163837956549 -1.0404413742990275 0.6081445734008494
Ni 7.300815780445167 0.49981402216990434 0.7779025615065093 0.7314071156076372 1.870156419050644 -0.016880063584790283
Ni 2.415533116743184 0.32427294010060864 7.555423801276577 -1.2431353204602655 0.6902416971129208 -0.15487759800890746
Ni 4.270231188672728 6.322828024744263 9.624950196716618 1.6310430537201073 1.3265439638949088 -0.3950258323618616
Ni 1.9106640164546613 6.38577351312845 10.044169000693197 0.46906691853867605 0.3038771399704831 -1.3185221220316967
Ni 8.747923301708163 3.177136499433976 6.7054560609217475 0.514838468346836 0.22920330530567623 1.280956247962781
Ni 6.375424534302933 3.2039253587551286 1.1737315625346831 -0.37148404048617956 -2.5759378636703767 0.681699978190497
Ni 4.9133674595486925 6.596511305562921 5.646347307065723 0.48584722332080843 -0.816510373135884 2.6813057849849304
Ni 3.167768729692094 4.108331689872811 8.745014849877235 1.1369832126815194 0.39551537040377044 0.03822819024326319
Ni 7.193114198481929 0.05962696520981498 8.131854516506346 -0.20776133338181638 -1.1348222004744586 0.30374164283388333
Ni 2.4745722821717644 3.1696941211014926 4.503741362868073 -0.3148009859718385 1.944944924916444 0.03116305586636569
Ni 4.650838489539291 2.671054772825111 4.768213311996862 2.1190993688770923 0.42391114793764406 -0.9094948331844207
Ni 6.200676750521067 8.69758542437975 12.333134476667878 -0.577389808716496 -0.09363212093486455 -1.4815789134172872
Ni 3.072350774653241 7.348302597417355 7.989450531395537 -0.3894851050492905 -0.1327044043459779 -0.24807365984761795
Ni 1.093761170880467 8.808711981446244 5.4723891188955 0.4787831173851755 1.7117150149498779 1.3002027548972188
Ni 6.389439162157882 2.3859117104447427 7.885618245630032 0.02482451524284757 -0.367678036476528 -1.3394938391873576
Ni 1.3425161869610938 7.950107749817526 11.758668030943275 0.12225184155408621 0.6411056017079023 0.2940033325001969
Ni 5.87439696014374 8.734908396315785 2.545444273747625 0.24366524636727718 -1.1105075349884939 -0.29356135986677184
Ni 7.167473168654841 5.650579465490612 12.851701626031536 0.9840511684347569 -0.4703797238128286 0.15744510162576755
Ni 9.139749710210259 1.2020551809696738 8.257648298035303 1.5791702761102158 0.09562703987770628 -0.14368764283035898
Ni 8.280654874039723 4.151958467336734 11.198832708592207 0.14029070133366808 -0.37486941201864477 -0.5828953119157575
Ni 3.821837150830077 2.421383344487126 6.856599286559543 -0.30067791630689505 -1.746631881431721 2.055277389325125
Ni 8.43967554241501 3.0914010415789255 4.407170024321474 -0.18556782800391267 -0.6748693284219086 -1.8680702259455761
Ni 1.8813573375981412 6.6025929505435705 3.1215361941428554 2.2237080434281187 -0.9214550908700905 0.7809461028780292
Ni 0.6681302581092209 4.74665448222528 5.005643694182018 1.9468454843732665 0.2079762776060999 0.18807851024090835
P 8.50447236869285 2.3431272917224324 2.0798503812039946 -0.6807275869748985 -0.8665445548751398 1.0358668675544678
P 1.1358791079610628 8.709545067172744 9.412976636238133 -1.126647635083466 -0.22615860494208148 -0.8847387092856634
P 6.150181509471693 7.980497461341834 9.894584601561858 0.49959928279957827 -0.1902706327962207 -0.0945435770055404
P 3.7660007999575154 8.500788206284483 12.430612970782366 0.1239780802165736 -0.866564866590114 -0.22323577486833165
P 5.453597113605979 4.910155388303205 0.3337601211366312 -0.9182988046292959 2.2740898383147803 0.47925388637400684
P 7.429687411222322 8.05697622972862 5.894385855381505 0.1667949182717837 0.04332745914304151 0.4558614755919955
P 7.650339118077303 7.688541475512824 0.8937176317886796 -0.6605601108880882 -1.1058872626076632 1.2341130623569971
P 4.081829787925175 1.836342056713979 9.216868115839304 0.07736012324771839 -0.8119968015362469 -1.9118370866188816
