# total energy = -340892.05898964603 ev
CRYSTAL
PRIMVEC
9.03955136576877 0.00000000000000 0.00000000000000

0.00000000000000 9.03955136576877 0.00000000000000

0.00000000000000 0.00000000000000 13.23029715566006

PRIMCOORD
 96 1
Ni 6.029118454062479 2.301903615134844 11.241611091042595 1.3489272166861155 -0.16282050700506798 0.03853209463692719
Ni 4.528191385100659 0.4857809577359295 6.0285173239126 -0.21958583682057017 -0.8606852678808854 0.17604497611514197
Ni 2.5091262851473757 1.4842852553388455 4.708054045720113 0.9393116594355372 -0.9038034392265983 0.5561962053580163
Ni 3.3296011430991928 3.875273646820466 4.5851179583166735 0.3580975918769446 1.337626961181948 0.2980990998361253
Ni 4.901389253337763 4.415413945252625 2.7561618501841703 0.5344161333684474 -0.3390742566969064 -0.43421381541523285
Ni 7.09642729506098 6.157534317358502 2.51537080706522 0.47821618913811187 -0.5380107926982411 1.1211336472437723
Ni 4.929502257339638 4.550067098825591 11.64903812357343 0.8604561825892147 0.16203503498929514 -0.45027266865030835
Ni 5.737439257879686 7.994054721873246 12.33772807752456 -0.8286912314727922 -0.04846915124498104 1.0347659211808051
Ni 1.8057045747261944 6.477859851059605 0.48586321765117607 0.10289837672813891 -0.1815823609936034 -1.4436623408771718
Ni 2.868972736371371 1.5907440489498026 0.3653985435255871 0.10148067044500587 -0.5661137215820444 0.2727459657833174
Ni 0.28477749889808895 0.1185184587681602 4.759069656454833 0.8857265271202294 0.8111843329372804 -0.2126675124341821
Ni 8.729792827569895 2.47803022927392 1.3506680343249196 -0.06482548111581739 -0.11211141068597466 0.12607121530017643
Ni 6.7188814027322685 0.5885434788914635 4.650171087994967 0.5602852878257254 0.4720290864907935 0.26317503426543065
Ni 0.878166177193091 7.417837574897203 2.6894816013031964 -1.8506805697142192 -0.2505743147822846 -0.28942625465247573
Ni 7.467609343396984 3.994686117194988 4.004771544386272 0.8469630331987864 0.18355285445641292 -0.4627654018006805
Ni 7.654954040483433 3.91445106140057 12.74237635203926 -0.23806589790262872 -0.6619125111509246 -0.9940224207148559
Ni 7.891121353201431 8.94272849389406 6.68099574000807 -0.06767220653599314 1.039262780609894 1.7762610171520636
Ni 7.107573061599343 0.6732052028722857 0.3339309621008521 -0.9708655229824183 0.7527467576256778 0.053599273382694795
Ni 2.0966334881655295 6.155816802644561 9.293119574640256 -1.3605213492816182 0.6870399023461716 -0.3699537198845822
Ni -0.03987255606169412 5.011382511438988 1.2866544530261173 -0.09923506894393878 0.011649925534102518 0.4341778199709748
Ni 6.318528722912646 2.0096910854356165 6.688827607103639 0.9583704758392011 -1.621317598902227 1.2838729073889437
Ni 3.392019243624255 4.401827499910239 0.5707988400311161 -0.09868022488173327 0.34507058348965736 -0.6690092700967059
Ni 6.03352975501197 5.786397466778127 4.939055254969599 -0.08405784698286814 -1.3126481797494232 -0.4737067313035326
Ni 5.700467493774327 3.061334384332751 8.715589884840716 -0.6247680408901434 -0.41579468947809683 0.696118210498356
P 9.260387360012992 5.5040832455618744 12.329737114329172 0.38926810394247796 1.0645207838457345 1.5125738191369047
P 4.00685335301059 6.28127673272238 12.66196321708766 -0.4514882862249643 -0.6021603307929565 0.23930645517794916
P 2.276583832430905 8.397408532666702 1.347227581166362 1.0313522675135658 0.825613620988733 0.23297074276790847
P 6.141895893910514 7.7564591600773385 5.81171182575139 -1.0581963842896032 0.7348215406058248 1.2280817685612528
P 4.859391498806345 1.0155574108021237 12.655202536800521 -0.1844763947119468 0.07684461706388056 0.05102945577298954
P 3.937592312283142 6.211283488353726 8.210523948732568 0.9356403812315369 -0.49856107134305094 -0.6902828347635015
P 4.72955642598354 0.9021119481258774 3.9062585162150723 -0.46704448879200855 0.6506788472186342 -1.347170896116641
P -0.11871552098270709 5.76659181026105 3.7872121476611533 0.5061622807290767 -1.1279768954178508 -0.6007012297489267
Ni 1.333397067943575 0.8868233553064657 2.6048732106740173 -0.29256377184019294 1.0329409521569244 -0.5328739856923081
Ni 1.714640136682823 6.375197668921569 4.843439402934285 0.9396898687105624 0.2982489951504283 -0.5608136495253697
Ni 6.108087972699256 5.643545440333875 8.87096711332516 -1.0672176139516074 -0.049649801816643524 1.8523764693594031
Ni 8.588242496487787 2.3659397953114616 10.023550559870827 -0.5257607716862945 -0.8909893181810654 0.63998537206053
Ni 2.4393409504546195 5.138297809248095 6.861972977281359 -0.0888616961294147 -0.017809774487911264 0.2479972980837277
Ni 0.7428061307220714 -0.17815147359130057 8.911094584728607 0.17075698824332528 0.9444690352667606 0.2828154342041775
Ni 1.2964885806960977 0.9906624870011068 11.258717537593446 0.599658133196393 0.15017556454754782 -0.7119672617154705
Ni 4.0013121081703495 6.799713068901002 1.7426943836023787 0.3287471637392855 -0.13798956400431717 -0.2062263847945287
Ni 5.6984697529754795 7.920743962241349 8.098449785962137 -1.1894823110214998 0.2323189681165225 -0.24414861376159888
Ni 5.446121643741932 2.9375919689688725 4.7705408468337325 -0.5519873094829914 -0.25262836909783587 -0.4536791232286961
Ni 0.6556106205606301 7.367134732631442 6.881646656351995 0.4746726947612276 0.4114171292356915 -0.042914025754706736
Ni 4.88354517941503 4.745104453920268 6.8375499180491195 0.5395354568728837 -0.8179103388072042 0.2601658151254616
Ni 8.494809696049403 7.046049876635755 9.400668538117008 -0.8620996317299089 -1.0181745924810273 0.08916148675802064
Ni 4.2812941251960925 0.11061517921869429 10.315834502023948 2.142476610150452 1.2046441063636026 0.4244292252246432
Ni 7.933236621897487 7.356576536916269 4.862875341810307 1.1283453345008632 -0.7717587799518063 -1.2989547414227307
Ni 7.3792567706914145 6.501832740645769 7.21278710902025 1.0666823102734275 -1.1656834088296892 -1.294726562273996
Ni 2.171951028147401 5.386352131696789 2.4178629769792326 -0.052115489748316694 -1.3235357731962043 2.481254418652862
Ni 2.4183872709445406 5.0664514568986085 11.392740634452931 -0.4301635566052592 0.12052457445033438 1.3916802913829258
Ni 1.2633676653704164 3.198238386136092 3.675958776132963 -1.4009249499096452 0.9263412153177982 -0.4175854628299325
Ni 3.6016554737874293 2.1500210771157136 2.5291696818590665 0.1098418979255076 1.2462836362812602 0.7253421403604798
Ni 1.3287507386648085 3.606148130697054 8.353768291695689 -0.018764939312328973 -0.548323487478159 -0.18775917922827662
Ni 3.6623560595985514 2.645722942212433 7.194847215855581 0.23777767723824855 -0.06328976119758133 -0.4222954667110921
Ni 4.033411554218792 6.775252043554032 5.958052214975168 -0.2118146775155836 1.8079688897783057 -0.16622953268661694
Ni 1.0091393295026605 7.488960763156608 11.722188883150396 0.3263922903538637 -0.5329860857901402 -1.2236183334732604
P 0.3775422765082618 5.5920380780179 8.01684523817213 -0.3368283980855232 -0.269382191517407 0.3171460891652474
P 8.55371141118645 1.6631960512247301 7.961900134562935 -0.3750265064217993 -0.7615381306650626 -0.24710949616213568
P 1.7729000436899234 3.086437217809666 10.44080810425119 0.7458112068481091 0.009623639132693105 0.2942113347459449
P 3.891174217251108 5.9327297204058915 3.9035195322238927 -0.5256635839867979 0.6828274069267208 -0.1924750966467072
P 6.9161063291994385 4.10708389589573 10.231716055065801 -0.24974436268182146 0.22610152645190093 1.1954503556794769
P 6.242081239040024 7.715103213675867 10.278088048387094 1.3983479332110886 -0.6014651044981448 -0.9146252124324507
P 2.144064012923676 8.512608572216505 5.720343658790185 0.9009803679555064 -0.13951757061306938 0.7526850511498069
P 6.9025560420615575 4.040263533972304 1.6169940014646078 0.14869358068538263 -0.7250652325500094 0.5812042973665796
Ni 5.149633406360104 2.981225882254097 0.5368128396626763 1.0204960415253523 -1.1340387853412148 -0.33503402518926173
Ni 1.4783733889024382 1.3034219164097436 7.062927622543119 0.04597543828884985 -0.543615026258896 -0.2773983769536642
Ni 6.882551515419709 0.6699907384918783 9.451129120412594 -0.31797629837602653 0.20846735830990548 -1.1162619209737679
Ni 2.7734427600717533 1.6442129938601204 9.224970398701307 0.08541024724570452 -0.5901928740184351 -0.3214012648971755
Ni 6.4987864119163055 2.031874143898832 2.5726182843462078 -0.3715375194319343 0.25082062646513575 -0.11029261230968102
Ni 4.131273734708919 6.731075757201248 10.413474309556376 1.022431053764536 -0.21557414455801582 0.39084033352560427
Ni 8.277055948975075 7.50504212460977 0.3417926597151384 0.4652969099732825 -1.404293352161246 -0.08671611054132163
Ni 7.919080684834164 3.8821256265739774 8.162034892537566 0.11796349859137747 0.31371315222429846 -0.4386158011376704
Ni 3.1519739634732002 8.318393816274295 12.519670738858107 0.7466401305073076 0.37068597006491644 -0.07651808696239726
Ni 0.16339621428832313 4.577791402129047 10.447052626169034 -0.7280052890149398 1.1700751101394817 -0.7380397904328064
Ni 8.726195086221745 2.4486788067677825 5.701754725854669 -0.6025279985450205 -0.3761161399415523 0.5617006801160133
Ni 3.66005097406142 2.476945483138799 11.454738395850633 -0.49279768649671263 0.15024781254637995 -0.035412832281655135
Ni 1.274124731210362 3.1376281958362306 12.729636008682268 -0.9068615093266317 0.4148860616208984 -1.0764375898879786
Ni 3.1176417482966343 8.509327215157766 7.8038110407406895 -0.2001891774615133 -0.41214809386444506 0.5332529662982817
Ni 5.412774739638101 7.764314530005837 3.6178642929114684 -0.31963980212137855 0.19882752122729627 -0.26371136638487486
Ni 2.8083354274181316 8.302809630133064 3.617202597769045 1.8674904421827063 -0.24424657279204387 0.3194623960032498
Ni 3.6825956145696757 4.1749799644031516 9.508283490316982 0.07728067616003464 0.09201541126704799 -0.8699198991052761
Ni 7.180594555595209 6.082894743711081 11.622326249996085 0.11499258888851163 -0.4496527756781224 -1.0919966206685001
Ni 0.6895622706347911 9.392003224407622 0.21266628770061172 -0.3903248273417665 -0.043867905027543806 0.4818450441399508
Ni 4.548919075832588 0.0940917837154703 1.6186211206672885 0.5412292996355389 0.4336474013888016 -0.48449456594765594
Ni 5.78813306059432 5.524991727316324 0.5746777114192848 0.1011104315897807 1.1083629778416655 -0.9499256875059575
Ni 8.141661552209777 8.596251538785427 11.164544397917842 -0.7368874219959181 1.168122614398801 1.052183345326304
Ni 0.21507171225524155 4.809574532550933 5.886212190311471 -1.2905822010883192 0.06678311906282046 0.168920963475851
Ni 8.029580157798444 8.974258448221565 2.6454110776985855 -0.4083837417260064 -0.19311478711323515 -0.5065700576904566
P 8.498172409068276 1.9798876853731788 3.5674308292692634 -0.8041978743171182 -1.7039837077438913 -0.05195145336662666
P 1.7877791448433271 3.3547762929851155 1.5692588438335149 0.3157378959638111 -0.12427889928644403 0.46576587918990103
P 4.9836672476866575 0.942888459300172 8.276304762276505 -1.0771713827302096 1.387226112266314 -0.24831122977972073
P 8.427799503552329 1.7621610569522297 12.209791310438217 -0.17892152633198866 -0.4311601161905736 0.06804373094279895
P 6.465656457039498 7.839180092431408 1.394089518158683 -1.168536562007768 0.23704285595475302 0.33543486017210616
P 1.8385271848647176 3.158057581381001 5.9653823869832445 -0.0674462065681161 0.5125658702625754 0.5267904985023895
P 6.85422156219081 3.978062382674265 6.274613679587403 0.2424691691766469 1.5451468679769196 -1.4241769784590503
P 2.449591801431509 8.238303393297894 10.149728230308051 -1.950644289294066 0.08039736741214541 0.22414080318110433
