# total energy = -340871.4202325548 ev
CRYSTAL
PRIMVEC
9.28093970941636 0.00000000000000 0.00000000000000

0.00000000000000 9.28093970941636 0.00000000000000

0.00000000000000 0.00000000000000 13.58359339649212

PRIMCOORD
 96 1
Ni 7.077263976980323 3.730984100988874 2.399270438807551 0.16701577603333817 -0.06149744518384892 0.04060800332934942
Ni 7.33333437991159 9.105910304171154 9.305943322235665 -0.37967377538582353 -0.21301486847127185 -1.2069930662117536
Ni 3.122934065888845 4.518379011818083 2.630490198018447 0.07786560212922719 -0.3956945762941121 1.2251946768214448
Ni 3.7283019094609435 7.644282978360692 0.3417223377858239 -1.4298334054138795 0.32264953548197983 0.5777214810243018
Ni 6.145615422834066 5.866936651176019 7.5960814907501 0.05967736125597465 0.5945624638410405 -0.9236107037605126
Ni 3.9223849171844276 5.074075266955976 0.4878943513064131 0.5864979416653513 -0.13746660162131163 -0.8868429001128598
Ni 3.5492725856762255 3.3814639177990102 12.25689693792271 -2.0410720443590207 0.6997956593499433 -1.5012259982242533
Ni 3.937410758304565 5.579737977017487 5.076990410066436 -2.1535488088042136 1.328809620000634 -1.813137578463439
Ni 1.3782566458955776 4.469078660965598 5.28461523667713 0.9784261089384957 -0.4747081759848534 -1.1943532659605558
Ni 4.375768094800147 6.615286649347773 2.5570705414815813 -0.1424869376540385 0.06214973405586716 0.03493512131428823
Ni 4.963056668142456 5.026074247639514 11.192078966555624 -1.115242221460002 0.8232667180231112 0.07741874439979571
Ni 1.2426435572930743 3.6269169258930707 7.584807005393249 -0.8642868691892146 0.6008187291633976 1.7857951818947437
Ni 3.8700496991013784 0.5523848159089464 6.937222952121848 1.4328711637989386 0.6431110621737054 -0.7234804045613926
Ni 7.742595970939827 3.51139707140119 11.633450752214776 2.0675420656250907 -3.0571630148381415 -0.39450826929549476
Ni 1.1206084832419985 2.8817688518636566 11.258842333252241 -1.4949388796639609 0.32941179390647785 -0.32524634967487853
Ni 6.685933161149187 4.282327595481094 9.689163525000161 0.07490497683900647 0.25494853259058026 -0.5205956825455873
Ni 1.6443319016542126 3.650221365085576 0.8853524434238463 -0.19963561895088844 -0.8935663348796223 0.6540909582239767
Ni 1.9220454555997857 6.629820600672131 3.281633491604593 1.6858301767633161 0.41653336741633423 0.23298488383529556
Ni 6.961660594032555 8.74348033407696 6.928257564523298 -0.7685343594772378 -0.35191486010500034 -1.6845469391755183
Ni 5.734358429804081 7.455972715032961 4.342226779291699 -0.7850642388114609 1.78476005576201 1.874927358076726
Ni 9.241012941098791 6.787364549414773 4.541307572959096 -0.7834763254990508 1.6092886927621508 1.1195693880804458
Ni 6.97889529876393 6.333424515426474 2.9987550948033332 1.393726375278677 -1.4145389411486542 -1.3413486330079094
Ni 6.058021915427111 9.205541190165397 11.281092457712662 -0.31303155277624156 0.4988032692608441 0.7343384303218191
Ni 4.963381501026461 3.7684419729844736 5.800207623955711 0.9291825414213352 -0.8354825433630128 2.004544895967264
P 0.40678543635816106 8.74467757527801 12.61804428217206 0.09651818423340797 0.6947061606421777 0.057632820022120106
P 3.093179373713946 2.9880448905706967 6.4726775885177465 0.6339214252546373 0.12164120455328083 0.6981720077035911
P 5.257828588968087 0.39486406951516106 5.006694717779748 0.000992702930572484 -0.9181620219411154 1.3372418099283874
P 6.929678476367333 1.5607477601298392 12.268484190942162 -1.291881122405401 1.737198503932963 0.8674081884270158
P 1.3700244525209253 3.3603961850363713 3.3195043654098573 0.6448902655613151 -2.0352353830725853 -0.753480807578225
P 2.3191026111289608 6.838029198380082 5.922473793401408 -0.9111146281760308 -0.9867024900146749 -0.15714402544558098
P 2.5309307752586854 5.363649861637519 12.235421771914131 0.12580433479203496 -0.45461346211750736 0.5074779142167066
P 8.400577460781266 3.7961084537621947 0.7443536256045323 0.8186423318772224 -0.41445463051043463 -0.5218663217278948
Ni 5.053861380631294 2.683286678796784 10.689404719026962 0.9569041757063198 -0.668181631989088 -0.33258736342098205
Ni 4.431305237025536 3.1892927836213865 8.425644350392988 -0.22495250044912227 -0.6820496482204318 -0.6339345378807597
Ni 6.60138380191234 1.684295627326426 6.2415385734808755 0.6542012585495959 1.3013204134414298 1.124919596648766
Ni 2.7605226576737367 1.6143173431721092 2.2117351339316627 -0.76528397086074 0.43348053679363413 0.9845944425327366
Ni 7.9180335711213985 6.39751868391052 0.5698524722228508 2.141612462377944 -0.05061833637749993 0.1751144938810726
Ni 3.1708515567494207 6.97522932764444 10.927919296718668 0.005849516802241539 -0.011711632009973378 -0.2780774052985598
Ni 9.234627654693199 4.905106481635885 3.1743365495478217 -0.7945446674980703 -1.2931702735304695 -0.41612327646210917
Ni 9.198292776382303 1.5308538538617948 1.8847778428648176 -0.6551409967550458 0.7331570084192083 0.24813845164728232
Ni -0.07745222476830499 5.561714392424956 6.687433889073292 -0.07595038738438534 0.9755973812404489 -1.8548465281664508
Ni 9.075598755623675 1.4823795066286387 8.414492373438105 -0.7017347853541851 -0.04044705227145292 -0.34072259093360674
Ni 4.477691372861514 7.3136216643222305 6.390767728486933 0.4221255167921311 1.5030782209416436 1.986865733519946
Ni 7.916409406701372 7.516363788639346 11.762603378801389 0.36994677790604674 3.4141077240575655 0.12555185246159667
Ni 7.5897203347873194 9.220789773834568 13.552704501200026 0.4488205095848141 0.5800835534985752 0.40775844943718165
Ni 8.435121117760358 2.4325620970422923 4.083540079503257 0.9065488631822195 0.40781501370672996 -0.08070615690181585
Ni 1.1690364257774393 0.4915306234193656 3.674891958578813 -0.23460185061342823 -0.511281604233513 0.6378508422160305
Ni 7.118545596067644 4.4855152048962745 4.821836035868065 1.1611014458859614 -0.49588558139341693 0.5363246632450699
Ni 1.2595998338381587 6.227315533631208 8.33375191178971 1.3509126225472605 0.8461585350196202 0.7846878293086487
Ni 3.3712456033621536 8.049748665115835 8.707803474379665 -0.8375291414793963 -0.5005577900581056 -0.37419886831418137
Ni 2.2019678731565957 1.0511220888834614 8.507145849083908 -0.10446777809778782 0.24091647997754637 1.0753387003968449
Ni 1.4368286553515317 1.7135584297055453 6.323950532340966 -1.2464181049765952 -1.2220772142383858 -1.6533980243765396
Ni 7.830662806263476 4.181898548686152 7.616293520886874 -0.626126611800567 -2.180412465964277 0.16527668185504438
Ni 0.8450434668006329 6.659278302781654 11.848492905708246 0.9352498306613377 2.0761750587097403 0.45794766869706294
Ni 2.545520412220302 4.428223965097256 9.808740078166293 0.2814766607880959 0.4313040979676056 0.055909409573110164
Ni 5.942019452078993 7.816834206344387 0.9693291686908893 0.8280268584159158 0.4513620450597452 1.2861521903414237
P 5.227609849816037 4.711255497400976 3.779131759150116 1.0102609940609053 -0.9368153753762446 -2.99197783639006
P 8.862629035930158 3.0018549286106997 6.0739582167164174 0.2450564702878489 0.41971125092368355 0.6206887286144471
P 6.607537064829358 2.407522122155244 8.513517214080188 -0.5329125522397273 -1.114288599297481 -0.030002459899361233
P 5.9722289102915 5.87288573342309 0.1718300989812025 -1.542556224431608 -1.370883923462865 -0.9177879264311485
P 9.27504614640302 9.275760778747832 5.4895782898268894 -0.4448522689656855 -0.12663351556154967 -0.08834978949000268
P 3.7495738228935283 8.876429793030619 12.054189153081902 -0.1364880397581262 0.35505237729271755 -0.5970813736081524
P 3.076798515420528 8.753958514821022 2.379220825112781 -0.4994010507458432 -1.4829716799997559 0.05319509596574064
P 4.631522945786952 5.364559393712734 9.029001014366115 -0.9583877022303817 -0.38518133546761407 0.8930600846671652
Ni 4.7109121026378835 0.6657013753533159 9.566747932427822 -1.0351500439931012 -0.14382853928359746 -1.3601274562773094
Ni 3.249581766892798 5.066928943507857 7.222464276130759 0.02271338243711572 0.7885948776725387 1.124406147347457
Ni 1.7467841932695312 8.708166359115797 6.787965954297162 -1.0956082492791581 -1.140929598923777 0.43708496631544075
Ni 1.686569457514464 9.204176892052574 10.657714022863392 0.385383167065775 -0.2353209881676399 1.2195194808135386
Ni 8.255701994514835 8.580739059190229 2.408357406714115 -0.4652570578742826 -0.1910177953748904 -1.1086391143211876
Ni 1.1504188610541557 8.573045160309073 1.2389645928582238 0.3337356180928123 0.24175234561528045 -0.6062797522779688
Ni 3.1674547328766773 8.540598995666699 4.722241345538039 0.40985287007236504 -0.016311335565513844 -1.102139879750089
Ni 2.2487159656347515 1.2820225837740777 12.939485910868493 -0.8090168929723164 -1.7561326218333044 -0.997404192702895
Ni 1.7129922923934218 6.1629707797795 0.719425021992 -0.3812634884704466 -0.0008584913455533601 0.22666022716884834
Ni 9.172881563913535 1.8822395058998036 13.170203571250111 -0.4298581095496984 0.5415321755879383 -0.4889669998967128
Ni 8.323378605662484 7.2395412048899015 7.991798478609264 -0.12433494933536005 -0.3307433682337078 0.5165675352228007
Ni 4.954462518125626 3.0020962330388183 1.7044965203357476 1.2693721426696074 -0.2540599593380399 2.069269846949475
Ni 5.263211533903035 7.293240721085775 12.11675567891717 0.8749967994075512 -1.2663197289965287 0.4065947681463836
Ni 7.435740266829193 0.29480069173821394 4.192684856623042 -0.8861430458323578 0.17123058544563413 1.4852301370166292
Ni 0.36613213687790197 4.676748964180054 12.797252728089957 -1.148133572871384 -0.5299683820097388 -0.2066498454851925
Ni 4.774226672200317 0.6440712176543703 0.3675177811516738 0.33922955132784804 0.04152228761350268 -0.3794302919164498
Ni 5.108442586083752 0.1441357753848522 2.828253098270736 -0.27981624236653746 -0.056104556303051764 0.34596095651441067
Ni 5.718228156878324 2.3858882520804814 4.168315893664953 1.2887945130602771 0.16298454338675802 -2.3993406145961904
Ni 3.522803346099553 1.7791561103955602 4.686597897223099 -1.1831450559495624 0.051378097361659894 -0.15940119691087384
Ni 7.261230760601923 5.546521494393044 11.740883195988875 -1.6705750503764585 -0.5505109820477808 2.166678918428268
Ni 8.390693260167957 0.8368660309692844 11.00569913865284 2.094364585134574 -0.10960047133866285 0.16094925812428412
Ni 5.802591897324311 3.425938180089128 12.925984000021316 0.23361197589633315 0.0032141360619234965 1.44499468653535
Ni 6.414790512400066 6.769071817575496 9.933872201742872 -0.33476277380574604 0.7047144368077992 -0.6884416677897047
Ni 8.851835303241634 6.009835277319787 10.124924982705561 -0.5463470804780785 0.8325653697162179 -1.0835837140144564
P 2.766388211464921 2.183294622796054 10.263804033933253 2.2231115474947005 -0.25070544104351017 -0.4448535545172661
P 5.462993038505928 8.069711966072857 8.402308356006037 0.5436487077103088 0.6557457202185805 -0.21747958911084483
P 6.801842815101874 1.0758650737051336 1.882400994247852 0.6594064568996192 0.5623725093720572 -0.19428103950719444
P 3.520260368664768 2.4167288141819125 0.4658456232340775 -0.010838999597032948 1.1071928687929642 -0.337214063559716
P -0.11030025409289032 4.122454130913155 9.445269714749326 1.139024154370948 -1.53178330218582 0.17737140823604938
P 7.284980684892493 6.471162939184327 5.615430614312006 0.2543972880728006 0.9760465529627256 0.9551586537701225
P 0.48915748717821717 8.501368464218384 9.00796019632815 -0.10723197110648627 0.4553287430169772 -0.7516987759771376
P 0.052103194594474045 6.820052018485265 2.300001509455486 -0.0013932808031008263 0.09362775005949037 -1.1217774514753585
