# total energy = -340897.0374747762 ev
CRYSTAL
PRIMVEC
9.02893886155031 0.00000000000000 0.00000000000000
0.00000000000000 9.02893886155031 0.00000000000000
0.00000000000000 0.00000000000000 13.21476468301128
PRIMCOORD
 96 1
Ni 6.317485420112939 2.042707160778157 11.35102050067239 0.4614443689964118 0.2707322777873983 -0.05950766844732977
Ni 4.603828912479226 0.42550771144231037 6.208746296084845 0.5328750141335726 -0.09431217772102467 -0.863545620147816
Ni 2.8429239670257105 1.471265611071432 4.85999435838947 -0.4587184854248164 0.2326920351852251 -0.21100580846104305
Ni 3.210672652751022 4.339425462619663 4.898131693858047 0.43405337857796855 -0.6277266092978351 -0.36210259927127963
Ni 4.979730730127197 4.527588551510296 2.794288684174546 0.6566620613852627 0.33485224819575876 -0.43545128736675975
Ni 7.165194445533463 6.067618562053467 2.7246204879082785 0.18478184176750756 -0.7155729767888579 -1.6119806377720174
Ni 4.872150921867509 4.586502378526197 11.427903722098566 1.0169463765008808 0.7673436816032463 -0.20546893780321387
Ni 5.543714376214745 7.702407287467425 12.284603764981535 0.07721202770562831 1.1377591716155953 0.484077018794263
Ni 1.8395740910151315 6.267392866506162 0.43717580932011096 0.5326927229194374 1.2672651236289336 -0.2532968559197702
Ni 2.942395788057769 1.531967168010574 0.46891704439664744 -0.09328913577314903 0.052278240578426095 -0.7741938717558602
Ni 0.5964797004650083 -0.2752490113938927 4.666926749830632 0.23697240772813377 1.1763365176681613 0.10190130292219225
Ni 8.45357889703293 2.308185054379466 1.3888449413527109 1.179635243024091 0.2599264454211459 -0.674238122595813
Ni 6.863411188187949 0.8470210202682475 4.689258927568736 -0.2817409701930761 -1.1700630259546236 1.0420701681517022
Ni 0.9675952775457567 7.410131502895513 2.4762885494798725 0.04964517383095321 -0.3605159715104501 0.23179034930656206
Ni 7.634726360676438 3.927146049715436 3.6893906104389735 -0.11395283477008761 -0.5410053565501908 0.502639869398115
Ni 7.436297368135678 3.884827412593056 12.683029173874543 1.1971858503133446 0.19090183862231638 -0.4377416260628332
Ni 8.055953452135876 9.18315328449544 6.8895048219160655 -0.20023982819379063 -1.4544249787103145 -0.687788607586738
Ni 6.999459241134402 0.4982899887718397 0.3916437728054002 -1.0682745944612118 0.37725488153168574 -0.22635066634822953
Ni 1.8851612040577803 6.410745331108685 9.22518751003912 -0.060323479480405784 0.5864843148185964 -0.8821357244451775
Ni 0.16549232593979368 4.714505646818064 1.3691022633216043 -0.6057354497387245 0.06373404782385152 0.2302746839929841
Ni 6.48157735761286 2.0109252954760928 7.051055113085722 -0.4797261980247351 0.32661083412257297 -0.29200070024787134
Ni 3.4660561925433226 4.293007687188437 0.4161392843294063 -0.6670907129177542 0.33198469683997667 -0.26873710173424037
Ni 5.947145428892829 5.55001657564112 4.90849240136774 -0.6799570273574612 -0.010775236238633057 -0.9745164894714442
Ni 5.215205459410676 3.0518445866917547 9.182094189950005 1.2062417898680258 -0.13475125957267758 0.5870589563751437
P 0.12956978920945433 5.670959213630085 12.492960978853587 -0.46692056161963463 -0.6251639907769815 -0.631753471069041
P 3.8543818302639195 6.3691219222897875 12.54061391314087 -0.22093000955329045 -2.222195463438334 0.1352690797493606
P 2.5150561048910873 8.422564491546398 1.2283943749540174 -0.9190035440058043 0.4425984399345023 0.935596415367479
P 6.40427158184119 7.9071113926175425 5.833737440504594 -0.5293171215789851 -0.07003916410627292 0.34703439208424747
P 4.822193802345826 1.0005238181016174 12.504616436216777 -0.2020311157662585 0.04353134762373148 1.070334305203718
P 3.9133317730358455 6.033173159744554 8.128415202130682 0.5141676675320563 1.5329621529852695 0.3552069005927108
P 4.803756708895026 1.0438717542707119 3.876934314113776 -0.10808249203223966 -1.335333537162081 -0.9229000508467331
P 0.2778601805545055 5.563749591869654 3.615929356896173 0.009388126083119315 -0.2935477330200171 -0.7190089990536004
Ni 1.6371904231896257 0.9992417087627274 2.655229480069503 -0.7051183571144373 0.5224576754549906 -0.9036602287805146
Ni 1.8358270813275301 6.578800972832358 4.897392223753433 0.39056085461197254 -0.641062921395425 -0.722799062223652
Ni 6.004722972935802 5.730622442583507 9.048743983978625 -0.10824935662740712 0.016116703056204502 0.8937987626054027
Ni 8.480114948772352 2.5086545871356427 10.109758081846637 0.8967295630989525 0.2294910117494241 1.2428954365353175
Ni 2.31141741454371 5.2492716462813265 6.934593537525568 -0.472701944188102 -0.23310392591166304 0.24661147347979465
Ni 0.4951434035281552 9.080855405554418 9.157462341447003 0.8685006501602461 0.015670873768037528 0.4471791173266493
Ni 1.5607423966235514 1.1488512280965943 11.34046205939846 -0.48414386747645644 -0.1880484283339213 -0.5628710462750306
Ni 4.009598320720679 6.7381256305369694 1.6826628687068952 0.23193818773833605 0.3196739977934236 -0.16884383038101244
Ni 5.738920037530267 8.029552834481548 8.009773137800515 0.31561833966681124 -0.14936361016921373 -0.2330944128299663
Ni 5.206104288892357 2.9096297684040215 4.823693509114768 0.3737846635948982 0.5003276763251705 0.6388168056737257
Ni 0.7537096443201657 7.495229253029592 7.0081730701693505 0.1708595752594606 -0.004638270102959754 -0.05268935997391571
Ni 5.113963966333389 4.598014275759189 7.049958096996461 -0.04731755413904109 -0.4839610620416891 -0.3776284628210206
Ni 8.261226380443388 7.201897082593944 9.091163745217875 -0.884036026791684 -0.8132615271812833 -0.13121702116717404
Ni 4.473270454448585 0.3800099848958234 10.424229707177663 0.5918268100774324 -0.560326682586622 -0.29866191431813083
Ni 7.995414416098847 7.044694225555806 4.676798088846185 0.60589845767915 0.2353137890787883 0.6720002344042298
Ni 7.125340708759794 6.046716568253956 6.893231065043952 1.4397036133397398 0.42385046990303776 0.53048234553168
Ni 2.3224688358873826 5.138522680430439 2.596582006754287 -0.19983282256335907 -0.2153787407177581 0.4957925074589784
Ni 2.216721902245968 5.343154554068506 11.397377782212272 0.1519506541700996 -0.569994030473057 0.34126766480379933
Ni 0.9415377595736661 3.2231235596406655 3.615625984545562 0.6464645520269705 0.16948634906101778 0.21038000195158607
Ni 3.7786470898793403 2.596271411252471 2.7118418305327068 -0.4775901255183388 -0.38560351060669723 -0.2648544788503826
Ni 1.2371271647608804 3.352282532125335 8.209659401096888 -1.1253302018236233 0.15508662869592002 0.11891712075389842
Ni 3.6870214168437285 2.751045483697924 7.194290201481164 -0.4511183044800553 -0.041479864411341466 -0.9886984373987813
Ni 4.197246760087955 6.993301504732126 6.036094924406982 0.4472454517882104 -0.659156288562026 0.015524063777528102
Ni 0.7982999624965228 7.470056571080115 11.22151571982378 -0.3167452541824029 -0.6097345435957886 0.7340723211446261
P 0.27547383197514874 5.559605308865778 7.898861651047515 -0.765869668160881 -0.3422354280337074 0.3913710092180937
P 8.733503093044268 1.6892241986827503 8.134692120527841 -0.738814978035934 1.4220550470200413 -0.9332590254835539
P 1.775197755900438 3.3519665192601154 10.492205880274154 -1.1468117687361667 -0.41736331951679734 -0.44246191435663795
P 3.9110925961622907 6.120708723410326 3.840554010175819 0.17522839375111757 0.7959009244156486 0.4913234159440312
P 6.886949632177291 4.123182373419535 10.447355528654418 -0.7338496636108587 -0.03139934024688786 -0.49455477839713535
P 6.328229857530398 7.817589462370391 10.142675787675692 0.006820108245626964 -0.44940877798811635 -0.013093599959164547
P 2.555144594078919 8.398520426972704 5.8530304773731885 -0.9988044154845316 1.028783478345125 0.15732631665971616
P 6.827873284259278 3.9726067576119974 1.5944013783450193 0.5326816671758439 0.13043180626171733 0.67768314372162
Ni 5.341764097461541 2.9358859230342502 0.42176341043641086 -0.32769481121537114 -1.403931340836137 -0.2003943514937839
Ni 1.5973818311109884 1.007241348722281 6.975241820931788 -0.3194135450431854 0.30324593414438744 0.23990140844947067
Ni 6.964851317923374 0.8141349157257163 9.236076410480681 -0.8102641351158563 -0.4533435942661483 0.060823559045275886
Ni 2.8092640824103428 1.6570089443083846 9.197000968249352 -0.790509063976116 0.06028825536709617 0.2081873651756415
Ni 6.497937795092218 1.9267484971206525 2.605925152837974 -1.2853937149088444 0.10304595804959674 -0.45068121694263674
Ni 4.122478116177047 6.771957064993457 10.28304328504274 0.0922745784657056 0.8734070863229281 0.09174955920017103
Ni 8.160192552963245 7.231864131155749 0.5191062076507914 1.018918412625587 -0.6861006783613539 -0.8689469936690454
Ni 7.5144699220519495 3.9114718116005545 8.246806261956477 1.0660361920489962 0.08960165961923279 -0.32670982159428247
Ni 3.044007467634314 8.390304092477 12.311112729903936 0.08494796289730532 0.19172819117835369 0.045090978801367504
Ni 9.047628910011351 4.955262305420209 10.250825321986675 0.027983372586803418 -0.14410596131470021 -0.13437459295954923
Ni 8.587712814910052 2.2805023273862473 5.644594711731782 0.8518560996250296 0.23072334149462842 0.14754249780007492
Ni 3.617263834081299 2.7137198498460102 11.30026251426085 0.36519769325683554 -1.0487907747049874 1.069162139272488
Ni 0.9620695668739204 3.0726653200402096 12.597212720195563 0.5802918128546394 1.4725823663456317 0.7603034869270131
Ni 3.366033606231882 8.48503572053077 8.196576468476804 -0.9500928092114412 -1.2143525919006184 -0.4757607856190839
Ni 5.603702646972392 7.711616805253819 3.643099240153836 -0.4043267980478133 0.8352436878793291 0.3570634941854754
Ni 3.1133587481414615 8.358540285052948 3.487825867381336 0.63513858549119 -0.5000011462236873 0.8094624651501672
Ni 3.2918518433563806 4.2986507740673545 9.236036683149054 0.09582938569649949 0.3358755472539506 0.25050566632787824
Ni 7.1405634999243635 6.118000041708444 11.412032653113346 0.5468049939511035 -0.09844754004563691 0.13820270845638777
Ni 0.5349745679543082 9.22495727209446 0.1727497871130322 0.7280381991354042 -0.5696096505504449 0.8050903042244005
Ni 4.6521969387358055 0.1289630445082331 1.6091221605008392 0.5621007437679094 0.5631222430538882 -0.20386045566551345
Ni 5.654246647529482 5.47597927578972 0.44409558817451505 0.953881843940228 0.9265872698903334 -0.1257166601742351
Ni 7.899590286425321 8.745448379349561 11.384546756990465 -0.36562012550623485 0.34346672933764716 -0.07685284459399667
Ni 9.142884216527483 4.732996913902901 5.6884672292571405 -0.11826328921998341 0.11022859184096499 0.5528460579388608
Ni 7.936672138924065 8.508005341362715 2.584411899867738 -0.3743827021902133 1.1009612860609554 0.4305463938659747
P 8.578647760147758 1.4629680161246712 3.430116500828871 0.23284141627889576 -0.29786127279370633 0.6852236750730393
P 1.9758207806197212 3.16392983551557 1.5720150269728774 -1.1294010294588872 -0.2162061217150599 -0.06640233868463404
P 4.759939267897606 1.1655999099532222 8.272694035875249 1.0611953190169272 -0.2125189026714598 0.09528893981199718
P 8.421742858096827 1.6688368544065963 12.259046450230391 -0.7176208604568222 -0.2179452158933537 0.31321795775543476
P 6.28019590201705 7.587712675270799 1.3563633332776603 -1.2174980795081356 0.016005888509953083 0.5264909649840998
P 1.793264662851981 3.0606116864668413 6.071761942163444 -0.32330002458178514 0.3235833601501588 -1.1128752638897224
P 6.945809285559155 3.9023074385091916 5.926478187507481 0.31374374835191776 -0.10613205317408816 0.05937422819325903
P 2.3567065725991525 8.462345996808017 10.129566671132489 0.5926529055231535 0.3807037593122347 0.14991845423141922
