# total energy = -340864.6257244285 ev
CRYSTAL
PRIMVEC
9.32815075155676 0.00000000000000 0.00000000000000

0.00000000000000 9.32815075155676 0.00000000000000

0.00000000000000 0.00000000000000 13.65269152883292

PRIMCOORD
 96 1
Ni 6.8011173021306925 9.097894547007389 8.40264416115826 -0.608925417430932 0.6873862299419968 0.9656299856150917
Ni 3.2981542135937505 0.49211124986634924 10.999304657695037 0.11549215423274949 -0.25583222074711426 0.49016796218334946
Ni 7.242693296030347 0.19736314512083564 11.46311336577485 0.15155547561420996 -0.08449056364491256 -0.8218531255050362
Ni 1.8853218493187955 8.622261475205676 13.56022154669823 0.6808759396273047 -0.15789504467899257 -1.0430381884919264
Ni 7.472529599078504 6.868363939927444 10.269240680928824 1.219118645830694 1.2276210268747505 1.367145282356039
Ni 4.796049983343609 5.366503706165432 6.5941816088468626 -0.12417219850525066 -0.827800858448039 -0.1419868580891684
Ni 4.839743040832855 5.040372904299707 11.036876582749517 -0.6750691031375405 0.0550383198220665 -0.9542631385390468
Ni 0.2539085285299557 2.3791914555764175 5.391720495727919 0.3124700238458167 0.20754844604006192 0.06684251154584617
Ni 4.405554942221732 2.7439501291464503 10.687026159495309 0.9044577849811455 -0.14599932168267113 -1.7762635882552245
Ni 2.6510137645509397 5.096696277724146 12.172425938678856 -1.5333552746586303 0.13424578069116877 -1.2876277464456856
Ni 5.681795197014398 6.441908878177676 9.165516176458937 -1.7576022644002955 -0.5822772187157843 -1.4925811780650617
Ni 1.9668685420111522 2.703568565126179 3.4968363592118066 0.44773781804359664 1.3992735303491515 -0.793740169318904
Ni 0.7556930705859611 7.051102410511208 6.605377255217186 2.096890693990537 1.1298520009533768 -2.386886705103554
Ni 2.4400389820500212 1.0374022863992651 9.024961468594615 -0.08878096349015033 -0.8644511626812209 -1.2981353308452288
Ni 5.285955125589077 8.013711585264705 3.591832379463513 -0.45368735075881217 0.10096439293021967 0.5187046361704615
Ni 6.348935200979699 1.8008927580858374 6.655277264126875 0.9211987518849103 0.6534723508033713 0.7686451740234891
Ni 8.523681579486981 7.563581677249414 8.11211517893674 -1.3221118962654843 2.0061718900477254 0.5090555431164717
Ni 8.191198307051192 5.661161327849963 0.3324375644977669 -1.0914394626134494 -1.5444092184799467 0.2032315638322629
Ni 8.969772398285183 1.7030311299646392 9.120394046295191 -2.1682984563095626 1.0791477897302901 1.7838609409865085
Ni 4.743765699136257 1.342218264105527 8.615844640396356 0.5659203746243157 0.12213357080866707 0.20147755725563363
Ni 6.288171627861646 3.9463673999574964 5.43323916130838 0.8210265158386828 -0.2962180807633285 0.8666563978626558
Ni 7.520513605851494 7.204224002886527 1.8127908141976081 -0.21551500918530625 1.604937614882307 1.7497418878156124
Ni 5.2641738938987706 3.6280256038568264 8.07672697394166 -0.9665905497561482 0.6418239679311656 0.1494533416695426
Ni 2.632348135166657 8.971311543136961 6.801784264899796 -0.16526202656702507 -0.10970717211985623 1.7620962956159072
P 0.5960016617312067 0.26278519665693434 7.981431520055152 0.7966938526305892 -2.2657656347198007 -2.1864715276741635
P 5.22753291827585 8.80332087867841 10.341695225214954 0.9438558271627937 1.0676156207209742 0.43150490112450196
P 4.485730396773415 2.640659517366255 3.4304022033337813 0.09151224637838433 1.2639358021453846 -0.7270069296574124
P 0.43809006401414424 7.115578587574761 1.146970743544589 0.23582106773251 0.08746378734062356 1.6749749792163668
P 1.265718100896877 0.5904635387099928 3.2957736695563344 1.032294319711861 0.007998959045076547 -0.18867732016717184
P 0.0010475513142703798 3.9135509660874774 3.997016459361716 0.9756467464211455 1.1751612664131375 0.10115156924036127
P 5.420849511659103 2.489114382445181 12.595713160479148 -0.24660093195683336 -0.36701417764028405 0.5132256153337612
P 6.362423706771639 6.031684798501199 12.026983279891313 0.8706917442742941 -0.7424127226895214 0.42977557713822107
Ni 7.107547049893667 7.677086613955041 13.123389850202296 0.6088405710266096 0.8091693593897806 -0.8889463196091077
Ni 9.140179053753494 3.3694679250594413 0.0708482367499106 2.777701327597545 -0.10689747058520299 -1.6311620957964745
Ni 0.26539801164470933 4.517996469757041 11.185253877721115 0.39780982286490196 -0.05552888630523985 1.1336778024573704
Ni 1.4580925510678302 7.29117169478603 8.768945710840319 0.9196159807788227 -0.23320625581748225 1.0665234160980601
Ni 7.363101064192432 4.300977045656415 9.869079810137787 -0.12224078581049268 0.13596867691954648 0.45873931136042284
Ni 9.15972152929576 5.461576217252197 7.909018019631738 1.6359582316335373 -1.492549810606494 3.7188132734666146
Ni 1.0462920139371072 1.4700885527610776 12.606813659713179 -0.8177694423539659 -0.2565192195118098 0.25727563806186016
Ni 6.288236924915965 6.945143947654599 6.493998204037134 1.027779976781275 0.6942582744714817 0.5888600141396246
Ni 2.1644760846781486 7.685892388137331 11.297328808937182 0.5443938134064495 -0.9900279548434819 -0.32322186304568207
Ni 0.5080474623801473 6.642454788288975 12.771464846250904 0.569905841634625 0.26629146840722523 -2.1401621030846627
Ni 2.146677973301231 4.292712304209901 8.710935807784354 -0.050736607122919074 -0.2917487321380653 0.08466051356387355
Ni 6.267369851986108 0.568712157101661 3.008165331292945 1.449131077301227 0.7280669954908107 -2.4722236759091616
Ni 7.46040300327662 8.906266348885781 5.998418747771447 0.2591044637404828 -0.08693156898623738 -0.8844157787286059
Ni 2.740125587393549 8.393078142700697 4.628508002929727 0.47982415705518006 -1.4714762777656465 -0.7374476653747623
Ni 7.093620121022735 3.983894549889017 12.553335372226874 -0.560940404911221 -0.4036475125926016 -0.7833279728466446
Ni 5.089868071472623 1.0191657519433561 4.786469972660121 0.25179558878389535 -0.12084184858043706 2.0572602240831084
Ni 4.167743070396185 8.577318445533773 1.2781674507101026 2.2894964026778375 -0.09436617088741167 0.26931688549711036
Ni 8.551330217915275 9.344848006437433 3.2796499612151386 -1.044939005059065 -0.16197127163089525 0.9699044446207294
Ni 1.1147513113140468 2.3328118907095226 7.510768486902088 1.9447225244929929 0.091865515952745 -0.4565798418152588
Ni 6.811527518219079 2.930214640663378 3.3741264034774874 -0.3733007819799442 -0.7473523260829839 -0.18781985726288297
Ni 5.161741471975325 2.047454435189975 1.2742533587112794 1.1160446627566392 0.45463068850868804 0.007751618920960843
Ni 3.137141005796591 1.2579757358849055 0.6085620165367728 -1.4482023948393703 0.41236843740536727 -0.17050784834699667
Ni 2.814704151575131 1.4406022686612676 5.179994797102344 -0.6125972098555643 0.19033516748556897 2.362833520809092
Ni 5.002043533415138 0.08140024072767243 12.669137832429428 0.9065390929902065 0.43072559975631625 -0.0003789806059735409
P 2.829321363591709 6.362610269783977 5.515045176587886 0.8896238052921065 0.8736472273581921 -1.8001864176194096
P -0.048570747446789325 8.96845712904821 12.274889143499339 -0.02717990284890158 -0.6579157312867056 0.1354482856397022
P 7.338763919233114 7.088144496610654 4.365570757417738 -1.328751770179505 1.0292922996607434 0.6668649700601934
P 2.421261414858336 3.5698366003090203 0.6670140739319737 -0.49039113393774897 0.40635951220712596 -0.29265787421589595
P 7.0066257883701475 5.076435534584384 7.808847674232873 -0.9150633284111337 1.1671962459297898 -1.1087041632311678
P 7.639783339638325 3.6413648592388985 1.3944726982309037 -1.6121840120320752 0.4428684057664373 0.5082363896492861
P 4.096382718177409 7.495504834047765 13.138243997244542 -1.0166028771185331 -0.49183249436996584 -1.9911270798994611
P 5.222243856876106 9.29893484910138 6.7572768598617 -0.5022991982292446 -1.0309771435623343 0.14614407479065153
Ni 8.495491908322911 5.463507144429882 5.889566692593497 -1.338448685752295 -0.42846405741564925 -2.7366449238768675
Ni 7.481503279971897 1.5798529010693552 0.07838818089349697 -0.17786711692554527 0.6121922611076619 -0.5120889306261567
Ni 3.776734980990383 3.8371627406862294 5.147433021744163 -0.09972743519932502 -0.28645045985360346 -0.5833511685062535
Ni 3.107794643956033 6.208845035016096 7.626447815516499 -0.6005593048544238 0.9376728382805336 -1.4622509025126367
Ni 2.601742472992827 6.3894753435604565 0.5423508034584901 0.22529162895609586 -1.3602387850441928 1.10527713982749
Ni 7.718746134609819 5.1950522978280365 3.4747463657360833 -0.2815586789789409 -0.14386119229374578 -0.5821435213513975
Ni 0.6208136095569218 4.883426770171486 1.966506609767219 -0.17265137705256073 -0.9345268364523841 -0.8257953979822359
Ni 5.642654277026166 4.707255317621972 1.9466413802136109 2.8020833559863356 -0.7226082863690845 -0.6826186333500244
Ni 0.6535983277148439 9.224608144986451 5.361466504832342 -0.383989629152358 1.4838070314168574 1.1443249977585712
Ni 9.352217245424733 0.0756223842356059 1.0763072041768917 -0.6737987210655493 -0.04966111467055318 -0.23880663272339517
Ni 3.0099143595336018 2.604447636671708 12.354320211631798 -0.06975917097200889 0.5624972078753796 1.1382229986258916
Ni 4.320025129215988 8.317799967222854 8.491386589236441 -0.9417428945848492 -0.7038212355695685 -0.1786353625501375
Ni 4.454378482550238 4.385835231817747 13.328358236521037 1.093074427113711 -0.5401782326632052 1.3764894425751004
Ni 2.28265442484281 8.028058280913394 2.3210528240419426 -2.193709183073183 0.6512653158497236 0.10686584601631918
Ni 5.294005319571403 5.842258043925164 4.3512221961389255 -0.1646079379227939 -0.8296160572799066 -0.6277510347778673
Ni 0.49662420913477323 8.924017819509615 10.020188387609991 -1.0306462425854765 0.2157026997160801 1.9349068239541516
Ni 9.198246791343282 2.391028878709179 2.431694951323264 -0.670814955846877 -0.6595666366265672 -0.27058829601036627
Ni 3.4856500409921 4.619206903949683 2.5235501832622833 -0.4627129512961902 -1.436546812878313 -0.5928729919537596
Ni 0.1159461137220529 7.286265087561577 4.276814337113631 -0.016682345751687398 -0.8653567052146259 -0.7436571366195838
Ni 1.6362975404518134 2.6197831162857823 10.39962397336055 -0.5643298902087441 0.3288430658872014 0.6785817442764894
Ni 8.413656042961431 3.357779752336549 7.395608736277034 -1.596989563679824 -0.4764015045268764 -0.7495642461326382
Ni 1.9447514968986404 5.982991852281328 3.358015754547155 0.32687565774818544 1.050251418410914 2.604291475112405
Ni 3.5807412083800982 0.7122481419031217 3.092416254849122 -0.8032164842404554 -0.039526597339712574 -1.6991523477935189
Ni 1.6371464021579454 4.758242988893583 6.089263740998663 -1.040374525616834 -1.533178896981766 0.30743066164969635
P 0.2084272645674616 6.383999719148375 10.382311858630768 0.9046503606079259 1.6924690222360723 -0.8612249424344395
P 7.695136585398614 1.4486244781917443 4.931843603133097 -0.5312043112993691 0.31888235513006374 -0.7423548728683925
P 4.638422894220359 6.51919260603814 2.1805261006294723 -0.9594757930882379 0.5302812852644674 0.15272095667722085
P 3.3289930795330016 6.008961423598593 9.583998467876496 0.5311947982176722 -0.03933067927882258 3.6420097940533145
P 6.856685095355169 2.4376416473414957 8.797684810075719 0.1422226282490583 -1.8697054475561539 -0.24253036143188555
P 6.596653568760323 9.19556961211625 0.9314438235426556 -0.5490948184265446 -0.3048150784037202 1.0464497852766363
P 8.729833708118997 2.624167347075694 11.239154730430363 -0.08838192827951875 -1.0065246669469246 0.9411921642877017
P 3.167569433108701 2.9761930950537487 7.13415933078843 0.47601326794952215 -0.00025711031612858946 0.1350165974189223
