# total energy = -381169.5449997638 ev
CRYSTAL
PRIMVEC
9.21343271426178 0.00000000000000 0.00000000000000
0.00000000000000 9.21343271426178 0.00000000000000
0.00000000000000 0.00000000000000 13.48479008537130
PRIMCOORD
 96 1
Ni 4.27072075026977 2.7409777140817804 7.634953076954291 -0.8389856714202648 0.25287468078068703 -0.5327731984483857
Ni 2.181316975978722 8.631161905314457 10.736279188574862 1.2143189104492054 1.269275469190743 -0.18060251357883736
Ni 9.171336233877675 6.552491779777031 1.390025940458965 0.08668988528907651 1.4647564425433097 2.9293470489327165
Ni 6.217786207312132 7.656454464161441 7.14612981390894 -0.9094027876912467 -0.2977193478992034 -1.7744054520005634
Ni 3.0377147315993165 5.990269707464955 5.354715162599478 0.6786318807881345 0.48803883165548845 0.25146288803482497
Ni 3.2509688380811648 8.625965529437167 4.670039202858516 -1.4066960480654678 0.2872917248079762 0.15840180911208204
Ni 8.361466311910124 9.082988630531334 11.660499784169744 -0.5257957386892881 0.344132130835788 1.3156064910467988
Ni 2.653394825625181 4.753246632265249 7.455254291297073 -1.1852343343784233 -0.36935182463452515 0.29599310923671607
Ni 2.567313726650848 4.833845738957688 11.60460557513221 -0.5036163743787714 0.12759999323987703 -1.9508929149697625
Ni 0.9760618157167771 4.693055278353302 2.0582107775354546 1.1530220113119367 -1.2349121612195246 0.7160602008379217
Ni 7.901522552743082 9.04344457864245 6.102554729546736 0.25903761505828937 -1.0087800386400048 0.18840298345986262
Ni 4.064892670307595 1.787415100301782 4.856938285941448 -0.1976836374308402 -0.481355506098042 -0.894169258570944
Ni 2.1824410147323205 3.026935015683661 5.813481445104963 2.382393959439523 -1.4197652225446 0.6512051520357495
Ni 8.883324336849137 4.789179018650767 7.285993403213228 0.1943319473497879 0.6330858167272193 0.45317364434718727
Ni 7.244162577401041 7.418876896126319 4.002636586193343 -0.7788097732613167 0.5119405779737506 1.435045288632122
Ni 2.747344195874702 0.8961813567520477 6.7203070803162905 -0.42145882974240967 -0.01535359963793485 -0.21325320973432305
Ni 7.682067806251632 4.3374075740283295 1.616759298551586 0.4479751308653834 0.04885070295411587 1.0002529750055997
Ni 8.922251088766782 8.897043137702479 0.9791197539325087 -0.4745971043282859 0.5070282282737977 -1.3968518082815362
Ni 3.711400909165753 8.006297706070292 7.0213274225596285 0.6665530952467295 -0.9689623924224345 0.14870669331150518
Ni 0.9620758253236446 8.049407356300508 6.064798083544723 1.1826717158575697 0.8637194267215189 -0.6506225400594021
Ni 8.271487931027824 3.3041579833641386 8.952686741378557 -0.14681436138479878 -0.5476323749484053 0.4321517906798816
Ni 4.550587973050925 5.155818347836746 12.752215052856135 0.6098250464270659 -0.8522127116335001 0.4078929181325168
Ni 4.841188844585703 5.298672617300198 7.267897300623536 -0.46278905594976427 0.8281602986699866 3.2939382189538042
Ni 0.37484020537104307 0.7896869769377779 7.664471071698374 -0.11374303275212669 -1.4960742788199848 0.2794562879239574
P 2.758289753573675 7.924989165082549 12.890460763429834 0.32616423350345763 -0.20290271973793442 -0.15941302398541576
Ni 0.8966116240454334 6.599830395481851 7.8552407177352945 -0.3749005223668963 -0.004166215562547663 0.22598274148584951
P 5.820797831778999 3.303817086365096 11.839833717903662 -0.6240758999191252 -1.2092224697629046 -0.1630135968524805
Ni 4.012412959319925 0.8447823813856654 10.877532163486059 1.9056037041146598 0.7232150667151479 3.2419284015454166
P 7.709652822876821 1.8249598373584452 7.358258960293949 -1.6025302909923949 -1.9979451312625593 1.2480774949568894
P 3.131691742146057 4.216472060260044 0.9448107743370233 1.9685664209901257 -0.3362987508342983 1.218511351263998
P 0.4186445484047119 1.3606396977982957 12.394760594436239 0.7047928554542184 1.1997767509689725 0.6552595246107812
Ni 3.844498153710676 6.892209459471092 11.132961678152098 0.11440483470584169 0.36098416939612027 0.5909451788034275
Ni 6.92664926980675 5.11846709286062 11.823895401183584 0.28372380495105975 -0.18990527903700197 0.6124601700570679
Ni 6.2332739871875305 3.02579255006525 3.4306925000058803 0.6732726733587502 -0.28782471449331076 0.42050289358704357
Ni 7.264699318235226 0.5262113717511034 9.527502654447138 -0.2733216357811292 -0.4384054848990772 -1.3466152807234872
Ni 2.9015770543602346 1.2393540735985613 9.063167773395138 -1.6577971818854995 0.3437814323645886 -0.5539387767824073
Ni 4.245199542503645 6.5050610297481475 1.319484216581508 -0.1481554487937255 -0.2878673948057881 0.11494913724508592
Ni 7.510458414247358 4.53796557065396 5.294289787504405 -0.9410448400765599 0.20035141407099044 0.2575774855729951
Ni 7.876627858380603 7.263409437698309 8.690852969846727 0.12704977716336185 -1.27155295237101 -1.9470354888968857
Ni 1.107942887184036 4.728794182658283 9.484648216294582 0.27956016049167337 0.8858872210678097 -0.1936017540519827
Ni 6.521267457351256 3.5437164393666674 7.167893783939676 0.19472481191283236 -0.911980575720752 -0.16933259709197288
Ni 4.667082612399256 4.660467367931359 10.151996473708559 0.16337817928075088 1.5911503312902275 0.7650949947783856
Ni 6.441976658060546 0.7637226030728985 0.485782830351192 0.227037408002609 0.06334272592270382 0.26631152301188327
Ni 2.8851218640821483 6.540588025107778 8.982919698477387 1.1531631648754914 0.3598716530582319 0.7408541199531499
Ni 1.0099580335404492 1.373879400166498 2.1079688405902317 0.47520465600529765 -0.4042239539213619 1.1514286986828879
Ni 2.3354116329781567 2.5789042246182796 11.403843961650393 -0.3475324147665886 -1.0097938246164997 -0.5288499521345795
Ni 1.8876019642905324 6.752432476431426 3.431258204755642 -0.1360550659857657 0.10010333048150502 0.1427813289660057
Ni 5.457982077041735 0.9893660121118255 2.851439397890308 0.4268656025802778 -1.4680919346744459 0.341176904862206
Ni 8.931621149524235 3.4206894764420963 3.8961873521978645 0.23726422793693974 -0.5938135014901579 -0.40254399511577765
Ni 0.5714999987454664 1.2134182613741424 4.900790538823631 0.5853972524020047 -1.8400058636091925 -1.257166601742351
Ni 7.227274355799847 1.7216956869459095 5.205668545215588 -0.6850295567843622 1.7274938750506892 -0.9999279875660133
Ni 8.87851492513292 5.839713008509633 3.768998681855258 0.6649099032163516 -0.6308301879238233 0.36196273125930567
Ni 7.920539077230188 0.300588232263471 3.0051664389367216 0.07317899528683526 0.3088524816978874 0.9695257211250723
Ni 0.44785573584965704 1.8227946807429076 10.150189719613635 3.113589473256986 -2.2680333477080556 -1.551518061610586
Ni 7.872656869013383 2.6273484522118835 13.237599862927365 0.33144142274199695 0.5364159374072955 1.5358744415360581
Ni 9.042818065238805 5.015589906609159 -0.11484174957459801 0.12313321571777502 -2.150339814948613 -1.5067734104050439
P 5.909173075422561 8.863073212419554 11.143978179280602 -1.338300847320521 1.5188619661384615 -0.25797343545983314
Ni 1.5051339582301122 2.960312685951947 0.3502421835320541 -1.072291686040405 1.3205268111665516 -1.0395641139003968
P 7.076229344926978 6.4016402509847 0.9146717942487392 -2.0111228062950977 -0.42514682011695815 0.674915865389128
Ni 6.6407472487993084 5.045975806685939 8.812553198504757 1.0741302819110405 0.39049631992262424 0.9520648453361475
P 8.307788854709603 2.2364501554994765 2.1839962421225447 -1.6581820760287442 0.8099792568855857 -1.1554149370241455
P 3.1684809777453835 3.4636424983214007 9.350515381947165 -1.2315918385970401 -0.29034182448820967 0.28924936275497926
P 1.9038268187584546 8.425379892514314 8.269830434537887 0.6803146678071961 0.7730008798890236 0.3866255241133083
Ni 0.9086342319927315 7.017475286470453 11.573199748088026 0.5873294364277111 -1.816361484717375 -0.3947471247791782
Ni 4.030231737594179 2.3420913714729004 12.993565521461736 1.6843805888009828 0.8901295412839314 0.2041306786077646
Ni 2.2738382642052284 0.8770929674921716 0.189499113708058 -0.0382821834096502 -1.7947361931381156 -1.120160998917858
Ni 4.308376048515312 9.007337137041208 0.8328417729867854 -1.0153826315581869 0.0792614540354893 0.3737116442651177
Ni 5.416309722266941 3.8927673260885554 1.432287033564538 0.026864942711644055 1.70198210393283 -1.4328505949736483
Ni 4.93261373435583 3.7617983844295444 5.515737399425393 -0.284556071044368 0.17611876677587085 -1.1258004565918223
Ni 8.237775981852282 6.667613617696788 6.190570649326443 -0.35563858881349075 0.34225676818994605 -0.3092654008655899
Ni 1.7885667793525997 7.871495976530159 1.417952775426438 1.4037971292511178 1.2322071035835358 -0.48459818140505573
Ni 5.4877046099852445 7.483923728916514 12.867253969884233 0.9444469237795734 -0.10733558656388612 0.22011702673369188
Ni 7.858882787565601 2.1495674879057742 11.040145560088582 -4.5733762304998455 1.0204765011413264 1.2467626328002077
Ni 0.1846768031864733 3.850044640019415 11.414496532198838 -0.2478576871820699 0.6384720207397973 0.871207250458132
Ni 5.52553496344651 9.092883856935961 5.011635501420271 0.9180794895296382 -1.5135184424383612 -1.1239536331910707
Ni 5.497268152823236 0.8026226360365645 6.998578536604632 0.7794790314141995 1.0491131910414124 0.7266873415344646
Ni 6.144935597273595 8.068783204651467 2.1053393269814045 0.34362716617491146 -0.7094632643466943 -1.6435288448919434
Ni 4.818662002351705 -0.05083972001930522 9.037856631887882 0.721475458316222 -0.7560118015301948 -0.8295615498928873
Ni 3.7553213414477447 4.709363053712883 3.256549414089808 0.40867504771418006 0.44988006119758006 -0.6528912814889207
Ni 3.9567914678816236 2.362867661549655 1.9920675462888815 -2.210632441191083 0.04370669685933118 -0.3460802557010943
Ni 4.638843442073202 7.155363515866777 3.5984294863696835 -0.3434649295654343 -0.6308402152261522 0.9709984490158567
Ni 5.633949422574303 7.016728998445522 9.22007621265153 -2.6894780363830777 -0.2715367759665646 0.5338260651929323
Ni 5.85014261399384 2.7814799629409444 9.456815358337657 0.2673955001046814 -1.2300118957044301 0.5970230095663912
Ni 2.098976530561446 3.1199077620980877 3.578890560265127 0.1660133029107528 -0.9091158525784471 -0.8014845891510132
Ni 8.359706546320474 7.0558768727409245 12.872566435009846 -1.5983543052378344 1.4350128927322898 -0.8299641846479449
Ni 1.291354686101091 2.770635752998443 8.151784253172293 1.6978863365969015 1.1112009615110927 0.48148200437357724
Ni 2.0722299362852508 5.742161186189152 0.09293865671452294 -0.24639241549045313 2.0236294234025403 0.19810401279771042
Ni -0.00410182010739302 2.8202500865076776 6.333427682819617 -1.1087774396712649 0.3951939825086097 -1.4378213087153626
P 5.359527338345416 5.922440418087983 5.5008908744454885 1.1804862781704766 1.831949568963619 -3.2315010355645057
Ni 6.211180176276639 5.324479441470925 3.4674918703808544 -0.19156081236255396 0.6125254760773644 -0.6022644604709886
P 2.9374080929892807 0.8301717202753692 3.041858012152539 0.14422757449422904 -0.46695501440199577 0.5602055836277255
Ni 0.1537850856705747 8.417115443645645 9.736085550698867 1.0667692135602789 0.4774271175779132 -0.8870020513985433
P 0.12160717299072267 8.077075293817357 4.069507678600033 0.14117721770367944 0.26090192196053774 0.027333140597314218
P 8.357513749407717 5.554594129256747 10.213258428466146 1.1962581962927528 -0.9126701455886089 -0.764991893541618
P 1.2448729196100807 4.776897513252845 5.485652778588307 -1.9756696076938103 1.791855786266527 -0.4616983939887468
Ni 7.157989344102643 7.258526318522841 10.839451204663334 0.4862920241677109 -0.3747783949667352 1.1736738832343334
