# total energy = -340868.17351227533 ev
CRYSTAL
PRIMVEC
9.29257981614595 0.00000000000000 0.00000000000000
0.00000000000000 9.29257981614595 0.00000000000000
0.00000000000000 0.00000000000000 13.60062986929086
PRIMCOORD
 96 1
Ni 0.4046937111605009 6.968998139295598 1.030725523349005 2.2099639543691487 -0.640736905514574 -0.022312033233638992
Ni 4.576000853016345 8.230428684165505 1.5540622477962807 0.4581605560388174 1.134861024132194 0.9689793617032989
Ni 2.7388299381281356 8.002407359706456 10.575441875852322 -0.676101401056797 1.6005266302988048 0.9432675587594916
Ni 7.074310946781717 2.2950163242979915 5.133557502776216 0.36555327682404143 -1.3060304173225896 -0.6961920011590849
Ni 9.1207042970842 4.2172143448508965 8.774718317667725 -0.27582691870148623 0.6242484209412474 0.9719037344389456
Ni 3.4155156031011478 7.486548374267748 6.0921986256812675 -1.0105877812727047 1.7355437419383593 -0.26746671966224905
Ni 3.8290261140271853 7.0762159256518 12.40362500750568 0.1311871963705031 0.2518210427051921 1.6202593328410417
Ni 7.5481488861203445 2.8388088047780204 10.374424788449186 0.13711873136358965 0.285021954937193 -0.6024500941192334
Ni 0.2484380516564128 5.486738726773693 4.504338335697767 -0.014313331298878575 -2.2659769793996585 0.01719810904584135
Ni 5.38116572705166 7.6233816126188545 4.339920074049869 0.9693334026086081 -0.045471502069237814 -0.15815549742923085
Ni 1.8206208301681202 1.289661402466555 11.660214902148539 0.0011873354398818261 -0.3022717431565762 0.38291593647220507
Ni 6.915082590982314 4.81348202376683 5.191768081498049 0.3337914110314122 1.1642284215507175 -0.04427208244449795
Ni 8.18614024858103 2.1904097528807824 1.705042509717216 0.21784262887721836 1.4908757653381808 -0.6794777737281975
Ni 5.398022466906934 0.8654402640007219 3.044963759582467 0.32172908055023947 0.10936830072319874 -0.4885923901661134
Ni 3.346908486038586 6.47940927710433 3.6101514759184954 0.23391125230430682 1.1637249995517378 -0.11807405602731279
Ni 6.731842208840005 3.682593640686829 8.319464608779242 0.05134595857214382 0.7655981596670491 -1.1622111340103725
Ni 4.811019490105504 0.8335629980693374 5.635026928310905 0.5878457139424973 -0.24603143260660856 -0.35661715067667615
Ni 1.1200346498104528 8.38216722060253 7.15541379597404 0.558658807965896 -0.2653319327074334 0.8278139710741613
Ni 7.82081176419832 3.168890533774263 12.790100615862286 -0.5552821781841792 0.76177672903843 0.5331087274109335
Ni 3.7075999730741183 5.659636467538425 10.43487952520578 0.1643819379549169 -0.9338040993537468 0.11044816405093882
Ni 7.7844684843890715 0.579703655326063 3.5241003279538825 -0.6384923324547713 -1.1303896186244016 0.06525254135090697
Ni 6.458575313071517 5.865104700691657 2.5647111523705783 -0.7767084106475978 0.9611606369898286 1.995483557095944
Ni 0.7556865326023458 2.8303246793712593 13.356566991186233 -0.41814390643656374 -0.8267834729271181 -0.22552148557871485
Ni 3.415850135975894 4.58917773124941 12.692365907247158 1.011958436367986 -0.07235804204743668 -0.10877386167230944
P 3.8413387823338216 9.274914659762407 12.689264973349855 -1.1271340878015814 -0.34630728411023587 -1.1168843850491152
P 8.104858052597525 5.532393171596714 7.233426862364886 -0.8253891636827526 -0.17958101429285844 -0.3714531872482441
P 8.692111929055015 1.3796321606136122 11.745000400737029 0.270115984359638 -0.6066690172965874 0.042065818821798516
P 1.8613130373490707 0.5990173532947517 8.911826616382513 -1.041956011171341 -2.795613946211908 -0.030423349486863732
P 8.356928573718891 7.223679875355958 10.655590377093631 -0.6695096067718921 -1.2862776601756944 0.15268933210833704
P 8.892813068743111 3.132826031360637 3.6012157311308264 -0.8934228673232226 0.4550834597753904 0.7592699034561762
P 4.2744845144914985 2.4867315392672067 1.87454752957723 0.2985840098923438 -0.3934080942527805 2.2109908529717663
P 3.767156117358821 8.940084422460739 4.080487971168111 -0.26936033714053614 -1.874377656220843 -0.3984052903570558
Ni 6.943620103714148 7.438217666446755 8.832575778355105 0.17528238691750458 -1.0187623466636972 0.031176425602804373
Ni 3.36689682530468 1.1663302826434045 7.554102642032843 0.47122304564973033 0.482533328456227 -1.2825505890330946
Ni 2.684301079544482 4.398837818098596 4.389630729979189 0.4105666083099381 -0.7172799321776355 0.7525685801766007
Ni 6.982611768781804 9.07135140547926 10.598331358548855 1.8222955908136227 -0.043448558101938074 1.1328295955244618
Ni 2.8404164210927743 6.90785296385585 8.688681108572894 0.20396252846101648 1.1858850805885446 -2.583281191409325
Ni 2.857486890284691 2.3883974592514905 0.21855497336171062 1.6059524293000664 -0.6872959842210358 -1.1908257124232717
Ni 9.08120154012457 0.9459474588243992 5.840314885414967 -1.005587756954952 -0.9905509172264876 0.5950800269074075
Ni 3.8843820122178507 4.15481467113085 8.34027348284645 -0.48176713971416385 1.0662629633478216 0.0674127822270194
Ni 7.842732960074058 7.113460585706893 4.208116909173767 -0.6152392754641017 0.6375891039142116 -0.4255754230139445
Ni 8.138943235502234 7.714095777154236 6.546690343021717 1.4648821694878966 0.008625793995798046 0.4438140575091582
Ni 0.4819206252956934 8.840821084459616 10.409731945604708 -0.3409272507452451 0.07514331810205768 0.4230452003929231
Ni 5.123714802194789 7.707646726735516 10.575591486387973 0.13779287461247883 -0.1191559762375819 -1.252447856110443
Ni 8.850652633945218 4.950324554697791 11.424842217766942 0.0448058434607809 0.9207308111095562 -1.3004783771561086
Ni 6.375072190502888 1.6570342544171601 11.966473244172914 -0.17356771821924302 -1.6360392213831179 0.6775185931192976
Ni 0.5333597010778701 8.281918869136879 3.500679309689697 -1.582087706867327 -0.32758271111753906 0.04864707158374203
Ni 3.886863131038886 4.4845246969329295 1.392881520969538 1.225622765497799 0.29174333282142656 0.829714530530984
Ni 2.202917565364354 9.611036565663793 5.522943547143115 -0.42697718845747756 0.13140574013921238 -0.5809631278900511
Ni 1.6195851576052782 5.586847689541535 6.82059378051021 -0.017253644874125125 -0.36296674704378784 -0.5730006785098648
Ni 6.844384643452586 5.24615383435195 10.037156178193813 0.10045505739396893 0.6234138408550941 -0.09544114911914531
Ni 5.060116385673569 8.767939380664185 7.735902674297771 -0.31372086553378226 0.2334070589743787 1.1454064037482081
Ni 6.003973014030803 6.010580038307044 12.08406433742021 -0.8444142986350038 -0.9680203402241393 0.005858515663306039
Ni 3.190049738101969 1.585221197304946 3.795459457078332 -0.6766829845918797 2.380029315862088 -0.8533383405975111
Ni 3.0838727206894223 6.5841273594797896 1.0746524775771555 -1.7449161842921947 0.6116417879208305 -0.6574251648035323
Ni 8.284511498916162 -0.023995299699166608 8.480454837718977 0.7615900669489206 -0.7347724325354441 -0.4708954871069825
P 3.189622279428682 3.3941519620166525 6.486711386353655 -0.8713458329185251 -0.8192303431702085 -1.5578239492239558
P -0.0683078959912609 4.736530169995318 13.483065951481635 -0.8905234342882405 2.031444034350953 1.7326206547542935
P 2.024202669610976 3.6175548742882286 11.417239028930345 -0.24356805866778053 -0.9243205853433436 -0.2414330146026487
P 4.961624331800334 4.820869624750812 4.125030094182601 0.034413187372547185 0.7521708305175497 0.1079739914788334
P 5.417648395558719 3.6945253132194487 12.267441320486371 1.522249651663772 0.8217937330220105 0.8189025275171447
P 8.394061722815735 1.976308713043125 8.159520724331076 -0.3625491998903949 2.456843079688033 -1.4039372543734079
P 1.8740531643289937 5.323932727730473 2.4213340792862383 -0.6079715381580948 0.15915797055181624 0.11155913772693046
P 1.3836744328501305 0.9213091125993313 0.9266792944969956 -0.588918892402018 -0.5349033574175109 0.3705867254828908
Ni 6.534291253722438 4.485258810741401 0.8153820655848593 -0.7909654347872443 -1.7136654538080294 -1.2433548926702394
Ni 4.317471988896403 5.489907496503928 6.301593903080826 -0.7221933103188529 -1.8610521427565303 -0.593263799634275
Ni 1.1587010745832171 2.6360168346227604 5.120215216621748 0.815648282245905 0.8917737617555738 0.1095678183285145
Ni 5.123064321605005 3.449452104728193 10.109701490598527 1.1890279970929005 -0.071996802053276 -0.25132327713316716
Ni 1.593649567232583 6.012512894916689 12.62864761644582 -0.5437096428552313 0.10644907019387474 -0.39268432871287856
Ni 6.259741981934089 3.2630615380153576 3.1805620140709685 -0.5799082042629754 0.5806638514820774 -1.0646120580079599
Ni 1.4734872171396687 2.842618762518187 7.824020492021928 0.3917191365861318 0.10345656322445408 -1.8268731828819764
Ni 8.742245397367695 5.070709926707202 2.2432603715427915 0.6560534812669863 -1.187453453516929 -0.6419625503915589
Ni 7.5110529073429175 6.536038258735003 0.0965638435535163 1.735679496185275 -0.32160103961280745 -0.0820359314568329
Ni 4.959096750080028 1.146221139839208 0.4067408665023514 1.4180970908135577 -0.2566305482786935 0.10249959862782347
Ni 2.011945756783464 3.1347681805501364 2.1920814879965285 -0.6556433903127611 0.3930095732627812 1.0636373527995167
Ni 6.068463518218014 8.388551222962274 13.116460666626976 -0.14380257114166847 0.45638932307100755 -0.608821544863216
Ni 8.77832848494103 8.539732204608057 13.057489025615094 -2.0382834258702895 1.3439050808811757 -0.9344679581899906
Ni 0.44829449583577385 2.057126280033928 9.802082714883515 -0.1340218376058208 -0.1372801966421184 0.9963965773739871
Ni 0.10713972868542765 6.691661093551028 8.657358609658797 -0.11507640685156954 0.4193525820326843 0.5516576940577145
Ni 6.230451770234075 1.6002008360296986 7.462964735856117 0.9752921912952042 -1.669602402050544 0.5923289465248316
Ni 2.90649595643503 2.182817715140011 9.614135641045124 1.4427264593264637 2.1965294261307977 1.8103610441595661
Ni 2.347733129810102 8.724524447585994 2.405801532060169 1.0251772490511053 0.24674697061639442 -1.241219077274159
Ni 0.6948591633936072 1.28235743470126 3.053709006483128 1.2436207447371164 0.01798846615762063 -0.007626406197006219
Ni 5.3786381453313545 3.3163637760582745 6.2657691492274346 -1.515361666294687 0.385401164787904 -0.3678785825231084
Ni 4.155920488133484 2.057237790992177 11.627545908413587 -1.9041687714403461 -1.0688821461382239 0.9974121631226951
Ni 8.527596095318648 3.4776550845852805 6.507234978219343 0.8036957378697192 -0.09278519955353698 -0.1295972261755639
Ni 5.9477157355942945 6.994831511289899 6.56413994947168 1.0935693644722586 -0.20557203903998142 -0.6314958465322802
Ni 1.6669959000207177 8.45691673294863 12.892757604026112 2.0883862560639517 0.04309040343157095 0.7952265240564435
P 6.853008157557159 9.1602535169431 5.625343130844984 -0.03424092346074103 0.5252486079365664 -0.8607780847050078
P 5.00459322104553 6.467282460394776 8.429847447833739 -0.7366390534305378 -0.44480187534372423 0.8316156042084387
P 1.0865906549156727 7.215483819924672 5.167083272373711 1.1911627840477164 1.1903731982668855 2.241236539230185
P 5.687235429704998 1.0692414083281334 9.557869999286744 -1.3346532232656045 0.5691244833839102 -0.2961172935194062
P 5.427805185339212 6.488432372142627 0.7761794589545152 -1.22920765463558 -1.184668177462308 -1.1758415803096136
P 7.937145571391358 7.579929509221246 1.9442781195441483 -0.1966171438395388 0.7729204043600754 2.2454546910765907
P 7.130958513572097 0.6082597532176047 0.8396189723602314 -0.48659284323758134 -1.0325591433374735 0.007662401641264224
P 1.8352101805390022 5.118009158164393 8.999931424494873 -0.23228631510637415 -0.9657809093706594 0.42523475184507414
