# total energy = -340867.4833975663 ev
CRYSTAL
PRIMVEC
9.25621803483502 0.00000000000000 0.00000000000000
0.00000000000000 9.25621803483502 0.00000000000000
0.00000000000000 0.00000000000000 13.54741072683820
PRIMCOORD
 96 1
Ni 3.9464625818374484 3.8784293797478773 1.823779469931184 -0.18460649253190786 -0.44098455848016316 -0.19517706895890258
Ni 2.3694899822730817 8.636699302546376 2.1935153943103773 0.3031865416613617 0.31074892738965193 0.1430556656733149
Ni 8.791268886450286 7.107886805087048 8.559931007557223 0.7290334731691379 -0.7354787145738495 0.007540274241103142
Ni 8.253316010390193 2.2304893569970154 1.921944438382956 1.5167865716666715 -1.0187914001294196 -1.0403457292614278
Ni 5.92454413097317 7.248655367995646 9.509889252984568 1.7316549484069146 1.212150442042977 0.1399968242423331
Ni 5.960365694522373 2.5686467681450824 1.5798448040008828 -0.9199088294288931 -1.7720768038673866 1.5492876296181706
Ni 4.528456543005319 3.0785718161878655 13.263877112703547 -0.4883373367325138 0.13475383067583888 -1.8189037915232547
Ni 0.6448233175139381 2.0605544512606304 3.959379634016495 0.12140054929738447 0.254120123152014 -1.5870275673711054
Ni -0.09296945330444212 8.743923331526728 10.182789456471063 0.3166007581847386 -0.5217210543992821 0.18888223708912633
Ni 2.1935570472912485 5.154778532038083 4.222050736364444 2.0096768178771907 -0.6835786832704486 -0.14948445201779414
Ni 3.7478889376976436 8.381116611920902 6.670636952446477 -1.2552935530893543 0.4866710047736844 0.7219703956747695
Ni 8.042209447117154 0.14864005067145095 8.176309830599177 -0.3166668355359836 -0.002270798312047702 0.07034872492689173
Ni 4.983519987131792 6.118119417408434 12.953953017611752 0.3470991838839119 -0.4784876976319437 -1.5588652460042765
Ni 8.283722686426145 8.803570400134237 1.8238609246493318 -0.009517709682448125 0.13890719072258012 -0.15698564549084576
Ni 5.217008085459605 0.07121734107172219 8.280583902912054 0.3974454975469478 0.6858880481299156 -0.037366613573916296
Ni 7.072750201667727 9.293705654154232 3.6903282206208807 -0.01962214510630169 -1.2309184666790993 0.9222801578745471
Ni 7.185972259893528 0.7781193356542486 -0.08621611667253043 2.067352318211788 0.7716875603942387 0.17885339209821455
Ni 5.087985663156676 3.379389644039425 6.881420473712317 0.34705007581353137 -1.5627244718493667 -0.21469482727685604
Ni 3.684992936582183 6.49646732698819 8.214662044141752 0.2850504941822833 -0.831596063824413 -0.04926490767339903
Ni 1.0810522093122663 6.25556499806531 2.2016849322919088 0.10753998926520833 -0.7661915702766741 -0.18783168433742492
Ni 5.154038034600373 1.143883416901927 5.646398483420684 -0.040943532291897226 0.06520266194957804 0.5866136413076092
Ni 6.750531997866359 6.6888115364332625 0.5552370118780318 1.927281703308726 -0.05433872265188061 1.3721689608228755
Ni 1.7882735434148052 7.006753367531858 5.840939193390363 -0.2131863610521296 -0.44224594169109 0.3212881363580789
Ni 0.355823828768224 6.184477244045188 12.301726576964313 -0.38423516950426084 -0.20363342725637187 -0.17987437716356117
P 0.7768151345420826 0.6182052114936689 1.3547030374178546 1.308886398714146 -1.0492404606478962 2.094443518001625
P 8.693190000825648 4.187929540056582 12.194769127061535 1.2156689967191967 -0.9116221639400687 -0.7959014386362809
P 5.821392837900221 4.551467500882146 0.6827580756260044 0.5969605317595719 1.259690139495153 0.993031003335864
P 5.6699425994526615 7.393006087259163 7.325233910516386 -0.4811163935040424 1.294971074184634 -0.7578185157216304
P 3.425948420435417 1.375899776572292 7.195761636020048 2.9597300320999476 -1.4116857879705753 -0.0011287142878045077
P 0.8460442399935545 4.235487987993483 6.188172326259358 0.6246880795818274 -0.9935094856341793 -0.9784518199701084
P 3.665082811725766 4.2241954020684105 8.540842834856663 -1.0659857984270351 0.6049888013806871 -0.2853788240559795
P 2.016485597498937 7.543993514808155 9.029050944295017 -1.5825525623188874 -0.01856002239037449 0.2565583002798613
Ni 2.814140181181762 2.7452276383849115 5.592519889852933 -0.5334247159894554 0.5935512489677068 -0.516854213225284
Ni 1.8052216785203838 4.281695028106562 0.08216652131005597 0.15952795229672526 0.4583598165338171 -1.5561074807534814
Ni 0.4120386917519494 1.7930682643239748 13.426378349787125 -0.39458874482444295 2.864700002376292 -2.0787255930457365
Ni 4.687654235894915 5.51874227889033 3.2685427313450788 1.250756327340633 0.20893349931304664 2.2453513327295074
Ni 7.134951986435334 8.812798849451694 5.970519765636966 -0.1824691344739309 -0.4633652401682084 0.7774794844856675
Ni 0.11156982331791049 3.4644450309783457 9.479421485910004 -0.958050373495621 0.7903149456874389 0.7286382946132484
Ni 0.3485826894492211 7.989661897693686 3.8144355911810126 -0.9963289573608454 0.12130978935579106 -0.9410978048016824
Ni 7.328434710690885 2.187466455866087 4.004519432197476 -0.7102021993952479 1.3713202396693351 1.7228548336167813
Ni 8.34840513761008 4.6146504447547185 0.8083482923051494 1.1832854381821685 1.488121085411179 0.2852132450123927
Ni 2.319247231124484 3.0504606822088145 9.833307062635026 0.6286650619517044 0.06354789995497442 0.5099148057929734
Ni 2.1722955146110112 5.4667130776732575 10.48855473282832 -1.5960652520933416 0.1356496030172309 -0.92404522019477
Ni 5.096334771766852 0.8364918230471005 12.692718480292962 0.317783208528614 0.04041234237877556 -0.5644103657376924
Ni 1.7425663390721793 3.301313445450918 2.0962177334825225 1.718345375782202 -1.921032894185537 0.1292295584235
Ni 4.7308715176032425 2.3228571561333182 9.054087162663981 -0.6562144323248827 0.2076183800460489 0.49244107448824215
Ni 2.996885692590524 0.20853611154239024 12.507036896543681 0.21537951204870648 1.265878527694052 1.2412255050320624
Ni 9.32869415808601 5.664601761683182 4.375555855201647 -1.5156043784331124 -0.8061056328627924 -0.464614024973645
Ni 1.4445901701378303 9.302036250328465 7.264419632822686 -0.1622252966232303 -4.537294140065309 0.22822474344249083
Ni 1.383276982295474 5.091216083228684 8.106011631972013 0.691701312377583 0.2562641660782103 0.03252214099742141
Ni 2.5980260039862113 0.5975360767635993 9.586933383269267 1.2628140298361155 -0.87137540060488 -2.150527505479386
Ni 7.0061146884918335 3.1954593367303286 8.626530421483029 -0.05405512997319077 -1.3421850128662756 0.9100733313957101
Ni 6.128523406408254 0.8976911594084087 10.502467754061087 1.1972408719209962 0.48104414550521024 -0.20198097925461342
Ni 5.503849024174396 4.985797016752748 9.303644055390091 -0.8725923037311166 -0.773117607972546 -0.8549761333112501
Ni 4.658617480118727 0.5907170209840908 3.299471458074615 -0.6952656326900736 0.6536399867294872 -0.4566150659285685
Ni 8.299671149990816 1.7233781992175286 11.450013829085092 -0.3873199790771717 1.096313502876299 -0.9994302219939886
P 7.879161167551469 7.248766442611303 11.02180730140255 -0.61268051359799 0.13367268179651817 -0.16417213593695598
P 5.948332611159591 3.0825705023514978 11.199915447607655 -0.6201138299475836 -0.5691172842950586 -0.5590226190632179
P 3.1798903781024834 7.099158191540046 3.5306445762877883 -0.055620674688097754 -0.30730107805036755 0.7043457406144707
P 9.27695189962605 3.9041153846184296 2.826247314288315 -2.253922105117654 2.2558002959769734 1.6062604474587885
P 6.227222458636976 0.3364144653040579 1.7119319600741325 -1.38472262911817 1.2217697103002958 0.3104000286906654
P 6.878193756127497 1.5670591901170292 7.0925029708186305 -0.43783547132822015 1.0670582055556073 -1.0376221596826773
P 2.981270452872822 5.920730569168966 12.51841741653948 -2.1474424387961597 0.1019072164594632 0.47783875119403507
P 9.181113018750485 7.3198449404134545 0.6370008877063331 -1.3390297550667456 -2.4168611399784568 0.7807812951653907
Ni 6.3622058853134655 5.493250654597177 6.857618109198938 -0.9233229973167647 0.592029927227174 2.238271285954274
Ni 3.9806272823697757 5.179168666392643 6.090347061007136 -0.8456273451064985 1.19843669200131 -0.7107251617782534
Ni 1.2692218644522506 0.9950156632683804 11.266500977206503 -0.9632368027925671 1.418019186387771 0.5891634043126563
Ni 3.6545677481102894 1.395828413864652 1.009442404598558 -0.859744501234171 -0.43577498925476565 1.2712719307954816
Ni 4.620620705346252 3.1083675818377063 3.94453173476862 0.44192275402371634 -0.25949347164878533 0.3235373374035718
Ni 9.171060766033577 1.463139630952456 5.857290302436788 -1.8494086449803309 -0.37876129087388316 1.941927478246359
Ni 1.58841328497698 2.05474154637461 7.619456683063343 -2.030239986740523 5.314409556343337 1.3066549382804657
Ni 4.923623000639055 8.020142623473408 4.85387462135939 0.5236318982687498 -0.7151924535209877 -1.2761284875568344
Ni 3.5907553814156636 6.115027840605997 1.3915631486234448 -1.5798529039995373 0.7256159628471568 -0.6241111240324347
Ni 7.059735959199981 4.338352338309319 2.7915929598253015 -0.8317217907689999 0.25460374765665184 1.1125718737166903
Ni 2.186614883812721 7.850198461519051 11.399075935966843 -2.091701950700746 -0.8966280045240816 -2.2505328769304467
Ni 7.648838695769864 3.766743853705325 6.351202093389102 0.8035512418720547 -3.290824098804855 -1.0969552502253561
Ni 4.417687382541932 8.150571990907984 0.6145888071322545 -0.4448594680545371 1.5330981643425017 -1.4504294843976762
Ni 7.088328416513543 3.1136899071712443 13.13219630459924 -0.32223353099048374 -0.27198903301263483 -1.4911066504020645
Ni 2.2578229686664715 9.079859250361666 4.542880507470106 0.9354958852338727 0.33417296274054703 1.2794033016533644
Ni 4.056343145375584 6.765851038608978 10.761453030412834 1.3666706567124656 0.24228379263871824 -0.6898442045641862
Ni 3.99349342534998 4.2899238058831095 11.280752776017023 0.7231520746876966 -0.7762432980857211 -0.32621591267699945
Ni 1.9171848911020777 7.606250836883589 0.1570835727049348 1.2839677810955952 -0.32517718699983994 -0.12619591380349882
Ni 7.056783225667114 5.180936604025176 10.869981260505355 1.172040975616601 -0.05125237041707303 1.278627085608972
Ni 8.987056408980708 8.738314063436077 12.561524549253948 0.4350013443135347 -0.11102280560748622 0.19243832987150084
Ni 7.793855862727321 6.615567083625812 2.729708663334112 0.9378810976365977 0.2738240293388445 -0.893627527134861
Ni 5.613044627582648 7.750351638261881 2.4522979594885532 0.19467236140834213 -1.6565429977634243 1.771025222674421
Ni 8.65260148502119 5.768678676553268 6.570724410041711 0.8426127266498907 1.776214480184844 0.7220367301363306
Ni 6.93246296209364 6.50490899777808 4.808558955036953 -0.08878044926951806 0.8114764102564024 -0.36035604889381806
P 2.4269433272213763 2.430812426333409 12.352976404628196 1.087733474516772 0.7795507651923994 0.34840710406205805
P 0.20237147037345768 1.3896822851316621 9.2433444234156 0.38555260276410375 0.2966574822935923 0.20095125243851844
P 6.0334805602782255 4.5700077054788 4.962429694484025 -0.7293738872276923 -1.2104925947245797 -1.0196946286699793
P 6.369555322382735 8.271291585690594 12.684846992530108 -0.5109296202107331 -1.1527667007680211 -1.1143582761931516
P 4.383939211818317 8.984473924166696 10.47625321914437 -0.24362745115080625 -0.5150151031340163 0.5677193755062675
P 8.001130351760214 5.066751899130352 8.783585299912252 0.2614557375814787 0.781413529432751 -0.6040110108484501
P 2.717246091457459 1.680077611547459 3.5563305811583406 1.303656260663458 0.9499269730575383 -0.9639605683324688
P 0.09179669048746951 8.508621014476526 5.805404572598273 -0.39518369809596454 -0.19411288936044635 0.589836519120281
