# total energy = -340856.9605687554 ev
CRYSTAL
PRIMVEC
9.27847208691037 0.00000000000000 0.00000000000000
0.00000000000000 9.27847208691037 0.00000000000000
0.00000000000000 0.00000000000000 13.57998178152583
PRIMCOORD
 96 1
Ni 1.6916788485763012 2.6106465498511957 13.452247870089415 -1.1456108064495303 -1.124230283891225 0.7080303885549097
Ni 1.1169331796469264 4.42237026903011 4.211016883424153 -1.0980217438166575 0.08859481562127322 0.5065476890929534
Ni 2.8912275428194296 5.7629610159885205 3.708285146995561 1.0116799858956191 0.18798492208583753 0.6593650621387225
Ni 0.5081614982369593 0.6574938656750297 2.853330551824739 -0.4932532859768925 -0.5687496165429946 -0.06916421770048735
Ni 0.5595039229919105 7.319118502683405 7.1825069203432 -0.7064080224601382 -3.5491505467287325 -0.3690227234298806
Ni 5.062826076590472 2.6193590350495146 1.2321189144685385 0.3999250694356919 1.0625700878772668 -0.9641976240439394
Ni 1.606808665286604 4.6687786496603145 6.55771874058463 -0.7735906909542225 1.5869272943478154 0.9870724717595841
Ni 4.368119043306391 5.304298310122161 1.9910292625324797 -1.0680010290848512 -0.4976079634011623 -1.7024906681381322
Ni 3.2768872310709063 1.008226601815715 1.2254356310943646 -2.5712723398739072 1.2072753733388628 -0.6555695996520322
Ni 8.578234987100345 7.669538554318038 11.350081070064425 0.465965653905533 -0.9815548843754645 -2.5018561540636135
Ni 8.02237100866999 8.551642886377893 13.195545952633848 0.16570811296550816 -1.6402519739128847 2.5780371694015667
Ni 7.229618361870854 1.2227355957453647 12.856168210514147 -2.630812918441701 -2.6324178010349764 0.36244095644730484
Ni 5.044120677059256 0.7012205206208431 13.346867624466508 0.35331148334221085 -0.00564871364534511 0.5711363716076164
Ni 8.951266674973853 3.854156644381477 1.4163513264486298 1.1360699568386303 1.005031627341166 0.17072330679191242
Ni 4.197599285079863 7.907976727509099 3.1703824346428484 -3.1746477740208876 0.1553689358230292 0.41947702342569043
Ni 4.7406682506364355 1.2610649635347753 7.708554529034686 0.3310698983351911 -0.5131286847445808 -2.6594352101640846
Ni 2.4082088479801333 2.577680138871826 7.196901541788005 0.21485397856253963 -0.6012990112339257 0.08279646377194128
Ni 9.209755626134635 1.0998607911858964 11.566749164426076 2.780659381784605 -5.568944398435267 -1.7288071945454744
Ni 6.224026846100211 2.823012216751227 6.443687247678536 -0.8819452057009263 0.42375456775512177 -2.977266241211498
Ni 8.068902545698288 5.13175584500188 13.017933730418402 0.9410754362041791 1.4067430992533192 0.9857457825283604
Ni 4.172027816276276 4.392771943382998 13.058374878432666 0.6011390886172937 0.8394929500739865 1.332762176890479
Ni 5.362279481585735 4.924409831448271 4.060183259218151 -1.0862810583409614 -1.0948772846504047 -0.4053529253194825
Ni 9.080710637702023 9.17575930476441 6.09089376290894 -2.0125171155394628 0.44548681722589084 0.9700337711097423
Ni 7.729106344491849 7.592026199316166 8.149306072572148 -0.25434098091356844 -0.9447387439883793 1.2041522543288488
P 6.308238257878639 6.7106548665434955 0.235018128415661 -0.6130702928372409 3.640580774916272 -2.417449408381759
P 7.497051760029696 5.7704487428842 9.465491654656075 -0.15652876045908526 0.006411045732666379 0.7296124856010595
P 4.629632776335812 6.835329694668964 4.817416987393556 0.41094173226116965 -0.5959552304235092 1.8746085412847262
P 7.246031978820614 8.540350985966441 3.940177358197895 1.0969285107524787 -0.9926828759678259 0.6428642362702218
P 2.519782473656159 0.6936158849780929 12.842588238910034 0.7057960999077522 -1.3223139849739614 -1.924409009746621
P 6.146662946650172 2.952428344063427 12.770437912871003 -2.150227971961097 0.7474189176548612 0.9213527609642713
P 2.6977157310024493 6.942598109341774 8.45372902716509 -1.4746377062127636 -0.727096146937109 -1.230242009437365
P 1.0284722276972191 3.1279677556363774 11.320924399684023 1.4923402656988491 1.2421019940997446 0.01852891204212293
Ni 9.212474218427614 3.1588836243060254 6.12902549924497 -1.3750136293605224 0.4254381261051319 -1.6153739797242825
Ni 4.078649274172033 2.405063445975628 9.46190645307926 -2.477227813991972 1.5840165484589237 0.25761553789978214
Ni 7.517083981055437 3.8360079531696427 4.40253475161055 0.1928975288961065 0.3911720058334102 -0.10850800960543247
Ni 6.930897956162774 6.108194401780916 4.677339895765202 3.3005415832029352 2.9717784786240498 1.4069130491722803
Ni 5.714258316514636 2.365221687251898 3.3962993098838226 0.6799667975494741 -1.0233306827606699 0.6514931155898135
Ni 5.254185282905844 6.106960365006288 6.7030789941639135 -1.5598569204935846 -2.6445678061339484 0.8112437254203062
Ni 0.8841650806887653 6.832666773207924 9.561216722326511 -0.7481000028822857 0.3097168865807118 -3.4732454107599864
Ni 1.9284190613932486 2.6757164739148935 2.700311847465165 0.6092228940666927 1.3586745258808666 -0.7822874473972721
Ni 1.020631918865931 6.331787019788473 2.5600844445905775 0.6355697594913376 -0.2998903874085932 -0.14790888000055816
Ni 4.306278027495105 7.741168358078448 0.8468749017622 0.534957350583898 -0.08449570585123513 -1.4716161457776205
Ni 2.35946903461829 4.598011743794947 9.636083784964123 0.050119799474526584 0.23377626938833931 0.2544646509756263
Ni 5.8117101078223525 1.97241757556836 10.621120701736006 2.1435513312718695 -0.15644982759203377 1.6732870499909824
Ni 9.25036749803351 8.971911275150914 9.391344601444864 -0.44753521511448735 1.3666043222509043 -0.31653108128906776
Ni 9.086621024359456 4.715486477656415 8.456146069118404 1.5707977357758043 -0.2270644045858025 0.20655342911664426
Ni 3.8789765569538983 8.142063297336996 7.124098939168101 1.18684307362644 1.8040430723613383 0.6082826416406105
Ni 2.6292962785504734 6.699919674451424 5.944895150456766 -0.5660376169284703 -0.23439436258831245 -0.39283936623350413
Ni 7.694237846754594 2.1719232802906805 2.218765646130632 0.03242109664318287 0.10847741347781319 -0.2332975299797079
Ni 4.6084964171432965 6.80938708698579 9.234767603077243 0.6568944891110429 0.15814572723721795 0.8714157669245122
Ni 4.293436622261374 9.247704576572469 11.422706453869328 -0.30936413122698336 1.2014245709850406 -1.9897319993241473
Ni 9.149510507505576 7.383733781619609 4.583094744377122 0.6133117194240857 -0.3066883841670331 -0.18082208578881118
Ni 5.637896492039484 9.014666474079407 9.214424553239848 0.6425387346100031 -0.21436366918968242 0.6826852249219018
Ni 6.235216683319776 7.975913699417611 6.528522172774672 0.742559789790347 2.550358215429059 -1.1787425560064924
Ni 8.535656079139658 2.715641738886531 12.512907427866757 0.8694684133901541 8.10377186521858 3.061533375991695
Ni 2.0002065991774822 8.790851172744098 10.80111006847521 -0.12629258728236314 1.1108428068407257 -0.3209160977306409
P 4.043298295891313 3.4014692744764776 3.830586541986067 -3.312640166238682 -0.7826808261809488 -1.1748193096926864
P 0.27225820359348196 1.7334041371139386 7.487186888610258 0.6803761171727508 -1.9489653589297469 2.478786930948976
P 6.900288277068786 0.7683985135205986 6.862819951480019 -0.43633626107487433 -0.3541092966531579 0.6311415485166549
P 4.078909071387745 5.302108590732594 11.131537796513658 -0.9994546474740207 1.2822595401552368 0.573501015185051
P 8.2042476166119 5.626641705515991 2.642515317594185 -0.5336802836436874 -0.08109799302359581 0.35217428441397414
P 1.8351704178968613 8.31598825478374 3.745019545449944 -0.8947166464339816 -2.1054614663786837 -0.40963972562029455
P 0.31206284842925325 6.769795847005782 13.215250643598353 -0.292258067674316 1.7930806598125635 0.5710479256588682
P 9.156079665674277 2.648048070441637 3.7546478158336454 0.7057886437085845 -0.2177089315128315 -0.3066475036267687
Ni 7.517557183126912 2.55541180609657 8.194052431589629 0.8247769840200505 -1.5248022428822967 0.049486793876217995
Ni 8.50294018690401 2.734096619674025 10.131793573790919 -0.3438860762632529 0.7033319546379757 -0.1351472094595156
Ni 6.735966538131371 4.453629441163376 11.457728974241613 -1.2248894868762001 0.38813707566182826 -2.541235941412817
Ni 2.460344582090203 6.426965585458716 0.517608838416862 0.5014239947131428 0.5207892866136321 0.4736385970697585
Ni 0.061771427271363054 5.213128044351464 11.040077114569684 -2.1821412757299257 -2.5704138485283536 -1.4968073003312672
Ni 6.576052073389059 5.012852226454 1.1050817873744951 -0.028050221268996853 -4.157790057488129 2.2963882447016646
Ni 3.4795105023817627 2.5472838646336005 11.92880534778298 0.3642052474365792 -0.8349562385458974 -1.2457771289584867
Ni 6.098322107583886 7.047101539361655 2.4157160596669915 1.8628421447774177 -0.28496976154301884 0.1959561132167722
Ni 1.1640770958265425 4.878165927051655 13.138129840114445 -1.0701622984022279 -2.090174715422942 -1.708977818524373
Ni 8.604279657975406 7.731899164560746 1.9271627562858444 1.562914733483302 -1.5299135959669328 -0.12563772730718362
Ni 5.215429105404907 0.8534700396524718 5.235041939496714 -1.1054427188710767 -1.0463407705025978 0.12622162483511165
Ni 1.2754187597028261 1.2851425983480214 4.991512668724911 -4.560259233501913 1.3191674689251798 -0.6539672881619188
Ni 1.544141865468236 8.663392803021724 0.8315320204800483 -0.7134600442109131 -0.1998032548770043 0.12100254252801741
Ni 5.957725421524109 7.474328782126944 11.659866981467408 0.4981604934705227 -0.10904896971056703 0.5057182512131225
Ni 3.0251158936306606 0.7549864822595013 3.493015318362757 1.482792474109414 0.19569771734906297 0.17559631861349756
Ni 7.532903775797859 1.245375067400209 4.810653909160271 0.4616001778479857 0.6051898616478996 -0.9954982339294338
Ni 5.004306753751495 4.493304187391292 9.55435900367893 2.295703559929814 -0.3719409255179401 -1.4728556746116763
Ni 3.6720480746398256 4.192848707421142 5.7834014897818085 -0.016602641553687535 0.9217726221105094 -0.9743074587844317
Ni 7.07961330521353 4.719661790051776 7.43882842044719 -1.179506944976343 1.5152647357055067 -0.5008974327857115
Ni 3.4789166801744225 7.269775588642233 11.956630557432861 3.729387192327719 -0.3948844216879909 1.4112245320634407
Ni 1.646362791378654 6.58589653217012 11.461735418446763 -0.45097355137207495 -0.6359731655773434 2.4940981073847497
Ni 7.189127110107845 9.26653987471154 1.8834073380768632 -3.2833447597086747 1.737778801916465 -0.6285444772134401
Ni 1.6125427609762328 2.020164592427306 9.519010808939809 -1.0342308746129414 -0.1317464113080828 -0.20845887366947324
Ni 1.677158039912436 9.118483297172052 7.441585054475328 1.8870457386068147 2.506015941868258 0.7333776090704466
P 4.568793835499412 3.6020141680616438 7.531417364585111 0.11473213613827338 -0.0057266180711320735 1.7608426257144643
P 8.750898072356492 5.3477865083378395 6.047993819817409 0.2502341578340464 0.9501552870182604 0.014107643045975702
P 2.4124027173194733 4.272717794308395 1.06643231230144 1.628465522800918 -0.10340308427869935 2.2301535419431464
P 9.083689027210713 0.918324703166009 0.8397536745101127 -0.696220026183543 0.11606910978214205 -1.0916292100267524
P 4.912774627573199 0.22973032722873651 2.0638856802899257 2.910776485019381 0.9711923101942178 0.32491364892580815
P 3.167623944920314 0.5604002233861146 9.084070372409489 0.20037661088197103 -1.6651531080299389 0.3566292348615342
P 7.376552244299588 0.339929811203089 10.579783253327536 -0.05114464119461514 -0.5886365852749088 -0.09355884449476791
P 3.0239468061599593 1.0834378957641444 5.623334858098866 5.779267321896673 -0.9622914081601621 3.494708722840085
