# total energy = -340894.6818440515 ev
CRYSTAL
PRIMVEC
9.04166118784208 0.00000000000000 0.00000000000000

0.00000000000000 9.04166118784208 0.00000000000000

0.00000000000000 0.00000000000000 13.23338509352863

PRIMCOORD
 96 1
Ni 6.3706729343209405 2.003957567540823 11.338112638322382 -0.2149372823049653 -0.3016991584825578 0.4465921344749277
Ni 4.514428981810684 0.29316591065615194 5.629587660758092 -0.047004907994628725 -0.5105313563310498 0.8451722598469509
Ni 2.7884934469915876 1.8586490343244297 4.64516959089552 0.40534752600284385 -1.4589907437041258 0.41206838966644516
Ni 3.386599319200189 4.258170227008927 4.678835311297357 -0.2799424835317566 1.1963325011741137 -0.2665084695140378
Ni 5.324616053392299 4.5528017909059715 2.674943747881509 -0.3141795503377557 0.10401063595571121 -0.11037257361799702
Ni 7.414415150044966 6.391107088080449 2.6702457008490135 -0.72761808087885 -0.3055815242560995 -0.34963043494619783
Ni 5.372618231405232 4.753806955608456 11.39243584150933 -0.2328882103564312 -0.7251727046621511 -0.632517345818259
Ni 5.502700607572505 7.817754603610401 12.334467508978452 0.6430257015487506 -0.42989616187648544 1.4386864849291352
Ni 1.8511354140703806 6.485926986521139 0.409146912397174 0.5882576046689353 0.1933680407746218 -0.31938037781240475
Ni 2.745590765757577 1.7568760986089345 0.1748964645272842 0.7601129681827619 -0.29927666508399425 1.5344791038504282
Ni 0.6754925441609242 9.3139957835151 4.57429110649899 -0.10945109024499214 -1.302286634009441 1.1481482281594033
Ni 8.464115820338687 2.16302750873154 1.3461396622157777 0.8492474583575891 1.1068041179949777 0.1568735453930137
Ni 6.832222601118106 0.8363626800478879 4.581940351667372 -0.5641113464400349 -0.5273216884155112 0.37832497466741294
Ni 0.7224088186930967 7.366105555559546 2.5113258512301586 -0.5024408660134315 1.1231655900721365 0.35951864059418726
Ni 7.635755010236449 4.055175896896224 3.7347394326320855 -0.14998915956835457 -1.4351563602886894 0.01060708609188496
Ni 7.582562918835039 3.8663679328227554 12.411048568939638 0.9556253089938962 0.04773381574085328 0.03410954008919932
Ni 7.891263307178895 8.900819002830044 6.6828724454545885 -0.3498055270714814 -0.890204617496241 0.5070464831062429
Ni 6.712176468611476 0.7921064621688336 0.32074116823834076 0.14877174222148573 -1.1607682309162588 -0.4006292945915681
Ni 1.7999596130620559 6.50760888949251 9.379889600226843 0.5749086941658551 0.6440831962789875 -0.9413513155733852
Ni 9.125205902763541 4.7202171851586465 1.500123669119006 0.003863339610148185 0.17489903543615684 0.1847720715754947
Ni 6.235337353138502 1.7810354166821223 6.8552770282225275 -0.08378813826124924 0.4668642544604024 0.8473929216473536
Ni 3.45497235934594 4.343433089819617 0.6384145009144687 0.8299523575734028 0.6140113165942717 -0.7617875276717074
Ni 6.069278208029157 5.684817742538878 4.728023755227655 -0.8326808122481595 0.9418297978717006 0.24160450718350648
Ni 5.486525076123054 2.8919933399495905 9.206624251335937 -0.41288625758205016 -0.5900398933803387 -0.8655559657096255
P 0.19682339651055067 5.451687556461381 12.526774595841713 0.2318371433840975 0.6799742537486418 0.2665256959052184
P 4.08428100351209 6.067406584211362 12.552341700525679 -1.2386919399769312 0.41267079913713445 0.48111330818024883
P 2.41859005563972 8.42888046759497 1.4622092722341637 0.2298964747179589 -0.08626848148094175 -0.4818327028447766
P 6.189622715347321 7.6858006036253315 5.735520664679229 0.5543126151820583 0.552998267246009 0.06195715842908685
P 4.651075603831675 1.0585705396911014 12.638213067118674 0.6774656283941752 0.6410755198009154 -1.3360097372934991
P 3.8722088458000306 5.897531858178781 8.205903162604441 0.9503674030290665 1.616568771363332 0.9674287293867274
P 4.53873296645916 0.9808755471001942 3.539109535367665 0.7382346800524319 0.47648480826930195 0.28965122617908823
P 0.04522186726910532 5.606227625513374 3.754019870453667 2.188987866338114 0.09892010880668126 0.3759641877447203
Ni 1.5121364198645293 1.3012668030595558 2.647470661068118 0.290458552571732 0.485904301810989 -1.0953933050548748
Ni 1.8699149438750255 6.5024461010869 4.766850455702911 -0.2237299408959308 -0.38731303709863624 1.2092764629292914
Ni 5.8514917205932 5.409598624713367 8.940885315022303 0.3532716312432109 0.1558530745482993 0.6130134714573766
Ni 8.610997602561344 2.366347338638642 10.28320035465389 0.06142776828817808 0.7778890612192603 -0.25617674857072653
Ni 2.1745917930936685 5.282355330086132 7.261793721447736 -0.03879151894590094 -0.9982917375141711 -1.3517646861349106
Ni 0.4127201768068012 9.215441679099776 9.426192850146231 -0.2143346157239599 -0.21292847940505266 0.14812176734231264
Ni 1.424676433441645 1.1931014130484976 11.56102936418451 0.1264663938560661 -0.35203955860832276 -1.2817987984687345
Ni 4.243848236055361 6.737845744064238 1.544111349667681 -0.24286640461506562 0.6866712061528433 -0.21448708214142415
Ni 5.676734497644631 7.651433250333345 7.996616740632781 -0.5601130239139193 0.9642253919580812 0.23101619014469887
Ni 5.223231909097892 2.8560617793122964 4.690255833250292 0.6519386877676643 -0.4080901217449875 0.26751994149768765
Ni 0.8522353158553285 7.335427199937418 6.984910938006407 -0.8863641607042283 0.44609694000606404 0.4837420040523475
Ni 4.7638251159471885 4.478714421036322 6.78498173095763 0.285561886601063 -0.730686949612161 -0.25568335387407576
Ni 8.056517744463196 7.286692647387087 9.110722066078871 0.3057172785030154 -0.43843273859258686 -0.34218760551490746
Ni 4.628390076494239 0.11577394770514027 10.576001886373536 -0.25188506317390813 0.6806393981364665 -1.0618815464506746
Ni 8.332894194891017 7.193057206531573 5.034720511503764 -0.31929193186365656 0.1455216107153042 -0.6969774731748577
Ni 7.223563770595546 6.042343100042621 6.996873959616674 0.2519562827314758 -0.28697650756040255 -0.3293945675152973
Ni 2.278299644253648 5.6073216664889936 2.599380778943917 -0.19643202441192623 -1.9382500293947715 -0.17796456173535802
Ni 2.3493490160422374 5.072832920763532 11.614200659765721 0.3241556877138611 0.0942782391592957 -0.4552379830753837
Ni 1.0602432469678753 3.3911743996436887 3.9917712494455397 -0.24260775163704024 1.0865744212116644 -0.4879601558987532
Ni 3.7687632028077616 2.7626523799806706 2.4714268097655765 0.021087673908234652 -0.5577995452893942 0.19339015226180886
Ni 1.2163475233651768 3.1712359969003145 8.272890116125708 -0.6447270005105735 -0.03048479885241847 -0.8624171629703277
Ni 3.5453166356136396 2.2498817038704035 7.282926795599106 0.8633121639807714 -0.10222371925861751 -0.44378963202912597
Ni 4.008421468095156 6.872566492301701 6.223475598130936 0.40978499294890713 -0.1851741921099198 -1.0677462327615674
Ni 0.8037132423374531 7.330553744682384 11.462241984916531 0.18220559639989908 0.5545807812417803 0.03403060722214784
P 0.13217099984800193 5.554075325121852 8.119369946429499 -0.3066811850781815 0.31369541161248554 0.16701834713649946
P 8.409350479931016 1.510038754522845 7.979849884556839 -0.3897062199211611 0.8686837127053297 0.8596280302609647
P 1.7228342451113474 3.1707296638868048 10.347104101789322 0.6406929396505159 -0.02758588003806862 1.8746288529997006
P 4.039407240189773 6.111611264622969 3.711911047051552 0.19002020734831146 0.5300293171546613 0.6085513219209648
P 7.04124771908815 4.019633127680019 10.162127993628808 0.7484057070481628 -0.1525180966377954 0.5612684776746012
P 6.258068088780716 7.6298869722763065 10.241025527126801 -0.31485729313107064 -0.04760166103836318 -0.42279117540058797
P 2.3980112353049234 8.435363338500089 5.963267445823803 -0.12447533156796627 0.3862545139271348 -1.2709181470004884
P 7.04090413597184 3.8865670033974187 1.4773350668466774 0.0567856415304764 0.41394966584955806 0.2813457916371864
Ni 5.534509170814075 2.953594176039646 0.22948549254632317 -1.3887962849669115 0.2085989987917633 -0.09290732695369805
Ni 1.245009588594221 0.8540083855687088 7.209428942023759 1.0376267876683678 -0.007354897703174429 -0.8655582797024706
Ni 6.897620934809486 0.7459523996552127 9.363585677191825 -0.6480028430483679 -0.7417056693201678 -1.0393838795687906
Ni 2.8287921298704046 1.5006806354338673 9.403365368731794 0.01293059201873902 -0.5246266580818514 0.1545652089748112
Ni 6.267688416037404 2.04958178872245 2.44085785824101 -0.18285994215444637 -0.105491848486928 0.7791316753771098
Ni 4.024479457952185 6.670096578524419 10.356115925263703 0.43214716269419123 0.5487371779768099 -0.021418831995408276
Ni 8.425046803349824 7.3485828166277205 0.4079326173308457 -0.7195887828164704 -0.5220133888287203 -0.23606712230504506
Ni 7.815349521796228 3.7344410578205527 7.929232858195567 -0.7980359684807804 -0.4341626504623233 0.7109889569626013
Ni 3.1342827285750454 8.414929184740581 12.388816932982168 -0.8812561500537016 -0.4136701869359263 0.42927935422809294
Ni 0.3450550987138683 5.000210299968681 10.276464317242016 -1.8299487364835065 -1.5877875854655816 0.0415791089933671
Ni 8.551060432087107 2.171237336879165 5.898265136882275 0.14834596753797677 1.187251621918768 -0.47259241519343126
Ni 3.8299662058157735 2.904036832342362 11.41395318625131 -0.32988770510163185 -0.8169903980960961 0.3418135100049403
Ni 1.036400387028131 3.333615186000757 12.748540318264201 -0.5666793642775272 0.32962288147601937 -0.32125316935508547
Ni 3.0680706453976674 8.347333727437006 8.086775662850894 0.9611238702146222 -0.19051385915527835 0.2698989832528255
Ni 5.4772844986264975 7.961137263043265 3.573530234459289 0.11569218605869752 -0.2792092049101578 -0.1753096406110142
Ni 2.897219419981889 8.303165213669221 3.5757264539053883 0.8237392867841556 0.5787702340037904 0.22975789225756563
Ni 3.4328383733267915 4.076423800141731 9.32725990013687 -0.008007957906141047 0.5531517621047377 -0.2648097416553762
Ni 7.39249816388875 6.286332320927716 11.475951855423409 0.38341678736802354 -1.1614814549331998 0.0865675007785993
Ni 0.753512132380135 0.2940745975821832 0.49781215222543096 -0.4156841320421616 -0.7746625838621626 -0.1041049954417304
Ni 4.620125998380881 0.23303976946794372 1.4211863523128085 -0.7732333076148038 -0.6198271519451002 0.5789139586705062
Ni 5.9423513715353655 5.429680153695609 0.39919294785122617 0.7500974929282888 1.182226915010667 -0.11244128322156764
Ni 7.835729425590003 -0.31040293310178274 11.388597656433705 0.37216538282392037 0.46180818009373364 0.3716357355726954
Ni 0.1585717456720668 4.690343537361561 6.108358075011169 -0.16528310961294762 -0.29480963045157615 -1.4806276052476113
Ni 7.83095542860548 9.144374223989274 2.4473949791118614 0.5845780989348192 -1.3561268197583483 0.03744503222033551
P 8.523329657936483 1.8757016068865675 3.679357450947246 -0.28884235712454776 -0.4661232625293198 -0.7436897896297321
P 1.8960724690193866 3.312792240820161 1.5884163925158952 -1.4229677886422978 -0.17619692831197398 0.7151073500063491
P 4.861872887349004 0.7738793778485719 8.442714208856938 -0.12806150625732785 0.8687287070106522 -0.9973286022699532
P 8.470616774565718 1.52839332626258 12.447030762878281 -0.4162484891860638 0.6626460468828395 -0.7489410107263423
P 6.406278995163835 7.637970217170554 1.2352174697793772 -0.3627500030472914 0.917757330303529 0.1954336650543989
P 2.0991843407245114 3.2493830725389987 6.1060822889486595 -1.6187812056336184 1.0555892856840594 0.21797092692496653
P 6.751959776815827 3.9857178574358096 5.870898741668159 0.6800099920825837 -0.6924345909991817 1.0674916935486003
P 2.2874588468016044 8.509396458404005 10.168744681116067 0.5668559990647076 -0.19275020468496482 1.4684107514664453
