# total energy = -340870.32632077346 ev
CRYSTAL
PRIMVEC
9.20808476282081 0.00000000000000 0.00000000000000
0.00000000000000 9.20808476282081 0.00000000000000
0.00000000000000 0.00000000000000 13.47696281786056
PRIMCOORD
 96 1
Ni 8.656511069544644 8.428942468181674 7.6366263881340215 -0.5190607339582997 -0.21624391693153078 0.6044434704001783
Ni 7.945564070166416 5.583708801395721 4.2564693076854185 -0.5149793648000743 -0.5468528164699034 -1.1523396405329316
Ni 0.9970421860880869 3.5214293551038973 11.173506909098851 1.0420789099024503 0.7214127233990866 -0.34012352389702716
Ni 6.986136909431074 7.434054973876338 0.37858302946335687 1.029359662563569 -0.6267637311639335 0.7072189483972078
Ni 1.114482096332617 2.2975644225007166 1.0525199746432279 -1.4786738239553503 0.17581846192663267 -0.8360029346428569
Ni 6.568347697606169 1.0926497278843041 9.662079021109866 0.726020397374427 -0.4270553499935806 0.6759875011867519
Ni 1.7173169751070319 9.05156552063615 0.331480914607324 -0.46944281382085606 0.3978116226371149 -0.11212272353988433
Ni 3.4104719363767066 2.3504648681926428 1.0712308024319126 0.4698948137566101 0.9284708600662913 1.0232378659365475
Ni 0.9659556926753902 4.781988504605655 8.811103759297925 0.3743287090238263 1.220874452179536 0.7933095095393886
Ni 9.282209622236037 3.27601548589916 7.330699749746756 -1.3320618083893447 -0.971646624122817 -1.278525012813469
Ni 8.790212457089773 2.039139529838592 12.320194281115977 0.8092801739360321 -0.5731683144359806 1.630768974123114
Ni 7.259460482881629 1.902353433972002 3.287961133975076 1.2176276631074643 -2.4809921661304113 -1.308055161062102
Ni 2.0302261040022502 4.6393092346323925 1.264044409500782 -0.4925881415890678 -2.093225586434124 1.133291365652229
Ni 7.24199274650607 7.399589113436847 5.834635550815558 0.7007863053979866 -0.40081055736443877 0.23085163954237659
Ni 6.278873143869516 3.6767513251528805 4.185095602785983 -1.392338493792215 0.776462870295695 -0.050347599214616526
Ni 6.392114167563042 7.504128497238489 8.411079704979278 0.44085240377767304 1.5301707062830614 -0.1644816967575748
Ni 2.938686516799418 8.228381178779438 11.766506632774302 -2.0328787099149506 0.5042084994368156 1.2517639426695408
Ni 8.677477878046037 2.5880702817060386 4.9006282282659654 0.22839237936860665 1.7713401828116786 0.8803506075202967
Ni 4.10974308455609 0.1304711914879092 0.7131725934119505 0.0643130602557731 0.28178159362302435 1.0650751136873076
Ni 3.394017089300733 6.797573754186642 8.971385203681056 -1.8223359571332551 1.647638239074627 -2.778717684677202
Ni 8.422855924299625 6.3365433773540305 9.539236727664736 0.5819216351485785 0.9006291552636747 -0.55646360008679
Ni 2.043292375966888 6.107915846268768 6.713575765380568 1.1892097740864036 -0.16251531705982336 -0.0819369439851234
Ni 6.09825656558455 5.298009562321153 2.4394379850765824 1.5068274035714306 0.6156295689239849 -1.0310524768849598
Ni 3.3883541173076024 4.472256164877314 9.538347226698011 0.1325604225689459 -0.22943187637671453 0.30421498292587607
P 8.236346171907988 9.07871095386501 4.128896821211229 0.2305518489137707 0.7310011384184701 0.30789346021872777
P 7.521909308488465 2.4401239873749376 0.5008995412811583 -0.5379560282009057 -1.4150107385787503 0.6238959226978352
P 0.9807991249565712 7.158539876304864 8.165664914966086 0.41494905364834983 -0.870643664645178 1.4892533992434094
P 5.462990813054353 7.890232690155487 2.141570262280191 -0.5861287312513905 0.5868201008914604 -0.9268541503984747
P 8.113933896010954 1.3148315997903934 8.013415682728661 0.5098919229748381 1.2156309443924096 -0.03586766043088662
P 0.29328025507772876 3.7067512645896596 3.16657371788753 0.5460791715286725 -0.0002301137329350876 -0.14685601325601158
P 8.498988367290199 4.920524136535164 11.1956901055682 1.0619728206129002 -1.137674325211273 -0.4188908119049172
P 4.137008222883991 3.9118797639245657 2.820094675178725 -0.507970537582409 1.0093230556276682 0.9771153605468721
Ni 8.793545783693858 8.499393523010033 12.277714624699867 0.4868175576538777 -1.2771204191564585 0.22844868652783884
Ni 6.86527159173704 0.3786309115029736 6.436758644654902 -0.13866730679763214 0.8268840030607244 0.6675234295797988
Ni 7.000648850668753 3.3007668171471845 11.577963735315862 -0.7563887252536393 0.4772785078151909 -0.5780138154537401
Ni 7.479579743850382 7.473879939519085 2.9239075411100295 -0.17793705093153228 -0.23446686769746072 -0.11877031076338898
Ni 9.201961165455335 5.510568985881191 1.95735332293943 -2.740539373835267 0.6001458714660889 -1.0443527935382917
Ni 8.889144117405534 1.2022719743529515 10.223380834559054 -0.6390780297549122 0.24527552827719049 -1.462519582792991
Ni 2.8268174977026024 0.48198889805791917 4.33694060011203 -0.23337620573644324 -2.316054355672024 0.18928024385849337
Ni 2.9657030368446944 7.624883317918023 2.0958567265730426 1.8021929065264768 0.9845435346901431 0.10962901058375314
Ni 5.925660228935383 5.51787099692274 5.70591665781593 -0.6456978490642751 -1.0017015345266684 0.6274715558642355
Ni 6.7807597918135425 2.926264810752698 6.347245013208365 1.1715120996963244 0.5992135894598066 2.237505354322527
Ni 4.868001222309446 4.813811644781686 11.84075141843383 -0.20885610910789193 0.4455919753451874 -0.24028141749670873
Ni 3.1327745227688557 0.72641381898288 10.169675602278186 -0.2317723515844331 -1.7128334448250373 -0.5548283784762121
Ni 8.099504827534147 3.421816296532051 9.398415649151984 0.4230418579588134 -0.12661808894258192 0.4806098861812691
Ni 4.338094373105101 2.965601747914736 6.260305041391227 0.40278310770977727 2.647992001324149 -0.9272621844701708
Ni 4.685837685821479 7.568382511170301 6.574547500928079 -0.15649250790451114 0.5581947238452839 -0.33820342405617887
Ni 0.48769054400612466 7.480123020838342 5.243293282357609 -0.3273569682599781 -1.0639353436559096 0.4477177634389386
Ni 8.550958796443416 4.177348841261072 -0.02548981962826626 0.14244091490745145 1.3235589131246561 -0.25901164691636036
Ni 4.941629066304684 8.022175333553156 10.677689309676243 0.5186385588192165 1.751376338095242 0.012161575063198411
Ni 5.3522451802716215 2.825491533528601 13.239686900002528 -0.24703210595698102 -2.008353728190393 -3.274269279769968
Ni 0.8115572935059371 4.9057359527612325 5.026772540827741 0.8063848546661081 -1.2389709046699309 0.5938027028568805
Ni 0.6373099472984481 1.4504114365820242 3.175064492643409 -2.8086820922497755 -1.081317029467467 0.5988883449099041
Ni 4.835607180891832 6.5687068129032955 3.738940886530449 -1.6878569773853576 0.8560444266747643 1.0711711992827164
Ni 0.7375666509797574 8.290664662619331 10.154271397648417 0.8725658213685553 -0.6153668021809016 -1.1123646428018905
Ni 4.051234915378283 0.7363659167555229 6.2865987267999826 0.3001930062506765 -1.3449718315827934 0.4727525949203794
P 4.651417865804695 0.5137438984083414 12.195546282292224 -0.12734031182058714 0.670270910417949 -1.0607672303405733
P 1.152281283376195 0.692110941639776 11.678232409507075 1.7678529955940265 -0.2698115657453418 0.15371571649032237
P 7.082204855454374 8.399780464438187 10.594806419908167 1.4798860990958964 0.2859930606012107 -1.2712053392236042
P 0.41856637416022047 7.303484335075379 0.48320528602587454 -0.5615399861684329 -0.7341563962180001 0.4812161523067003
P 5.623533767038467 1.6561660856657643 5.1011250610764085 0.20960198613498096 -0.3443463037291231 -1.4229431060519493
P 2.7266335378891724 7.529238943783639 4.697920534357065 0.21303903684098796 -1.2676716150387328 0.22051323373084605
P 3.887883495608959 8.92577387771232 8.296161889090712 0.10268009006974574 0.22762181975116927 -0.40729976463320816
P 5.854131828215648 3.5462543510282547 9.383375163861611 0.5461552761822465 0.581229237067244 0.07366004868831184
Ni 1.3542790339669317 0.9362412038594032 8.400514348776158 -0.8151458886881896 1.0678819870084835 0.359418110460581
Ni 2.4941386112964063 2.57219554395619 3.5665701479525533 1.2444285853503922 3.5656225762418265 0.07642706991048773
Ni 2.4673430852801306 6.437832307312461 0.1429840575715921 -0.551026745341935 1.123760800453974 -1.1419747523588397
Ni 4.671040293963006 7.325510073299068 13.283568026885883 0.6549209103244398 -1.1258745043628673 -0.2858390515218497
Ni 0.2463724308055252 0.5792474494124589 5.897909824552135 -0.6165266268169576 1.8947289661836852 -1.0062305327452736
Ni 4.302790576972318 4.771472872059062 0.7306357257452383 0.32625705032758007 0.9286685778993942 1.0213177660956991
Ni 5.047356293012203 1.8045635761394077 8.156365670387448 -0.9103682369283096 0.33977591074962127 0.5287363093748507
Ni 0.8686805667686756 8.218316742375388 3.0621006322945874 -0.12786481686548948 1.2429334888621044 -0.3512743983075241
Ni 4.75498119264492 2.349553267823017 10.733026214537896 0.07050401955783342 0.4899985264850206 0.5620665480958642
Ni 5.814537064686443 3.0669367182958753 1.80527996511675 1.3408804351222392 -0.037130586303710245 1.6639230922775794
Ni 2.8365964834858617 2.046211338766599 12.14856571415214 -0.3726371802540163 -1.3955469734271837 0.8424936845735232
Ni 3.411070461871916 4.946122611561022 4.991664876895695 0.23723080359584306 -0.18238840183466654 -0.4552366975238031
Ni 6.853706237552696 5.101011801636546 8.203912535726843 -0.007067705480058796 -0.2102542750069992 -1.9392327050230151
Ni 6.907941855503164 0.49202202697452885 12.424748397852886 -1.7899418570732657 1.0982978802961794 -1.4100824480391974
Ni 5.711397309735135 8.701354441262602 4.492922789822651 0.07146458369888983 0.1568774020477556 -0.5148994034917584
Ni 1.0112226362822672 6.360226570795219 11.656400041058761 -0.13127409965735456 -0.5986327772556722 -0.19202283960063704
Ni 7.10751787985944 6.5141949524165765 11.477304638340081 -1.325714011794446 -0.4355142793942112 2.11311975425489
Ni 6.484775122305923 0.49494098977424 1.1208550116439104 -1.3703414206958335 1.0291619447304663 1.377178241112009
Ni 8.611520368474016 -0.08543813322839075 1.4978164974194783 0.7664440526071121 0.5639699357661642 -0.9372699464151599
Ni 4.965201762731374 1.2755867434737724 2.943462750251186 -1.4244127486189404 -0.4792893675976326 0.7327829129092412
Ni 5.328322576632349 6.036958346790615 9.79316991668743 1.277243060777252 -2.9680688909829462 -0.031102120721443215
Ni 1.6399046083651654 6.1763503305825 3.191735729706113 1.8040911519904543 -1.7802783658415726 2.130345374104557
Ni 1.9939738751616736 8.718849801891785 6.743117142207172 2.0413795482971095 -2.045320278112413 -0.001675845040526146
Ni 2.355897638072231 3.591908034185882 7.250888676981782 0.44647283528824394 0.5345405747614536 0.29262444987479924
P 2.2481078004273773 2.0089922610491464 5.78262736851572 -0.6142833393087357 -0.15973878275595071 0.31866818223672855
P 2.427536535806467 0.7208410862182579 2.2613536300405777 0.5882884579068708 -0.4106846219450411 -1.4839687538057023
P 6.354434685618505 5.2769967133970495 13.681542361585553 0.5332871619703268 0.5100320480971281 -0.875108385284751
P 8.223813968846768 5.042586505219615 6.290979012616457 -0.9592634199671157 -0.5008167001464472 1.0089900977682817
P 4.2771184372701265 5.580393890960717 7.196886944378672 -0.5888720983244826 -1.7596894859466274 0.07071536423769112
P 3.3415862559204323 6.346764351195289 10.990772471369299 0.06267398199045336 -1.6710059672662898 1.52019431179664
P 2.8402705092179903 2.470676411884217 9.141814878037566 -0.2658901192037485 1.098538535552076 -0.9090641734049054
P 2.9006847518959233 4.010314187675077 12.779825949906709 -0.742591928579863 0.8091678167278838 -0.1580274564917988
