# total energy = -340863.9928876416 ev
CRYSTAL
PRIMVEC
9.30602866435723 0.00000000000000 0.00000000000000

0.00000000000000 9.30602866435723 0.00000000000000

0.00000000000000 0.00000000000000 13.62031361807960

PRIMCOORD
 96 1
Ni 8.497985920823389 0.2617441455641938 0.4404971301814632 -0.023904317421423345 -0.7599440467050653 0.8893011318453652
Ni 2.987021066075461 1.0135009370270964 10.587165092786393 -2.1776670420086566 0.5296953308540104 -0.8787426396032284
Ni 8.029204048033483 6.635719360862317 4.193721666151538 -0.2744020133295016 -0.35115252801767916 -0.5708568926939847
Ni 7.3815603100944545 3.133535176632579 5.139788329847204 1.9639469199402433 -0.4536138172083994 -0.4692283838172047
Ni 6.368226881577904 6.0952624576156715 11.174568117319083 -1.8092582980136904 0.9030513915519222 1.613209367972796
Ni 8.16065169866987 2.3831528855589856 13.202905406443458 0.10062346465103317 0.4028571554808223 1.4318026133251085
Ni 1.723420616775591 -0.23354129600535223 8.63645031684596 0.37992497216468113 1.7127956496085663 1.1175171335371077
Ni 5.648498647934134 0.3835805301066163 1.3922004552569847 1.5173082484980966 -1.797478788880259 -0.23470083808513773
Ni 8.88544241174346 7.319088941689352 6.43979303150279 -0.029260439527014123 0.8969799885468618 -0.27036538136628274
Ni -0.138737993256462 7.990211789189839 2.198753933533497 -0.5887854521479473 -2.0457578798704636 0.4687133918539993
Ni 2.610843481532119 3.951367561285821 5.729343838740403 -0.5157887480752472 2.4739913093325456 1.1681946052873173
Ni 8.276809544704802 9.144112776139144 11.725578056730093 1.322075386600594 -0.607479943233657 -0.621140214329569
Ni 2.995787344794008 7.691134649639239 10.967948230766899 -0.08576197415816843 1.160698296910272 0.1477211894697843
Ni 2.866052003376529 6.1267168334847675 13.332965528250828 0.29305948052968883 -0.206043065139129 -0.25784925117714297
Ni 3.932941625125818 1.6304813115079375 2.0738558656594375 -1.8385017682598401 1.2784270537830242 0.33074311112339166
Ni 8.25388879684516 5.7130452606643285 12.52613938334326 0.5949684410302076 -1.5530532673081898 -0.44193612376015495
Ni 1.4054708517035324 5.5855340600257595 10.581607532647627 1.1880013556005993 -1.1617372796977476 0.08172714196716248
Ni 9.560827420234492 1.7064557270686789 9.056009813812073 -0.673060300237628 -1.2066876191561926 1.0071134495708591
Ni 3.972147922621825 5.6156483678104925 10.10452933557154 -0.9880214659364145 -1.7964801724124158 0.24488060683161694
Ni 6.726760236343788 4.196116107249503 0.10269667600692807 -0.6290286159387102 1.862958615750624 0.7388903113585598
Ni 5.570932901523211 8.079233256516401 7.629050412014064 1.434503300085723 -0.7400807321222351 -0.6429079450239638
Ni 7.16767986021296 4.5714840673252075 2.6159990212455746 0.12815072353702445 -0.8602780051401377 0.8751212408005573
Ni 1.0264642345376442 6.292308302187345 4.574613684663899 0.11690754652303736 -0.3875614056640164 0.03249385886264727
Ni 9.366145306867184 2.8829145267714416 2.805716368480882 -3.6385560311767597 -1.0345368358891345 -0.19546991760897303
P 0.9816650139950904 7.212553528982423 11.620251497107601 -1.8424185868157432 0.08279697799257353 1.1713524341900083
P 3.5564755537032022 3.8286024351127077 0.6246550560723335 -1.4389507943341155 0.006328770431505229 -0.9278787350082472
P 6.2756598174447955 6.716169976065968 5.9088050121161455 1.1462939485594839 0.11966248356035519 0.9100139389126843
P 8.51134007152521 8.487777207708477 8.811648398628318 -0.25456363844733576 0.6529540164060562 -0.1901405349762596
P 0.2019640805618555 4.251096122821877 5.359252396746881 0.5790371145119317 0.404917894664593 -1.3888042553867113
P 7.4547243050893774 3.394438987835536 8.200872353257514 -0.8734243127141087 -0.09454203434364364 0.18385341641596722
P 5.6863741833741415 3.95328460312873 4.287688356950538 -2.1274230582514395 1.7947027687970187 -0.15470584831773357
P 8.118206903303317 1.1445205103587568 5.341559775621932 0.8707580787358551 -0.3857482637146776 -1.2416067996308808
Ni 2.9527190455270906 7.8562515108952695 3.800584775518302 -1.915622778913559 0.8604950062469502 -1.4089853583202765
Ni 1.1080129610882048 8.954576896456928 12.719888102065694 0.6581730987131503 0.7131983059090943 -0.5476102634612181
Ni 7.0382795358165735 7.758454458821797 13.109292344722277 -1.1521444938029899 -1.9619918530964016 0.9108657453900184
Ni 5.716535021300692 1.0880887543616555 5.561827883372228 -0.9080645284957974 1.4809016848446044 1.5931383082545338
Ni 5.616997741923219 6.422964940412823 3.8528185821205665 -0.08546244063987862 -0.850603201054535 -1.882251402541965
Ni 6.654982839575048 8.338713245379722 10.387831826442936 -0.4757309608224129 1.1083717195924139 -1.5998005507660578
Ni 7.865185298124362 0.5676416733025049 2.775206554490694 -1.0417510942493864 0.1868415525100137 1.0387958682758045
Ni 5.543563872105751 3.6955913717112283 6.57500217880376 -0.5220874365997653 -1.2494167825936031 0.315177909695283
Ni 3.2050799226922284 8.838000279145632 1.266259181603361 -1.3246603737189508 0.528295108072374 -0.8817773126644943
Ni 3.923105153145452 -0.10411677593521923 8.511129755284191 0.06551582231462265 1.7292802775271507 1.381385080104505
Ni 4.014415903449469 3.370038581466077 8.636000835675995 -0.8861908683511577 0.6260926732388379 -1.044897353187852
Ni 7.642296612786866 1.972142836850546 11.045774545972005 -1.3581711038818869 -0.532435869713625 -2.558083609097775
Ni 0.5335871931086077 9.018164988265665 4.026532352378926 -0.3651650402466873 0.24031072807274742 3.557140764023061
Ni 2.8870557093932603 0.4445108202147003 5.818107529081293 1.4347740372486064 0.58870291973647 -1.1414083383324085
Ni 1.3601877176860693 3.7614036042988768 9.232937886267234 2.799486798903753 -0.9419236431370874 -1.1759074005505425
Ni 1.3865703080969833 2.3382419926760685 4.839010978914567 -1.8108441544435716 -1.0152275940375612 -0.375345837434431
Ni 5.227261274054056 2.4456614780775423 13.795743151540513 0.3273261150220427 -0.6890577041071487 -0.34988368860758456
Ni 1.3081111829631507 1.60907744627157 0.331921836057225 -0.42689439893568415 0.6060840913273949 1.3934088440382584
Ni 5.884211040356723 1.984715281169821 3.393473952694227 0.6058370083135953 0.09486162246659145 -0.5969602746492557
Ni 7.479301525997745 6.573294522599032 8.247971093408724 -0.4786059683773628 0.12035873829643143 0.5109028807378556
Ni 2.94455765865218 5.597771487323943 3.329717421772106 0.3802101075052678 -0.7204974106736689 -0.3615333570313709
Ni 0.4126358118635671 3.5087356281977393 11.814477615085092 0.7329616045789505 0.7924803287698738 -0.8842483999128061
Ni 6.733963102297244 8.67648485086633 4.71333678827498 1.7106271812023377 -1.56130368024244 -1.548660537557133
Ni 0.8863331288351456 7.112644008470405 8.773702137372748 -0.18976489680439573 -1.8799541218673559 0.06116525865541079
P 0.37909316322967007 1.4249576750969906 11.352816715199042 1.3242014318046613 -0.7478367219185701 -0.4085359510331545
P 2.8074426367423366 5.512500349427928 8.169518482494746 -0.35589647046056777 -0.41078309519611833 -0.36205811918658937
P 6.837743930608536 7.782957231503256 2.2050196824307347 0.1760354630334452 0.03453480055207601 1.0632478306705817
P 7.094487947132946 2.178699442409857 1.5696729303714174 0.15312127743943307 1.710333818331635 -0.7803994863459399
P 3.1500906010914913 0.0480656364981907 12.693191898498927 0.9761080023282803 0.4077754187180461 0.5488011984455258
P 4.326186465688072 0.32777227800987874 3.937005567712218 -0.44314531357690773 1.2264123512786298 -1.0209490699023707
P 5.245417335391514 6.374880691857905 13.275297001084198 0.03858865890647547 -1.2055766454802013 0.2230393425868094
P 0.6625380363350314 3.8355633443287087 0.29358844402172696 -0.5107699547044171 0.33889402236530025 1.807065918348062
Ni 4.959806018883098 2.399270926684807 10.431116956170728 0.5047661717124984 -0.3868363545725338 1.129270417418294
Ni 0.8731492784523794 5.51480824446211 7.020876332173732 1.034224189744722 -1.0829522510780447 0.5488258810358742
Ni 8.694445485608151 4.601626293195031 9.640580083310871 -2.1199318920807166 0.05611998292201948 -0.20567359761485224
Ni 4.344054040146257 6.919581144038369 1.6996651181717322 1.0595379859191623 -0.9179344793113416 -0.4608378457606644
Ni 4.780962765790702 4.344891582698985 11.96450568195232 -0.16050008640200744 -0.05515736189843404 1.5795595411288346
Ni 3.193465999294408 7.477030855077017 6.969677355925506 -1.8291411529805464 -0.7197615609489089 1.4031229860022285
Ni 6.171041446580777 4.418948956416816 9.7467776871882 -0.004540053962198632 -1.303446458645497 -1.8793761378766987
Ni 9.25422170373771 3.0017711210318274 7.123437140166552 -0.3014304782022035 0.17244003237270303 -0.7671109967671499
Ni 6.50412281377211 1.4161634782933525 8.865979784023747 -0.17977256147837425 0.05889574589494373 -0.7026781231040609
Ni 5.014404487292563 5.654035734810499 7.822989904317954 0.5737372995655732 0.45721001920008997 1.5611905517033435
Ni 8.357492810617543 6.82056500224926 10.42306724163618 2.6511462306824147 0.5850833207060118 0.3724662018937908
Ni 3.655891854711948 2.6729426088026758 4.295110845173375 1.5479704534686436 -0.7094272689024362 -0.7162705170765148
Ni 1.96350684252909 3.5805967792217523 2.5456091533058522 3.476624611644864 0.6260872739221992 -1.2494424936252158
Ni 4.552313648896114 7.977267103736018 5.28014557203894 1.3761312879047332 0.9109966145409278 1.0213067103521059
Ni 9.323523696961724 7.147718429372957 0.1821441013529791 1.3339011755909287 -0.06172061693824854 -0.9816037353355287
Ni 0.657003741267176 0.4388629916008083 6.8511269299982835 -1.9376401637249145 0.6952278374736026 -1.532097233881813
Ni 9.19551927681988 5.405713673955181 1.8494344774504508 1.242828587853124 -0.4187116060145757 -0.4093653889129853
Ni 3.0418056550521984 2.3571332302542536 12.608446551205455 0.8451601756620928 0.38307174532377897 0.46333155871679554
Ni 4.843303849798713 4.3905841819644476 2.100006735964097 0.4233043675915807 0.014147495144975635 1.316324600159746
Ni 4.876386780631446 0.1930572808150175 11.44137660351877 0.9908566213923644 -0.5008174714773955 -0.021566156206549957
Ni 7.5442669100043025 -0.008782098966765258 6.929443672898153 -0.37323264774617015 -0.7300068928260008 2.0183810305194076
Ni 7.66519874858978 5.0468359961398415 6.527222237376334 0.2674775182955264 -0.0752721303704381 -0.10469172118313583
Ni 2.1824404658120398 2.1810538675858573 7.210334971820532 0.8331652080837456 0.14329529248794676 1.6372376125665933
Ni 4.228389413614599 5.701552315635236 5.757891941951536 -0.5084510767632534 -1.13254214619103 -1.940784880001483
P 6.525052071561933 0.4697143368319413 12.849117195540192 -0.8181959883684231 1.7036944586382465 -0.37500979425125086
P 7.1679404290071425 3.891920652098901 11.60205541984818 -0.042486194188668766 1.491154215810548 0.6799140899346678
P 3.0124637476216476 3.5392687072588354 10.836566652931893 -0.5048605311985176 0.18256837905595655 -1.486827563410736
P 1.9419447748105405 6.933465738356917 1.6301611841322285 0.11434904176724178 -0.2595235535557724 0.7358330125894748
P 4.859096179931806 7.405318600506822 9.703806170616264 0.5076694614022225 1.4311688363958515 -0.6496982284729198
P 1.5450147470162854 8.163601709661144 5.691397577484833 -0.14927362155856871 -2.3614782923327784 0.31336476774594413
P 0.6616344209809223 0.7380918194137364 2.3060142858499533 1.2286756933915097 2.1338230482405125 -2.260151373856817
P 4.3304020965368 1.5862869828090203 7.096727908160074 -0.04084685881303288 1.2023455401374132 1.5619032614996522
