# total energy = -381165.8225717043 ev
CRYSTAL
PRIMVEC
9.25859562301929 0.00000000000000 0.00000000000000
0.00000000000000 9.25859562301929 0.00000000000000
0.00000000000000 0.00000000000000 13.55089056747547
PRIMCOORD
 96 1
Ni 9.027501019275714 9.177184733768073 1.648072600032579 -0.24952736157500896 0.13556732771606975 1.2436361713560842
Ni 0.6526948787792939 3.185558682922853 4.775428973657892 2.3249953669153958 -0.9001833259755077 0.0948042868660948
Ni 8.308154436886655 3.863223068080228 12.436072419421855 -0.021738934338988367 0.8599368197506351 -0.9174644816534586
Ni 5.645160146223547 7.116295429859906 8.957179208384156 0.5739902961166438 -0.4661646572902165 -0.4542619923153596
Ni 3.3949418216155425 7.601538423398878 6.004386247252307 -0.2747218585627656 -0.026377975772896505 -0.6246981068841564
Ni 1.6846014629730226 2.268374430510121 11.513961668309218 -0.15205761206160912 -0.14002330660489432 0.6310371617283067
Ni 8.625150231826312 2.3440727078460233 10.501818482207613 0.7093326523061009 -0.42424770534145645 0.6457328160672686
Ni 3.4442345844012987 6.62565467510679 9.060775485875212 -0.3962694749609756 1.0895471306867428 -0.313592310375718
Ni 1.3857710325310482 6.356618405191592 9.87798912681997 -0.38252255768852833 0.6019255890743311 2.0375267502099232
Ni 8.239270485886275 8.85800391027518 6.370693322168848 -1.0987455093565592 -0.11036486030851315 0.3661772835612855
Ni 3.037587808609938 0.09863089268977913 12.211560735576663 1.2917780211686334 1.5015363303758207 2.5972934465280173
Ni 0.3186808593324069 4.847467328167121 3.489679474870421 -1.8076547009719963 1.1388817152558128 -0.4374297512493692
Ni 6.651939827914597 1.6808332145782439 11.918603958160851 0.20440218710159638 -0.044232487455814144 1.592749043235915
Ni 5.215598346409881 3.4172550369261496 8.465322800033412 -1.7013382997012443 -0.41850977441641474 -1.4652578076597602
Ni 5.170573796179391 9.017575804830496 10.937492806813006 -1.1509144780506309 -0.20506373194499522 0.5588308147673859
Ni 6.034585934264812 6.9781571840365615 6.079810470159498 0.49417091269515545 0.2833239984094798 0.7095712506794682
Ni 8.965070309383835 4.121315678038107 1.1466678020760972 -1.3295614105649942 0.6760746615839196 0.5577900322076974
Ni 4.686691816188409 2.2911505755989565 10.83796197863435 -1.5299889292895585 1.078550008245291 0.9205433776890984
Ni 7.682393738464245 5.008215064359139 10.068704159275825 -2.4526907480825564 -0.047245306140208956 -0.7933791864350594
Ni 2.4880531274706095 4.530665963734321 8.60454430153781 0.27353940821889017 1.280576238915543 -2.2292354010042508
Ni 8.40224028501379 1.9651369085794121 0.21410502243061913 0.15624208245660187 -0.7917174824619203 0.23384594628401015
Ni 3.987297507240995 6.783023023917741 2.208131526750151 -2.7060544526845205 1.463824931867976 -0.4244117417231465
Ni 0.14973556262752133 5.483588395026282 8.171634593568 -1.5510871447207546 -0.816673895296942 0.483195130409942
Ni 6.993961606665278 1.677166810734675 2.4038063888499424 0.6911240997178743 -0.6667315298061227 0.237728569167868
P 4.646953924025286 0.9635790747867786 9.17694771372162 -0.19098334259252914 0.3244909595660928 0.36642436657508504
Ni 6.54027190681035 2.0710552418380623 9.57057412657053 0.48041602500290814 -2.0769633589389906 -0.2616709389160784
P 1.4701909068887726 3.332492594532536 0.3347426709178183 1.1892038605491326 -0.3047600567960687 -0.7394896355054554
Ni 2.4671657358769457 4.317079422655318 2.2532829197398763 -1.3489549846002575 -2.5343752097372416 1.2544116647050332
P 8.402212509227095 0.9521354506689734 8.327997458900636 -0.49866442969013475 0.0381536282515859 0.07738352028648608
P 8.816877228777372 6.735378291142478 6.435507194559046 0.012841631849358529 -0.19916999216837955 -0.4144965394919635
P 0.2889255849070005 4.453690000210508 10.448509340665947 3.1206967737257285 -0.9115069785184431 0.6144378626087289
Ni 5.012872137928117 8.21756833788293 3.907371755170311 -0.6163844448121385 -0.9460345799816674 -1.0678976707377672
Ni 8.172923390070586 4.223363918350768 6.202066521151384 0.9920598976718463 2.689273890792072 0.5973775646923325
Ni 5.506308988541731 7.73705648667745 13.123048174138516 -1.6140017819671042 -0.13110877772408389 0.6230801116647592
Ni 6.140457974545639 9.084117331153042 8.089041440115162 1.3034456873145488 1.1068473125280873 -0.16427292318087838
Ni 4.634889974004656 4.854772360067564 12.733134458110998 -0.9610313105008158 2.4776893270094233 -1.4342348769156847
Ni 5.140918514586081 5.054443232013024 9.99262998296 -0.994918450166564 -0.7877075899715789 -0.0042415488851733395
Ni 0.8152471152468457 0.40773651248931053 9.710676120513119 -1.5624935867854832 0.27401017720772164 0.38567550149521324
Ni 6.818631582459067 5.617773220543557 0.2843907247994754 0.697527946361689 -0.021387464536840588 -0.9316942520995954
Ni 2.778374908588747 0.8014879163783422 5.1011380328833615 -0.6012941261379193 -1.383992435820365 -0.12872716486578478
Ni 7.328919077000194 9.057072973508943 10.573773509356762 2.423153657855388 -0.07638258982579749 -0.06374330379523216
Ni 5.861042819002563 4.644722602494225 5.487446451798038 -0.9860419736125404 0.6100788143090848 -0.38559682573847787
Ni 7.3636665861540145 8.935776113017544 0.1442368827217248 0.19083524705043908 0.7802843009243143 -1.1389588483506514
Ni 1.3386818154896587 5.339524648041615 6.288264045857506 0.6773396443392723 0.29014487798605515 -1.342690234637468
Ni 3.3903495582155174 4.10240962589526 5.661128445993756 0.1540065082578638 0.11214869168181331 -0.6601369073077404
Ni 1.300286419683398 7.965012368072662 12.106406236452088 -0.9515999898845869 0.13499191482857395 -0.7229101338802195
Ni 8.944581037399448 7.087158629618212 0.19245009326465262 -0.5797963612754595 0.617565095383801 0.16682294329624173
Ni 2.8438424378258023 2.390874908424911 9.093053727591963 1.0766692462828102 -1.9353768216120346 0.2225022391364168
Ni 1.5964225988160836 1.0774412830398274 0.6335268083819701 -0.5031288932193916 1.8585761704122121 -1.547341304525077
Ni 1.1716011999314768 5.985626480919381 1.5989103834442828 1.0247177929161835 0.4650413423190507 -0.3587195417316596
Ni 0.6700538196033011 3.007191839371463 8.551181460141871 0.1380265878898397 0.31537331353554077 1.6729980579956543
Ni 0.15153543360527322 7.368073677642749 4.031742469389144 1.882196123823997 -1.167716637209634 -1.097609595979903
Ni 7.583289731541116 8.493955932676393 3.5699552018534457 -2.3634726970549877 0.8380071095570792 -0.5823836623866615
Ni 2.8531010333903697 8.875910034097053 10.161284559764159 0.44369630098437135 -0.9953208278113052 -2.704930366382406
Ni 7.533339608470276 3.298745013699688 4.379037944173402 0.48125420463348734 -1.8526140392915063 -1.2786121732106366
Ni 6.085600795825578 6.506496550190809 2.245029807653621 2.488174285701147 0.3758891115324107 1.4129872803908181
P 1.73045002820876 3.1400804615096978 6.772152506865382 1.508565983529092 1.0129619379318362 -1.068952851475159
Ni 3.809458403636786 2.8885429372115334 13.08803309157288 -2.089460205854421 -2.0518786480562206 0.38583413856026455
P 8.299655046158383 6.144263257322677 1.9976318014323742 -0.9029187226287998 -0.20538511984015598 1.2502199952211888
Ni 8.184413307166214 7.2273708008480195 9.354301666918246 -0.07656051016455848 0.5854964969840304 -0.8720626564798917
P 4.6455281003083435 5.197053379494053 3.7788281919305278 -0.5275744278562656 0.06745597676012899 -0.6792229774049141
P 2.2481351406059766 2.1017474861346033 3.549208540912363 0.4416918689598328 0.5959336331569544 -1.3378583604664638
P 4.656240295376548 0.8310441309991103 13.486536932565203 0.9235291997902998 -0.05673473368788293 0.40460910517492255
Ni 1.334228431023102 1.146028958982142 7.347753837957193 0.4383532915049031 -1.9545575083055435 -0.4429033727694308
Ni 4.008129347261271 1.9149090276416347 6.578374730996771 -2.3192450946951797 0.8143629877755781 1.7946606027051737
Ni 5.592182462403092 9.120281405428242 1.8203991358376443 0.4218010435731767 -0.09794848892203131 -0.748244241769634
Ni 4.338235313520354 4.744308056386712 1.3701165991504778 2.041661084093271 -0.2100092488757286 -0.22723152629128604
Ni 2.3245092954180926 6.0033659500210925 4.055469472242461 1.113037243388883 -1.924478429531976 1.3482702998284068
Ni 8.74770626131449 6.583537323883573 11.57488600470274 -1.404991406669535 -0.03284507155447892 -0.8793028829820727
Ni 1.7077109175021827 8.108057669545227 0.9429879582511809 -0.10646578236442308 -2.052800645649858 -0.9365582650601161
Ni 1.1411867135018734 7.811912231816978 7.988236629186822 0.258365014471297 0.055805537005394215 -0.23837391606135075
Ni 0.3525450984693684 2.1781031237555895 2.374224250161593 0.283462323759557 0.39423496102945005 0.8071816395357904
Ni 7.450651091483125 6.218230177288006 4.499396908934108 0.5669184768715269 -0.9309794854207579 -0.5469970553572515
Ni 5.297703571876465 9.06854437341344 5.8492279252026185 0.21831005543194018 2.775904126487806 1.260402335070829
Ni 0.14324899057498547 0.5751837684318492 4.361868804558469 -0.7749132664203879 2.043374210129636 -1.916659704818506
Ni 7.825392746958987 3.339621713117253 8.301397513843634 -1.0193233613734896 -0.8964318293528755 -0.5968679720457657
Ni 1.270631138090089 5.291518830039333 12.342801327704406 0.96954911816384 -0.6751403226951082 0.7310782715133086
Ni 3.0267922861816525 4.257287412499342 10.738321899028035 -0.2871922231156344 -0.15399622384521866 1.3682660262240434
Ni 3.5525786696978656 0.005708850025112205 7.723899096520643 -0.9963914351676647 -1.6450100574231603 -0.1849476779214105
Ni 6.130653121842763 6.673336442264311 11.137734008245243 1.3958441929526284 1.1901775373163115 1.3448021387741484
Ni 6.616257200608754 5.092181267534199 7.680007798387256 -0.5013478900595688 2.14884703245317 0.6073205348376572
Ni 1.2191533467510947 8.52792571980279 5.627603071454458 1.4149742289138598 -2.2471958421374136 2.242143881535803
Ni 4.294071812677368 2.4629993678728903 2.0179034964209945 -0.6969185949124643 -1.3402805967547111 -0.6468995826818602
Ni 6.105025329320041 3.291041862189968 0.363529496247171 0.8134983257824377 -0.8103078438695981 -0.15574868775995113
Ni 3.261645821272467 0.030089509725287313 1.7946259833645584 1.817360872516167 1.4543100503990052 1.8314070661965878
Ni 6.119339118062862 3.7605915362469995 2.7844235490710787 -1.1482690700079838 1.9074057903204054 -0.6633975803368833
Ni 4.339244500436892 5.898743820141481 7.121819107973726 -0.1060574911824109 -1.6585083490199113 0.40908385311682455
Ni 4.592420796149985 1.7863349110364883 4.2168606808262155 1.3878601463058873 0.24337445459973572 -0.4715248931608653
P 2.3443412071173957 7.784062376358759 3.1941617699214486 -1.0071270764176137 2.9624160635725434 -0.26976065790274834
Ni 3.4932866237023767 6.8084563859336065 11.39914489885346 0.19826984895161337 0.1668651093880868 0.6619829593775437
P 9.127438299799653 0.6436899687331956 12.159905179202827 -0.18647182787542077 -0.4682701336689935 -0.7555433465342085
Ni 5.971303433580996 2.5015521598037487 6.23327446922087 3.054533033414462 -0.1683036416068263 -0.26316834939721134
P 3.2973932587472614 6.568992070251638 13.554549649722958 -0.24257535573720804 -0.04263326128949432 0.3501479980125647
P 6.353442706912946 4.460069172554495 11.766333392067748 1.2798838408342086 -0.5943220656954603 -0.27506895748953913
P 6.7559971834647685 1.0452954392396496 4.61125926054521 0.3749187771993414 0.0993908777955127 -0.008483611990978938
Ni 8.670276626608013 1.993773744660619 6.148987918639276 -1.4467808319014954 -1.3366561126282464 1.7738935453611513
