# total energy = -340889.5192359497 ev
CRYSTAL
PRIMVEC
9.07809149089891 0.00000000000000 0.00000000000000
0.00000000000000 9.07809149089891 0.00000000000000
0.00000000000000 0.00000000000000 13.28670452448065
PRIMCOORD
 96 1
Ni 6.5487991314210365 2.101914102028504 11.433567726266023 0.29777128418306137 -0.10815371158980729 -0.16839517287936806
Ni 5.172896329511423 0.45731158935252897 6.136757261606143 -0.2573291170076149 1.0391481094089006 -1.2522305978933144
Ni 3.152775833080628 1.7556575310287452 5.034824002654841 0.46284844843279 -1.2812082160725868 -1.1355727054872378
Ni 3.6586615673245735 4.409138324389727 4.803037628079535 -0.682610148709592 0.13241772634349455 -0.5777680179915211
Ni 3.5920556090259725 2.419438513015305 2.6957266005762426 1.6247677622343566 1.108320297529188 -0.26636165952352836
Ni 5.151108909596384 4.493446561369296 2.4318391861836153 -0.1669170456719448 -0.09434611628275365 -0.2009031728094024
Ni 4.974821448208823 4.9893917852770056 10.776367452902969 -0.08414963536572603 0.052871136967418624 0.9897929560145406
Ni 5.764697122953673 7.854673534487061 12.410579181897797 -0.9521208953850634 -0.1740379729874422 -0.02718838748933382
Ni 1.8528203457581882 6.763904512623891 13.324837421319279 0.10845607332157449 -0.6411215425475022 0.8393484540763222
Ni 3.0321189172094676 1.555131564985704 0.2630976204207072 -0.6605912212363397 1.274110171575225 0.539184244181052
Ni 8.158017966345826 9.127567230656696 6.848990742056261 -0.5291903661931338 -0.0311442868132883 -0.8730350476954899
Ni 8.727577435291472 2.0809346322686477 1.3416511621848457 -0.5083078663171698 1.7676838170060136 -0.2302497442923196
Ni 6.913792883547729 0.8236951973079686 4.581308871222508 0.40833437654530963 0.44403928614608684 0.8461364235324331
Ni 0.7429437566295286 7.4617283382277 2.4414183884729272 0.045446305258257214 -0.47385225574246137 -0.31714994581998923
Ni 7.589684039770399 3.8975697047846083 3.763392787047003 1.6194414649254365 0.44414881514075766 -0.8366130574230303
Ni 8.064586247276832 3.741562700101297 12.645754408079055 -0.90503859718528 0.3622954320083761 0.0767433155993259
Ni 8.21684400011643 7.047849062666638 9.128111916154571 0.9173639515198524 0.659647883486464 0.6387864666564225
Ni 6.927364630536473 0.685071830289369 0.23998752255499264 0.08012791580084265 0.32391451823733247 0.3161441302632942
Ni 2.0510404765268877 6.8640267852251275 8.951346039338045 -1.035869181547313 0.2502218165388723 -1.1784916163379509
Ni 0.2443114175989648 5.2151548460549675 1.1606630649506158 -0.4152984665679686 -1.1478888038504296 0.16992703614286217
Ni 6.726965757776268 2.214673078180463 7.109184280964126 -0.15019716181410261 0.1583079638466951 -0.6428606367257961
Ni 3.625000003555838 4.5351240800484405 0.2600510128692543 -1.1372215539445705 -1.1287261148790497 0.3430352982271834
Ni 5.985321983868337 5.715112586463697 4.719955841279348 -0.13559509563021163 0.4853656556986996 -0.24103757893644295
Ni 5.5073695375737985 3.1886706073906548 9.065345990615997 0.059262642316059225 -0.7004440915672195 0.8805398407129674
P 0.05284447919476423 5.8288429184202 12.295543420364718 2.6447693806217933 -0.17788280065482914 0.7092928002071011
P 3.8944559193550843 6.259217086475273 12.42621801035098 0.5362588430041411 0.9771454424538593 -1.3583333404913638
P 2.4427601304160285 8.52037907189945 1.5405666747725004 -0.24865370072080403 0.7014321665121016 -2.437123746882235
P 6.644999668437565 7.949966262340464 5.663604402357055 -0.8628385667784623 0.09079927947175975 0.45025158560438583
P 4.978879355167999 0.969903309884491 12.46683520792759 -0.5106421708773012 0.024062954486474688 0.5740118933831986
P 4.048883336094555 6.42746135867753 7.900128447093975 1.237289917423082 0.8794178112933821 0.023857523343887944
P 4.8571603025759815 0.9130472219978701 3.7698364164868763 0.2698154224000837 1.1405529323106487 0.3322348651775698
P 0.40999294453371654 5.541158194625371 3.5102011802143336 -0.16590685923987555 -0.07755038488165353 -0.4007938451938904
Ni 0.6065545079613838 8.90120501583107 4.4568527740036625 -0.47743663065961 0.9557237822449736 -0.5211646676751799
Ni 2.1130983109182244 6.498188770576726 4.702496855454098 -0.61224882537721 -1.0080968965300507 -0.7159342167830187
Ni 6.257419624332282 5.718916306857197 8.92412175034504 -1.2124160369995376 0.12431000963469559 0.849903346774033
Ni 8.666173223497585 2.5581789874159484 10.328924656962789 0.8955638249256253 -0.2997214659308967 -0.11020082392682311
Ni 2.6006372219753806 5.33410508069945 6.7757278191644525 -0.9916343800986536 0.30626518058668545 -0.38859653179675013
Ni 0.5884972758976319 8.882649396536763 8.763312435188789 0.849385269487034 0.994192884854449 0.4915188197842889
Ni 1.683005563703721 1.2313795831398542 11.409000594693492 0.9234469244891387 0.24448028606940475 -0.8651564162783617
Ni 4.222701556558411 6.786272930403331 1.332670206134034 0.8768701051708641 0.8679818015422986 0.059177024580788405
Ni 5.701214028176227 8.1973533373841 8.03465668697771 -0.6117916832351334 -1.0525659254767032 0.2717697179129771
Ni 5.519643117459269 3.154255562016524 4.566334559076734 -0.2326604106163412 -1.6410261330747478 0.7530473195852321
Ni 0.9534265735737426 7.630326656003577 6.410808507389136 -0.7846438634445906 -0.30452120131238525 1.419557477409168
Ni 5.09559637927119 4.431479507894273 7.095379227020459 1.5474647174768188 1.6810929191886466 -1.1311195548118906
Ni 0.9907738425447722 7.814711775126227 11.356664488630079 -0.28953912608125615 0.011218494423638745 -0.8776589196207466
Ni 4.713581205335873 0.5963716125785924 10.334810891576502 0.08168189055152385 -0.48037540157295977 -1.0787312710181616
Ni 8.203635376792938 7.035629951330954 4.537782145278075 0.3096505521191506 -0.33838442971873334 -0.34902134060728923
Ni 7.3118218111206 6.44509101262545 6.987065792340331 0.7553140041322217 -0.8564766291161765 -1.15780349186098
Ni 2.4289251187699787 5.452428927021375 2.3519065893703153 -0.45698299079094845 -0.6742448074640323 0.23291623538088918
Ni 2.3366190830632627 5.5636355495043865 10.864870676025348 0.8670896287453325 -0.35671742369996634 2.2208865148189236
Ni 1.3259279074794925 3.4384361424416845 3.5978401690134154 -1.0022481510587578 0.6552968056066198 -0.5871296617120791
Ni 1.5858245927910153 1.357719384372187 2.495986797268469 -0.5570189583696278 -1.743305131051333 0.04001099317529883
Ni 1.294100118220273 3.8067887884719456 8.200766699837457 -1.2064690753874836 -0.7089667843262499 -0.3520246462099873
Ni 3.5526113008881204 2.8789715113900054 7.064514623283317 -1.0146732641959881 0.13710227630335745 -0.5173990299851605
Ni 4.32693620466861 7.358546748746727 5.716352653780527 -0.20435333614153192 -0.9961893464591874 0.29228249315434823
Ni 0.677034995768209 0.1164628375375153 0.27852402152971806 1.2064037693671867 -1.0165311433403332 0.6270025866476169
P 0.46111167850937707 5.976470844527853 7.689095497796906 -0.2700193108807737 -0.4106262579032799 1.8372092747006616
P 8.894941132605497 2.0120319167873366 8.189154005022742 -0.5781379997364301 -0.9321225978862657 -1.0045955682450116
P 2.118908289562235 3.416376379777707 10.269732776099445 -0.38755909167117125 -0.08789958932646152 1.2938238479540685
P 4.0954811804378455 6.199519555908066 3.5762896872899526 1.0676107356249678 -0.811557657116299 0.39835952472078495
P 7.061511590571694 4.048220635405473 10.59794028531792 -1.006843483738924 1.2602750654643458 -1.1141441032998167
P 6.371149956288786 7.695788774756639 10.154231308465679 -0.46346705585339537 0.5022135804939738 -0.3280640216293318
P 2.501658788919684 8.669940631524563 5.348296861346609 0.41601554723965123 0.9530207814915135 2.489118909002604
P 7.240313683341115 3.8969614726453137 1.4770563457201613 -0.9898114679573017 0.7006029857425871 -0.932291262253646
Ni 5.261779924673151 2.7769519176378346 0.3508954758233361 0.6256648416727999 -0.35020713338527426 1.2216948911983025
Ni 1.3029331013774952 1.1455916172243876 6.7029033680984345 0.29267021551107014 0.8919786786775283 -0.018746427369567716
Ni 7.288463881353351 0.6121239171771655 8.971820767203203 -0.173279754665179 0.7718968481915673 1.0274249074347013
Ni 2.6882044938505754 1.7317367595803586 8.938365276114498 -0.45633327302209153 -0.08522229960461451 1.2444411837558826
Ni 6.388298471380248 2.138081219087469 2.477956799479611 0.1178835372830615 -0.6989240553782673 -0.12294475385605279
Ni 4.0422109387455745 7.142170434715495 10.106026641903656 1.7209640443519716 1.0772050641816222 0.6015268109740156
Ni 8.183554638104576 7.434248954859857 0.09585829296203019 -0.03419515782447014 0.4858413097835374 1.07268917858914
Ni 7.928868777389401 4.098150139377437 8.164068514418064 -0.11346046851470136 0.023751593893642967 -0.05096646374553803
Ni 3.345830529711137 8.530455753610156 12.651520811883236 0.09320943157514915 -0.9206752752812724 -0.8976713581869313
Ni 0.17336522369145554 5.060845444506702 10.306523558053478 -0.9619803046776465 -0.6170123082041244 -0.7443281945446794
Ni 8.785886017839095 2.758323673610476 5.611334566362549 -0.7297286994639497 -2.468690980165555 0.17154605980352391
Ni 4.269825930216314 2.861269232709036 11.450097115508235 -1.8573968053921301 0.02049734862240341 -0.44929590655933593
Ni 1.2764341519058287 3.377022852556168 12.560014556049234 1.4522873635420215 0.7208481091448682 -0.2099827665131674
Ni 3.222105218868609 8.89460524321514 7.572199635288579 -0.5284863981475736 -1.5919280899965165 -0.1325457672809266
Ni 5.908603031492506 7.948668095237193 3.491506666118067 -0.8750515639048866 -0.43006174092007227 -0.09254840095238255
Ni 3.177695194608454 8.159697413297609 3.4618376470487626 1.4092375835403987 1.0348322556423661 -0.8312510217801684
Ni 3.353646766605657 4.617090169387144 8.897202485230846 1.6644164869742302 -0.3743837306314778 0.8777874747788107
Ni 7.248547512450673 6.209904892734235 11.601034006015484 -0.9671505360246763 -1.0283870142376548 -2.28715052815348
Ni 8.077095857544718 -0.011725263150943546 2.437990501072961 -0.5444259521959657 -1.1949803580215934 -0.7124647701771795
Ni 4.617580386335232 0.28133641431708434 1.680037027740297 0.3063644251687111 -0.2790541673895323 -0.5161769846526013
Ni 5.892625590221477 4.993885440634482 -0.17053104348417422 0.3711919631670575 0.6096571533906339 0.7940314753070776
Ni 7.815065820699847 -0.015585267712557976 11.256987950327936 0.6458685703141844 -0.4521220631542213 0.3112556918227414
Ni 0.15651356219633594 4.920479991704063 5.903402192796953 0.26253945756396074 1.5891435852728437 -1.1342488444694918
Ni 7.122661615799904 5.997713578945016 2.2712695326464294 0.4253854184903255 0.28361479017702124 0.16816557336706522
P 8.645066660454892 1.599350949321602 3.6487019929959112 1.187993128070483 2.0396617942750552 -0.2410139247873591
P 2.07113029330688 3.4046202511152175 1.3759581782685644 -0.36574508111987336 -0.3352579682746097 -0.04713860535901559
P 4.678303741256773 1.3407978215715066 8.003924623378385 1.8952290457485554 0.3445697325938388 1.399968499533647
P 8.945251916425976 1.6402568302120881 12.416611573786774 -1.8847276319965993 0.3623648517937308 -0.38076983666347974
P 6.395343070486111 7.88678274458685 1.3146129740702823 0.15691236905074915 -0.29341069322152047 0.1727195112863348
P 1.851068274073354 3.364168274806295 5.655964280440181 0.14029584353999064 0.254472107174794 1.5986450970053758
P 6.987906423625387 4.205743681391206 5.891949272394948 0.12693716284489753 -0.36213808049490537 1.3250007877775052
P 2.571296829823128 8.859509340968664 10.00931319270996 -0.7531064549579416 -0.9818744724984122 0.051620038169136906
