# total energy = -340894.2741813301 ev
CRYSTAL
PRIMVEC
9.02051423327857 0.00000000000000 0.00000000000000

0.00000000000000 9.02051423327857 0.00000000000000

0.00000000000000 0.00000000000000 13.20243438796136

PRIMCOORD
 96 1
Ni 6.301496530224243 2.113641732271017 11.417597396305602 0.4777276795374676 -0.12828467801172747 0.4557334346545635
Ni 4.356953352946088 0.3724218420618161 6.090692530915048 0.3537213171861198 -0.4168863798803788 -0.7171344077387068
Ni 2.5334744937389457 1.5103677985884911 4.906829452096674 0.44242000537510906 0.5307386845168601 -0.8284274362884442
Ni 3.4103586573395073 3.909463695627945 4.723302584999305 -0.0742377755686528 0.13798030803293657 -1.0933292234369945
Ni 5.087317308035551 4.49051108287377 2.684992066992712 -0.202567962106335 0.4237548248654379 -0.19355110331970538
Ni 7.219703668348559 6.112453618830591 2.6342814435742032 -0.07879042793634174 -0.0413497665913804 -0.45387349862768933
Ni 5.2893948621244276 4.541359720156111 11.37245784231863 -0.49773086213227186 0.10143027682304466 0.304478778110224
Ni 5.428238613242008 7.918513865550204 12.413363815646397 -0.42707540459823873 -0.4997247526338491 0.2380288740171062
Ni 1.8131684117326496 6.320349404433945 0.6038133604182869 0.6508012317291114 0.31184473155699194 -0.8537535737580587
Ni 2.622606192335151 1.5205609793812966 0.40728432447600654 0.26057950562411253 -0.3718532509001402 0.16244409750225575
Ni 0.30071777646711534 9.151131018305707 4.955890223508985 0.3924557576418402 -0.0011459406789851234 -1.0865291697960255
Ni 8.295914129275339 2.2673332493929834 1.1684434122279108 0.6372468900834445 0.4449525419889756 1.194099498078537
Ni 6.808584723381384 0.6577551319429757 4.806543887969226 -0.08038913988202928 0.5550160690069861 0.3968387172008843
Ni 0.8167010984559239 7.302313535340164 2.5799012750702834 -0.29628852898994784 0.43074154059591624 0.23723980245690754
Ni 7.4769055833443705 3.9026532075761153 3.6602828216595347 0.9588253039884326 -0.8026212738586178 0.18275529825578202
Ni 7.8571653499998755 3.9162741836797754 12.52319488766318 -1.8853932906050561 0.003518811786535875 -0.0926378753423953
Ni 8.032199403188903 8.843360101960808 6.868196789991344 -0.4153745712215427 0.36253248771984664 0.6308163039667523
Ni 6.766188307694493 0.5128766569754969 0.2937737848084412 -0.3610970408249007 0.8312013994891555 -0.6116219904264887
Ni 1.942874382192607 6.092382975234137 9.219761794788807 -1.379237951854515 1.068445058600805 -0.34151114827317314
Ni 0.0984814613322614 4.873278552414584 1.4281602465202126 -0.3011911084978877 -1.1737962677448106 -0.009355987293603242
Ni 6.263051099658812 2.1201365023336898 6.782922263171248 -0.19864497290284497 -0.9065599189258129 0.8252575232008948
Ni 3.4793024456575723 4.28218231259957 0.5245762636022835 -0.331637597913203 -1.038844976346185 -0.08251981307178692
Ni 5.94166822772423 5.627366459260754 4.798424523339488 -0.1743202801145514 -0.7232634034545802 -0.9120006303254099
Ni 5.38843108506621 2.874287552777691 9.21451997411739 -0.3863272761465991 -0.48512294356027424 -0.2880679408523684
P 0.22006896921387822 5.552811911249658 12.46214675522825 0.6140946203366972 0.8776617478342238 -0.3091350459353127
P 3.980373955992764 6.0232587766365535 12.719634620517098 -0.6183400258766125 1.1625695457910559 -1.4470978489212818
P 2.287872959716186 8.489512400226838 1.3871006710045553 -0.136141712162301 -0.32850059494611816 0.7521124664757886
P 6.28244520470707 7.877488567987656 5.859028593036503 0.29381512774879076 -0.4509370417071847 0.17126195290420182
P 4.627162849095196 1.1305410166038306 12.79152180254551 0.7255298308912538 -0.2302489729613712 -0.9484203066050246
P 3.790528218855253 6.076894752737458 8.278031862369446 2.1248162167562117 0.8547449911370506 -1.9176696341402584
P 4.592975101126406 0.9388641151292053 3.872617602190447 0.04182593489685055 0.8560462264469774 0.6963871478890264
P 0.1030873357683734 5.464365771715623 3.5717996980181987 1.1416700766342274 0.4204941518362952 1.3150544751980708
Ni 1.3996951126177546 1.0320279834726536 2.815366457538287 -0.14265971578647688 -0.14524650267704664 -1.4569562297726006
Ni 1.7464166083107366 6.679871009458778 4.800853747753207 0.09255354315870512 -1.1985454496650325 -0.7240738151710175
Ni 6.170933610936572 5.7384901709302865 9.063114255236925 -0.4886669521577907 0.20055581677231266 0.43447375394483884
Ni 8.69120207221475 2.3612458203964346 10.2287973901882 -0.7599170501218718 0.2111644455260944 -0.14478524676991195
Ni 2.7744755656339795 5.169449087786431 6.480137886952246 -0.5792659426932862 0.5335985225631585 2.061806448692894
Ni 0.7842200317313801 0.3778657222462924 9.220434725131412 0.17118302003715036 -1.7166672167488306 0.24690560768144576
Ni 1.5664753955188018 1.1840146234531685 11.48527290035865 0.06886082752745559 0.09489530391800431 -0.7624387881024611
Ni 4.235717645109533 6.742572602105497 1.696829940933629 -0.5830490638848023 0.5049857439224722 0.36650689898656236
Ni 5.714648952491893 7.870028602929557 7.97409827266991 -1.0645189840735216 -0.08104348563657657 0.05786113398284228
Ni 5.476768978432533 2.888693313597258 4.529873899710553 -0.3811035658538146 -0.348219156420968 0.32766704330122925
Ni 0.8798555209042342 7.204873943372124 7.030877249290329 -0.10935647364865682 0.7411338559770978 -0.0791498681582895
Ni 5.288772446660088 4.538220581292485 7.301051565434931 -1.162877821060094 -0.3125816097230165 -1.0209585829840675
Ni 8.00290077379507 7.687949528325326 9.030702646469997 0.5466880087572649 -1.5078928687214674 0.008299778114946995
Ni 4.604557441071505 0.459731396834883 10.492211733159237 -0.2395388829037294 -0.5928565368935274 0.5649166159501496
Ni 8.054777749670665 7.172806016187677 4.780323959995378 0.4927475499850676 -0.3235964727762814 -0.631507416496506
Ni 7.201815989134282 6.020642827583533 6.756583264412918 0.5445290534327332 0.30691335569364564 1.5146610406832368
Ni 2.373107796274788 5.018211150465919 2.627707292988542 -0.1678585836496077 0.37865844674743177 1.0790824837099933
Ni 2.3349149401006826 5.188716905639026 11.419233717540838 -0.16945189627865656 0.22181318348919218 0.8410322695366484
Ni 0.8922884953172643 3.186541664568628 3.774443740384765 0.1915178749397605 1.3336147546987613 -0.0976121886285351
Ni 3.7772770838246057 2.4591634996052 2.461949936372366 -0.40340171513038264 0.6354553454006604 0.8138716499614564
Ni 1.0833907900516226 3.582587330682019 8.286349678306655 0.03592628158296393 0.23867473513122123 -0.7473937208438806
Ni 3.681019179187412 2.6935164526999698 7.077415884994969 0.45478058382299097 0.2915489574224333 -0.20823904434918333
Ni 4.3560873836043985 6.8430250457415 5.988306991134001 -0.8412775527782349 0.6815629383920004 0.6665255844429038
Ni 0.6481482845586058 7.292607462302059 11.137573580950678 0.4583492750108558 -0.1595981434130284 0.0074698260144839095
P -0.02796990768517911 5.7436859869804255 8.14179594184231 -0.886829530376421 -1.0630714529937175 0.9255009788046901
P 8.46466088422314 1.5556507787476808 8.138165184966997 -0.40259516006868723 1.0557510080729042 -1.802582942876044
P 1.721447825625351 3.2430010615440006 10.339248171515129 1.4920859835961982 -0.036816140387084986 0.5246135454557288
P 3.9235988410282343 6.163410502280643 3.899339070741357 -0.42278371920142027 -0.8245715528774638 -0.1256971197902093
P 7.034043449695882 3.974438457796599 10.249564417463597 -0.8686058082795429 -0.11767527792699735 0.41138987554218187
P 6.2095414107535705 7.84750437953165 10.361904094417085 0.3279665768195191 -0.2244951011967295 -0.691387637791906
P 2.1175836968785005 8.506344679305931 5.804344433211595 1.6491896427221469 0.9979191846661007 0.48412252732021793
P 6.985585248617163 4.076676963199837 1.5759216777544 -0.5031304358812884 0.08444711200148682 -1.1305217733268917
Ni 5.425108494892358 2.883840277078205 0.6558590199052343 0.16302542392702243 -0.011321595660406308 -0.7710941497846139
Ni 1.7164143788267796 1.3157231480157834 7.123664060149584 -1.5920412185356128 -0.29353282062168157 0.1912841616623996
Ni 6.699526709412339 0.7880438276057786 9.150857696732235 -0.017765037292904885 0.13289029510453887 0.1670258033356672
Ni 2.916079594028194 1.6280945264884081 9.22900331135715 -0.20808863481424808 0.3078623498704763 0.34170295256900507
Ni 6.296986273236276 1.5378984072430422 2.582514517969112 0.517015935614129 0.7903234303278711 -0.03907665428648754
Ni 4.139577007154027 6.775362170408018 10.404573831677448 -0.050473069048887265 0.5777453922837017 0.3571843360340558
Ni 7.9290498258740945 7.259754750401707 -0.03719879553395737 -0.5461527050790853 -0.598382608918079 0.564451246277957
Ni 7.539020842582652 3.718165655740309 8.112486487831704 1.1654898047616442 0.28530477628493445 -0.09284484914687881
Ni 2.874107142498172 8.0698329874965 12.5041832524075 0.6698703325454206 0.322961924516076 -0.5208237393959932
Ni 0.05376857765635086 4.81351764732402 10.239015828420138 0.6606470141749397 -0.0030508710111818425 -0.20948525805145854
Ni 8.608862820642424 2.328438211065962 5.693721360067726 -0.035290961991810185 0.7386900224222955 1.0615658149824685
Ni 3.6429526102089698 2.825134772122826 11.438879494929024 -0.1254286966201711 -0.7051132149081147 0.6238087623006676
Ni 1.1070876802664018 3.3222101947666784 12.585273162794161 0.8448930380436352 0.40390745112220766 0.7429485405883335
Ni 2.9746948938438145 8.231074674816323 7.909868604955669 0.48017279864385043 -0.07043254288994967 0.7753459830824325
Ni 5.594360398622811 7.923664579030462 3.713673439780294 -0.5307451122747633 -0.7475449017097642 -0.5066235366362113
Ni 3.0614181152084456 8.331960103123171 3.6600708395811004 0.025199382083763055 -0.14580494628367793 0.02184974888523979
Ni 3.576525545290191 4.33842521723952 9.4373510247107 0.02248326870418063 -0.9094817205582982 -0.18776714964807661
Ni 7.274404065098624 6.0522867906111095 11.10106846294147 0.09245224169415045 0.8922625284665342 1.6291880027892394
Ni 0.48944677397440545 8.894795072651585 0.11420421719231467 0.7443377076263762 0.6723946416291711 0.18747610077021906
Ni 4.403679615341427 0.2433256583466317 1.792798287072195 0.016258627950707483 -0.9459710737335837 -1.6334580909195027
Ni 5.8990102171320355 5.655591647491453 0.35318108575114854 1.4584490122680431 -0.369679383177273 0.2396738658196969
Ni 8.009305338717981 8.985027273952854 11.144650174164799 -0.23854952240726657 0.4359135717151589 0.4158008601256839
Ni 9.292302062029076 5.018716299248571 5.93211730752651 -0.40302299163472527 -1.027604113325043 -0.19956105695921114
Ni 8.104237227800713 8.916299977970212 2.126700730353977 0.3546420292281763 -0.6908621043057392 0.9729769128984662
P 8.351967603121793 1.5853553312704318 3.513972791124075 0.18310496828571693 0.20602069654162583 0.1081925352475427
P 1.8246425055100381 3.1165063940594755 1.6688672496596306 -0.5757026508220602 0.03286075528376276 -0.038819801080675086
P 4.690802575195412 0.8401932230034493 8.171897396980002 0.2512988516531349 1.4731045573976889 0.0627050923387049
P 8.566863307570474 1.7269503391506709 12.325884675210585 -0.8451473201462864 -1.0327566040602603 0.5177065339232503
P 6.32357874843733 7.7259258921640095 1.5744035252522501 -0.5825263586121129 0.4604678640157554 -1.2457118229381898
P 1.7025318078178169 3.3409458022946934 6.086427631907225 0.4495411898009225 -1.4500692728447802 -0.6918931166734149
P 6.9798301607005175 3.9505340957603736 5.8266963647925625 -0.28231021243298476 0.36404712459216015 0.732050662728907
P 2.460678945953157 8.556940742196947 10.361468403592047 0.3141299280467429 -0.7294978144000662 -0.6650538849933837
