# total energy = -340867.56420027406 ev
CRYSTAL
PRIMVEC
9.26122544569323 0.00000000000000 0.00000000000000
0.00000000000000 9.26122544569323 0.00000000000000
0.00000000000000 0.00000000000000 13.55473957878366
PRIMCOORD
 96 1
Ni 3.118532487968355 7.503324565169773 10.242056044540485 0.3095371664697379 0.3482911473094841 0.5123298429923693
Ni 7.649244435334087 1.0162342823768824 3.136133447174199 1.4633865587789765 -1.0639235165813676 -1.552453943161294
Ni 6.378669114982937 2.469014954696343 4.265419510148681 -2.5875142556540665 0.25272529968701635 0.7958407606016745
Ni 1.690970132890417 5.637808113861813 0.36086272841872763 1.1933888451647578 -1.8510641783058828 0.10258341659088138
Ni 5.841490247939227 8.878718436582087 8.514166035894162 -0.06783984246210896 0.5453011557120674 0.0880271160432613
Ni 7.952364348413422 0.9852462216019526 5.543156536237205 2.4679301907401308 -0.8126244078179166 -0.7381084388872127
Ni 3.563006487003384 8.937666137368826 12.533037829390185 1.4260651966206987 1.1098835282512498 -1.0311578921145725
Ni 5.129051948108676 3.038950776599864 10.305613983418604 -0.5581222187361355 -0.1594760160128673 -2.218091982792922
Ni 3.6984796947187677 5.277009287899554 5.587752115749912 0.8586417550882953 -0.6573793991672613 0.12228732277771197
Ni 6.152824868103846 4.961238540684369 4.35718436376147 -0.7890095966124541 0.38801520537198336 -1.884586992653677
Ni 7.117751960793607 8.034178015145558 6.471683307925834 0.19794923238740103 -0.9462258700568672 -1.0349412704164047
Ni 5.762232679465871 2.49564097822531 1.8576907156968383 0.012852944703268185 0.5257934246964429 1.6691372894886674
Ni 7.986575315688554 1.9091738686698914 9.569212262411984 -0.05530571455084023 -0.08652327780422518 -0.3547369029348278
Ni 3.561895139934349 1.7212543405216245 8.368601796791939 0.9316618561997632 -1.821636102852753 -0.3180619161112974
Ni 2.676197832041219 6.645799905476684 7.880115675455447 1.4512995457074553 -2.3237650940527206 -0.188717686486804
Ni 0.2560284332740854 8.014183029128501 6.383048748557494 0.3835887941695136 -0.7757396189764253 -1.935123567950648
Ni 5.351478802750484 0.46410687113209215 3.157522247640338 -0.31828303098316796 -0.48721633575419315 -0.5551641645490761
Ni 1.0937322179909328 1.6742814044037393 8.626331517204207 0.24037834808588923 0.24011840955628322 0.6308420149983652
Ni 2.429330603106213 7.631916682282714 5.339808732403057 -0.40849789870636743 -1.5936576710931134 -0.33172295853815775
Ni 4.77828302944446 4.160763030535085 7.963124966409354 2.0522185478941433 0.5311590598837304 -1.9080933033057335
Ni 5.856826837491913 7.309477852653319 10.987079040435146 -0.1474936468400105 -0.005727903622712716 -0.6011902535702033
Ni 1.2613140947758568 5.44559137704661 6.28493995542563 1.4602948072275301 0.5480635489485529 0.6978236232252369
Ni 6.965006567380302 4.555745040095749 9.006650228311509 0.31279758238856453 -0.9466963819353825 -0.32800462914630607
Ni 8.56950463707421 8.611782131825422 8.293277470820412 -1.4798639876087094 1.6050386592365453 2.700236817561479
P 4.4185862893256616 3.6750117491109755 3.883880169510555 0.17940026574062007 -0.75315504880769 1.6626627375079173
P 7.37021296997609 8.962838148482472 10.45497439888414 0.23838934268031844 -1.0964829385746278 -0.7500949218251276
P 4.5953275182045505 2.056408832865897 12.172576112038868 -1.7997089637623584 -0.9143498472838768 0.5690095550726006
P 1.9546835311468804 3.332540888562222 0.7799489297842063 -0.9690135573753441 -1.1950436071593613 -1.4142406931819451
P 5.749535539202145 1.9564709476829119 8.308649253030282 0.29970681064287735 0.43615859784642946 -0.2167735641827557
P 0.06712443684716492 2.020864249107923 4.265730687328011 0.9042932343788233 1.0882896041305579 -1.2148413586115787
P 7.394653344269287 5.774735333992517 12.060926480993368 0.8802102252876906 0.15923356098475805 -1.286492604399978
P 0.01771209391274754 6.53275738610466 8.121742902959953 1.7696435118355458 -0.19668759206615805 0.9061603694945491
Ni 3.9852072385298336 6.561819111959928 12.627853330707476 -2.1781882046194485 1.6044748163132754 0.7628483648360539
Ni 2.653674531442107 0.4334068344725539 6.372991057582726 -1.0868628989863605 1.8661408701333475 -1.8589903751314951
Ni 7.942204783957325 6.527432181398867 4.168570243695057 1.1514577521486105 0.11466734433860896 -0.25000635809395655
Ni 3.9525243734746254 3.6229451389266796 13.467894648759529 -0.24885758920149398 0.4247125607930169 1.0935472529850716
Ni 2.4632359499373604 4.619527100632791 11.8641384032342 -0.42742121797343163 -0.56248589502147 -0.800502427743402
Ni 5.2032899323202235 4.7707258693750205 2.259520475447874 0.19756099581004685 1.0426592078859527 -2.0425103194674437
Ni 8.297215343935026 5.674297342628466 6.514408119872333 -2.083853915411237 -0.5802838424348394 -0.5321034260748707
Ni 8.034020574310778 6.482820857802681 9.886786170246676 0.08407301649151973 0.9254068764289869 0.7526755380681102
Ni 8.11551009814778 3.783034684221191 4.573965575292579 1.8641685768983252 0.9727079755077958 0.014436230029988041
Ni 1.4304240737807037 5.724817328141688 9.92236779890695 -1.1278894779103672 -0.4133415999519139 -0.5577463234539556
Ni 7.744097907676236 7.8423317273533675 1.514511371391575 -1.3659759446382862 1.7000753738284207 0.8865708773983957
Ni 3.279733380331902 6.126393330311961 3.264997844319054 0.2814306380415088 0.5006750323622603 2.0575918963909143
Ni 4.653617671975444 0.48501779235854586 10.512486609706707 -2.1708456482114484 -1.0134846432045255 -1.1340788945505307
Ni 9.085892052701388 6.93284233095731 13.325719092095305 -0.11128994322594382 -0.38697905079798517 -1.6114481623073151
Ni 1.87212896636872 1.1365839087278127 13.312882107325391 -0.9262607397888499 0.8687150801638974 0.7593604062874535
Ni 2.831712331901536 3.9270096970146935 2.5579829181853935 -0.36923818187479635 0.4412244424051111 -0.2563274152159779
Ni 2.9906534852247115 3.6685751973361467 9.168046532534696 -2.0988123364932822 1.9073050030764829 2.4177797951379847
Ni 6.428781606570848 1.4488076065476598 11.372291383136433 3.4152981448212407 -0.6685027627739325 0.9966328617545094
Ni 1.393055028584397 6.97124863341805 2.158077641108904 -0.004408413480340795 1.2411774254029462 3.192097079845586
Ni 8.332871062399903 1.84651241642746 0.6423141520195494 -1.533846612472752 0.5720581120909374 0.05683192138737954
Ni 5.925396951651381 5.73559739471133 0.0006825523248990817 0.8626953563323788 0.3154995547007599 2.7085803044301677
Ni 6.285686410206998 2.982003500537388 13.199334851159515 1.336901395869833 2.8110289952153975 0.3410167251352578
Ni 1.7758585265135511 8.570967910715106 8.14115257952065 -1.2687609914481697 1.231221342631499 1.9015089652199961
Ni 0.2755047906589262 3.9554046146285415 7.869230957036805 0.17831731708908646 -0.32472518706408593 1.2984508052031185
P 7.326537030163008 4.068502701354017 1.5405502332190684 -0.3134897233595827 0.31888801155701857 -0.37094822258736765
P 1.0757932240515906 3.3955635286020898 10.198979306022125 -0.8259784605273195 1.1751273278514085 0.2350487083428597
P 4.411760766076671 5.672722934280666 9.527938684513131 -0.1491368388703883 0.3574496738803005 0.9515508818142064
P 3.6961458658737936 6.427901790141195 1.2882346252781178 0.1711727356245052 -0.13530456097298632 -0.7859582113806399
P 2.716058146917279 3.8227746031647722 7.064079454094554 -0.6596016036295608 0.21125469124705554 -1.0960023993937833
P 1.489343990890717 6.678343852148263 11.952190431513856 1.1940131090123178 0.10520079960907042 -0.9541965469671696
P 2.168969768508006 0.3930325215770648 10.070575191788361 0.6911855490834291 -1.8314947408143876 0.012581436209436397
P 8.590972157957738 1.5962000115784454 7.434652577528977 1.0209004760526226 -0.11524789943242733 0.7174912768574934
Ni 0.1759632859305638 3.8635332569216367 12.974651035845007 -0.07251333667837835 -0.17469360429357011 0.15786959075769583
Ni 0.2321659594567859 9.055348530754072 11.69778086047033 1.2531471961703127 0.5949185616288786 -0.4343477698899358
Ni 4.8443896576009 7.823846321105083 5.459767535034711 0.16159280524555397 -0.11981932085319363 -0.07135865424864483
Ni 2.198540861769916 1.7453983555964128 3.9933348900947103 0.7782670133839694 0.8760897753614139 1.7368565472125121
Ni 7.284796686495164 3.2084497270788734 6.8829613700087835 -1.4187946311012147 0.15189074746644163 -0.04441092201520738
Ni 1.3630301352692977 2.30967556867343 6.20668815604975 -1.2194917128993965 0.6645738600331715 0.32717159172204946
Ni 7.486691404036547 8.425816722273542 12.69507130593295 -1.8399014768208444 0.8361361177866115 -0.26548439912489763
Ni 5.87208007601442 0.9111286333228841 0.2888465122226931 -0.5927688622757274 -1.99150837449828 -0.10181825629008272
Ni 1.392638273433509 4.096091892342815 4.372474647186279 -0.3101300628587304 -0.6887494288381105 0.20472563187928616
Ni 4.39924885032445 2.523887716229953 6.035938940118076 -0.863771620115693 1.412785191682341 -0.16504065458483835
Ni 5.963692119405216 0.7477346827431076 6.174170140809781 -2.1419603326356658 0.24921780075439015 1.6586140213598402
Ni 1.9982298138019072 7.996336647444912 0.32919489368657134 -0.9138489963880585 0.8990057607276388 -1.4484929294965958
Ni 6.06074050220871 6.496073671600925 8.053385796988715 -0.5738717682609084 0.1604319521682334 0.4528142041252395
Ni 3.233584693290218 1.6204366389089866 2.1053766369727 2.0186448257037557 0.5407112223485397 -2.303814619072723
Ni 5.832043797852429 7.10283212639181 2.9261564580732577 -1.286376390537088 -0.5315928049870393 -0.9206835028113887
Ni 8.794080096049486 5.920229187780367 1.7532509487617038 -1.385184656356253 -3.188669028000644 1.1273626588726198
Ni 7.226571361303297 3.755352880976641 11.204903992088592 1.6012444823014358 0.6163777599439192 0.15647373885143373
Ni 0.716626226035699 9.189080628061301 4.277483182583058 -0.4939672813247815 -1.018334257987343 -0.022332602058929278
Ni 5.050952032832231 4.926990528506937 11.618594603433904 0.49642602727791924 -0.603409115598393 -1.6811463981344015
Ni 3.920832459555973 8.724852434874173 1.4321123952030796 1.1846494084092307 -0.5274003641722466 -1.706896510515312
Ni 0.9579811735082906 1.273122157384355 2.0406795673488194 -0.5912789079937624 -1.3663940060123112 0.2621555918619808
Ni 2.5246008305992502 2.0761630270179965 11.25750960560137 0.7833292583982251 0.4404639100900027 -0.16596522328163674
Ni 2.985726513218656 8.866827022943411 3.3169264622422783 -0.7609719737489475 -0.49215696758892014 2.1253852018858037
Ni 0.12272327846587791 3.436711153833116 2.1397515279405144 -0.07835873971556183 1.0711493449058456 0.4958015063200429
P 9.20580640145028 9.183949909092588 0.5304811487076583 0.8821874036187195 -1.1822711379850412 -0.15904767022619706
P 6.14612900201291 5.311729622581327 6.271005515425044 -0.6961374937720656 0.2926406478247154 2.9901839777144312
P 3.8577820358393793 8.517669557529295 7.450227180578947 2.2274420565492545 -2.000698268527664 1.3395573454354412
P 6.893315420201961 8.407924034462075 4.128597867989535 0.824880085256818 1.175348442723279 1.2323968509968388
P 4.216997192228263 0.7218347392992438 4.934264295073772 -0.9049810044744672 -0.7148265855411366 -1.302754317674479
P 5.612626841522591 8.068481594676443 0.3560644874481685 0.7267660172911999 -1.529047905532528 -0.7064350190433317
P 0.9081344790943918 6.174199776731623 4.288922648413659 0.25653104658635173 1.3774613195700665 -0.7851202888603768
P 8.622682594327541 2.0291437847722347 12.080513046962556 -0.40223597695705565 0.003851769645922399 -1.482342273945873
