# total energy = -340862.11901800544 ev
CRYSTAL
PRIMVEC
9.24665334583859 0.00000000000000 0.00000000000000

0.00000000000000 9.24665334583859 0.00000000000000

0.00000000000000 0.00000000000000 13.53341183767828

PRIMCOORD
 96 1
Ni 6.822189898911371 7.685716337991197 4.805362632117039 -0.07318233772094493 -1.2409663378334046 -0.2190405058400615
Ni 5.066222736528878 6.3951979523676155 12.199274016454265 -0.026690879027625004 0.07344304758149932 -0.11973061779412929
Ni 4.846337325969509 7.177566517247292 8.4334802283344 0.9630149165897478 -1.0367824373902015 -0.541677700026867
Ni 3.1656656597259953 0.49045450071920166 4.510374980468343 0.42051266377905644 -0.3185028603034579 0.7552600109658347
Ni 2.646281155473695 3.9962647671404765 11.09232203737007 -1.182078562358261 -0.7823514678659882 1.0351163625416884
Ni 1.8153121819354803 5.489969107836874 9.330204926015204 -0.7237375148775212 -1.3603603982237218 -3.3104560141031696
Ni 0.9070938944596657 4.027499961289743 2.7979512321676454 -1.9348068080411773 2.054184670481578 -0.2661999371346835
Ni 7.248987665740167 3.8004576412361377 5.792043394416299 -3.531614080506866 0.2933721266741012 -2.5816343998345217
Ni 0.037980627580849656 8.327387829402777 8.56751601291406 -0.8603361120715828 0.38542739004014914 0.07791753841308517
Ni 6.89087403808862 6.717166413077337 7.12087528713209 0.08196548323021367 -0.20241163903412884 -0.49244775935646157
Ni 2.45520831595314 1.1949264859447448 11.693341543122138 0.0972378360082519 1.50256708563318 -0.09594148579433154
Ni 5.620568836127056 5.0012649985482405 2.314132129708217 1.5694373650931681 1.4566649237844267 0.7110954006334785
Ni 4.2241207926662945 7.801567654597519 0.7101910401637672 0.5031085815044175 1.7712046856750787 -1.2900648951322684
Ni 7.755066236191166 3.9152733326960067 12.626077331274915 0.9005144840626813 0.23444347065869303 -0.696456053453749
Ni 1.4619235940146251 8.436008263290114 11.164116750647917 0.8682124294958661 -0.7787272408498396 -6.834925770255771
Ni 7.600184796877902 0.07513090571391835 0.8761351752378903 0.7127344788987983 -0.8751898892549638 0.7739107932978027
Ni 3.7025633249370618 9.104892654755362 9.163852088874357 0.7500311584667276 -0.4969137655476152 0.4492694241967747
Ni 1.2573598876309033 3.823999620011754 0.44026459239392013 2.2939523815666623 0.1662688705649846 0.6232012106236557
Ni 8.6500497890945 6.174868702459768 8.780179787407539 -0.8262201442244803 -2.0218959856512018 0.9704448905052321
Ni 5.671887760795033 0.3837814119733187 5.437751408488226 -0.4276765285173474 0.9802541632861699 1.083720753812953
Ni 7.009074004580648 2.371026786191471 9.390550433432889 -0.05864120668197643 2.301979622746513 -2.301715827562165
Ni 7.596254969313238 1.4355798793517303 6.904218807832913 -2.9516547112909812 1.1226660247278988 -2.563763690201688
Ni 5.004112967700985 1.6691780764485058 8.121738565945899 0.4291996500300931 -0.6866318682744755 1.3871132408375337
Ni 0.32685531686954694 6.5100228904805775 6.626445650248067 -0.8965213037428882 -0.17015740698611342 -0.6854149651482389
P 2.392941354022662 7.661980179500621 4.302704398645262 -1.337893584579773 0.8275018391503812 -1.4305209183992074
P 7.514505309315114 1.4470827157998318 12.812418658407612 0.35148085789137534 1.06498795329014 -1.0943291254564185
P 1.5505989971796523 4.455619999510884 7.1334886466167005 1.7456348076257744 1.181186646671611 1.7719315365387742
P 2.2757215327585274 5.69835168194814 12.839256144345693 1.4047108993146389 -1.769729643791449 0.12484145665813338
P 8.11586139323978 4.231619828324985 9.881068736058436 0.0543502926161064 0.32103796802048584 0.6337774434776053
P 3.3997169428243437 2.1453622174487723 9.672938595576618 -0.3261318376036254 -0.4149613949435241 0.8474114335901147
P 4.447547671360407 4.6147271592878 10.332800102953392 2.4018726369894248 0.08117075524306021 -0.7221100065764273
P 2.58163780369823 5.205976651381454 2.251512870294882 0.7370956813519821 -1.2585421419336391 0.6955808499376472
Ni 0.5579532189698861 9.222639535245817 2.531167721784221 -0.824403916951348 1.4011627769520645 0.7476901690383768
Ni 0.3526229650447274 5.895175939692746 0.32311689502391394 -1.4054002120721798 0.11299381329092799 -0.519803268551279
Ni 6.2329839171513415 6.167600833128411 10.103056835531225 0.8695833417014638 -0.4542434803725984 0.48458301189640424
Ni 6.757786960116333 0.07116963952873613 8.302220289013354 -0.4636087236375822 -1.8998624307555088 -0.08236014756547107
Ni 3.703266070572155 2.967343444180271 13.177442309915804 -1.0389601617678106 0.41432890356584773 -0.6305021151604432
Ni 2.367836690874273 5.774128004047974 5.3775418268710125 0.14743836812204286 0.30242240980182755 0.023729739516772038
Ni 5.215019878106731 5.808655006698465 4.427035820803476 1.1378705003824792 -2.3005331201079735 1.7634602658429694
Ni 2.025303673684986 7.904852769650006 13.025042672292791 0.853968260872026 -1.3922713879997055 4.344900290278498
Ni 0.2814616475037753 1.6976762612821463 7.408243696631884 2.535327803458498 -0.0880602832740419 0.6516998322839809
Ni 4.4606779187529355 2.9349709117005256 6.4694171380865315 0.9557008994268379 0.849885349051904 -2.9772433583933626
Ni 2.066164633704408 2.2171902186777537 2.998706242142225 0.39998806146314336 -2.4111484058643957 0.18105682750743657
Ni 0.45062639185030484 2.7541988437259395 12.267428322409264 0.49396419600098807 -1.2586462716116709 -1.2837721201450214
Ni 0.7232676569683534 3.965852525116517 5.252533549706367 -0.20113920007960842 -0.8990132169268065 -2.2862570698049334
Ni 4.047870338054347 3.509437728429788 2.194915956041233 -0.4030710712638413 -1.0745077198551172 -0.1300260861828664
Ni 8.703532430586314 2.3254315397882652 1.3579422059842106 0.8820076835077455 0.4634727122803502 -0.06364637320605168
Ni 4.798633842661023 0.9442034873191237 11.052398687974314 1.23848213795897 0.36745075095707036 -1.3841099352348356
Ni 0.7581506557629378 3.3018965997500143 9.40025387118903 -0.0470712424561899 -0.3749457737825349 0.15418211460377962
Ni 5.38108052100983 1.141027745063729 13.379293048281943 1.8547184872290186 -1.387389891537688 -1.8518907879722364
Ni 7.41997677474201 0.256799899038557 3.414629020267956 1.832740954516663 0.8421337301309431 -0.10317554164892552
Ni 5.800897064753162 3.1751619724528446 11.416488427520079 -0.41041105656868027 0.23273214439454112 -0.16049905796074293
Ni 1.0258421874801271 6.17092962824201 11.200886991338848 -0.4556300763074798 -1.0134345066928805 1.4135948320678302
Ni 4.078449019833987 5.494564694424259 0.7211816120304984 -0.9713938846820624 -0.6519926809340513 -1.6316310650130932
Ni 0.3114568654732259 0.30660329726453733 12.48618286729532 -3.1205327373440386 1.4281927844866629 2.4503692990382318
Ni 0.7662507238726941 0.8244972410381933 5.133994231045815 -0.8720981377035174 0.5077921030230158 -0.6137004702220721
P 6.23597983275358 8.038115534031066 2.117586196221721 -0.4982743933405677 0.7551983044899638 2.0952922391551656
P 2.481172917839209 2.24051027777913 5.701030437349279 -0.09611272126487319 -0.12855901471903666 -2.981008224752434
P 3.8510923135752084 8.850091882115583 12.333308876368617 0.28056494760710393 -0.7317146195457269 0.5001762383489708
P 8.164757694797302 5.809071106087664 4.644355285129445 -0.35928004222081994 -0.784808671157229 0.18509037414686186
P 8.800039748921392 8.690244990091202 6.5460570975852805 -0.850543294350877 0.680788265009505 -1.1706682636387904
P 0.27914351157327766 7.967378637867098 0.854953866997001 -1.8649252525586915 1.8583967074115542 -0.9032552800326122
P 7.417748331346517 4.517064009316057 1.1889956826506833 2.8823642524252744 1.5591429251456954 1.8422303820643369
P 0.07719660801496808 1.4502820577701239 10.420754267177141 1.1861391055808799 -0.03248074623652471 -0.07746065338132466
Ni 6.434819860872531 6.749483465638523 0.5747488396486092 0.3680714152602048 -1.4251403708135844 -0.4717190114495425
Ni 5.218875732446649 0.5158892693830223 3.1032387306970017 -2.016944040962565 -0.5407788423616816 -0.46699255250815064
Ni 4.154604454710646 7.471341932675453 5.4376709626063136 0.4945946304961354 1.1589260355011974 0.8153158386071507
Ni 3.724792278973425 4.595364667710368 8.03895513013194 0.10445466547166526 0.682735875654179 0.4460036089613093
Ni 8.774611452914737 4.000832613768581 7.1151774994959816 0.5179091368523596 0.20691569755206943 4.574549167762024
Ni 9.164921926637255 7.737969174621601 4.394839899397812 1.2079086360474875 0.29094603373111183 0.3634804534554127
Ni 8.501206414251179 7.49391301287627 10.838029830650425 -1.130148449147873 0.12915962441751305 -0.45400668177144393
Ni 3.5547278352809144 6.49694812300661 10.30856185119985 0.23264164156326386 1.5396246526071096 1.2829925616665194
Ni 2.891650341958278 0.06186010919437229 2.269390349385525 1.1820042574768996 -0.946847562801266 -0.15547923614864836
Ni 1.7303446866608783 7.109548137092762 2.0888143104565176 0.35780500033719026 0.19949266561512097 1.2061317466527226
Ni 5.862683200722787 3.6222561428214974 0.36804823173501916 -2.88718609929395 -0.13086966513008427 -1.9089687639321509
Ni 6.879287981762679 8.299675610082069 12.266467595152868 -1.3606799863466696 0.16170130579896022 0.18052898002842457
Ni 1.6071792674577334 0.6310766762972426 9.116444498464858 -0.45149265710033853 1.8363947492191663 1.048745780399665
Ni 7.363313284586089 0.7383933320984213 10.568363213832502 0.5110026395405135 -1.987829897205428 2.9023047001029436
Ni 1.7603778159080115 1.3896794933964443 0.7850084843378218 -0.1869125149572652 0.3581130184959123 -1.5414344521223389
Ni 6.416363541298246 2.1207753668736102 1.8779499346550015 -0.5383478643226858 -0.6678270768631466 1.31254147896823
Ni 7.510039175871036 3.790794888753609 3.2978891002993658 0.4706280923782089 0.6331243832746387 0.6399586325876527
Ni 3.041899208071784 3.93636494840189 4.244605827929257 0.5585253677118253 -0.1764715221295993 0.40754479076447875
Ni 2.557365339328241 7.034150927769756 7.3473433900286 1.7765389534037985 -1.791100396157741 -2.199419088973767
Ni 2.4399605850022406 2.391831755651462 7.705911028347029 0.5485096353470359 0.8606968378451112 1.852436118952745
Ni 2.287363069003029 0.0073843771603326926 6.792148447676454 0.26334549840502386 0.49262130881984834 0.5777309941059985
Ni 6.673355770721145 4.486485327536417 8.329801205860136 -1.348710472689619 0.12883206587476523 -0.955282838052813
Ni 8.271926404148989 6.517198293281001 2.336854855019764 -0.46685782670249926 -0.33768149011443777 0.2934127501040495
Ni 4.121039103981861 6.933417888971028 2.763955912070021 -0.2838747287066273 0.6069299842674579 1.0193434159781476
P 7.710266201953987 6.070557208913922 12.435946725704571 -0.05775237631911989 1.0728066780036103 -1.1680637361364075
P 2.015271055078724 7.639103959747725 9.07933583027071 -1.1124397190142001 1.2515646821745412 3.9042414905688694
P 6.137373524166318 8.33116971051795 10.040816688894719 -1.0332816233257947 -1.2018341477186334 0.7969561051530404
P 5.300384979464346 5.037530371980277 6.562188808571904 0.5662073097371152 0.6771565817941887 -0.2726289805894789
P 9.046980866431841 2.226076252300443 3.646902171976457 0.4488804162884721 -1.0185877687590457 -0.2882384049919616
P 4.079863757757266 1.6221588454689269 1.2474141875637186 -2.2249892241333873 -0.5344536714746022 2.3875775605229914
P 4.4822226204603925 8.792198587098248 7.1563056877898 0.5926385073454503 1.399545038842983 -1.0419529258475475
P 5.902628742085969 2.3983876326946327 4.289617610522273 0.10206662485546293 -0.22458354714547774 0.23118202629860182
