# total energy = -340865.4814474837 ev
CRYSTAL
PRIMVEC
9.27412077698767 0.00000000000000 0.00000000000000
0.00000000000000 9.27412077698767 0.00000000000000
0.00000000000000 0.00000000000000 13.57361319961285
PRIMCOORD
 96 1
Ni 2.2583410989063637 6.3598765637247805 0.7104560622773216 0.0012451852610107588 0.40164950832596635 0.941606883227617
Ni 2.444175926797973 7.711375605494838 9.474789349242126 0.18562439227346098 -1.484758082476217 0.5934306642294425
Ni 2.29016988068718 4.628991797861005 7.855945233930227 -0.9196692026142613 0.7661967124829966 -1.6632142391360127
Ni 5.734392776304795 8.794852562921772 13.763915232975203 -0.26735950466042346 0.08691948480137933 -0.5513262788602247
Ni 3.5122485699656014 5.616555800399476 12.185290196319734 0.674257920090155 0.6775635874246202 -0.021793698836323757
Ni 4.7938763873951356 4.116420428326054 10.940752369267829 0.7180597477664536 0.27333089175250996 -1.9966670358810839
Ni 7.5330806376229855 7.233906782300328 0.14746686370005418 2.637574405535251 0.4757579574056064 -0.5150420997172097
Ni 3.159934003802594 2.249818182106664 4.807311805858385 -0.06079990489619207 -1.018486210184175 2.4649253424755355
Ni 5.747191062685193 5.606799425564564 3.4437610444134523 0.5730567285587808 -0.5804424794998907 0.748270209911563
Ni 5.05083444590361 1.912611158344866 9.822368549444388 -0.4886430408983907 2.080474457416043 -1.4491087087037235
Ni 4.538513477623928 2.480521205294191 2.9053501201588894 2.228207216850053 0.8322434676004248 2.455607150398403
Ni 5.492801935573364 1.6864060836316093 13.063570744350452 -0.016579501625235964 -0.3975804804629153 -0.2356467469381748
Ni 8.790957432284259 0.9491042245533176 13.070412263091626 0.8024166140469793 -0.8683746661053432 -2.6175539965492662
Ni 3.925484834123417 8.304056828474629 11.477399355790832 -1.3454114902233734 0.9058454093572914 0.27721042931257417
Ni 7.600809540112875 0.637680183375683 1.3545409533155428 -1.2585069178203294 0.67913093191174 1.1806945375265407
Ni 2.787383306565653 1.209215484054064 9.783167769226049 -1.553257412899196 -0.35632533046787024 0.5838707884551493
Ni 4.181292901681768 6.283958612775549 7.748320919591644 0.06254336994986003 -0.463066477980867 0.24798727078139868
Ni 0.55087626970666 5.293566003464599 4.477432264755393 1.3477211121931563 1.2286867491351032 -0.5828801424071057
Ni 0.2939330497910903 2.7520581813316407 11.27026558260848 -0.6569412831885783 -0.728961482280622 -0.7792612589764385
Ni 4.625541825010637 3.430534293662928 7.856325472873414 0.3913653527911389 0.8231998693409177 0.6237948783435966
Ni 4.177592527576132 0.18805597976704772 3.940514473911876 1.2901389429033137 0.4395133732512754 -1.283539692419241
Ni 8.091197213255136 6.838124413046795 3.077627111195785 0.2159991479105764 -1.1382713353653235 -0.9851665129861227
Ni 8.902460183843338 4.601809350483507 10.091275384889459 1.1941995139915111 0.19733962382786016 -2.1028877921142364
Ni 8.677312358874548 3.359856220833207 4.905204785487583 -1.1979543530482528 -1.6223182722525995 0.13331838378089297
P 1.4887003814161526 3.5203634254604186 5.566904941127927 0.9749142391304952 0.061516728457558574 0.10528718867528966
P 5.017364144782699 2.12924534063452 6.0707846048688845 0.5965941495590886 1.3035968681804322 -0.12342117927183906
P 1.7444806266128077 5.158210213811039 2.614630553143747 0.3333016158791873 0.13939544321290834 -1.1032729649132678
P 6.951379973392753 7.2827813976805436 4.819949649952999 -0.7884262133051583 0.31263945954414546 1.0499482853481983
P 2.4599326576387677 8.502152043753838 13.160513126621687 -0.016020029577340153 -0.2770343087460261 0.04658067597301655
P 4.510088298090652 6.4783905504313815 10.015887913636574 -1.5967396524525468 -0.5078373544386544 1.343129379057416
P 6.546796463722554 0.1425673458052974 8.452342597020618 1.1303657073650015 0.6728109032309832 0.5195883243269955
P 5.011373062897382 0.7623540409618931 1.7098139639389465 0.7029881981453119 -0.6569749646399912 0.9401097298568003
Ni 4.712236304056987 8.450393176877748 9.106414788495833 0.3981062710593982 0.5642805250280476 -0.4995103226301978
Ni 8.202570127126297 5.862199431818032 11.75845436176466 -2.282277516331895 1.5032340297932174 -1.149025231447718
Ni 3.7641058621630474 0.38435016083243445 6.249644366683177 2.020566725316817 -0.7813901323939834 0.15156987379191317
Ni 7.785410909969273 5.435571337563626 5.847349709968545 -0.9036185769093019 0.4610738730308705 0.8405334755233589
Ni 8.156700326809304 7.378592337242786 7.783978058341901 1.644729035847632 -0.5097317432478898 0.567304656566352
Ni 5.420612181091466 6.8926840643336655 12.408304973558456 2.0230519536325158 -0.870535678312404 -0.12565855324279002
Ni 6.9387764435442305 3.149611907613186 7.183590041172175 -1.2896388633384435 0.685527065246071 -1.0333178758803687
Ni 0.9278386660966123 1.338209226999687 1.2845343268147644 0.5144962545160687 -0.8324794948706308 -0.14704421800741774
Ni 5.804542224262283 6.852731152937467 1.3751016786092696 -1.588820140495154 -2.3125427429743395 0.3366828736465943
Ni 8.216870821038308 0.5337608802030187 9.998933893830772 0.780461964152759 -2.0241577851021852 0.9697278098335492
Ni 6.053246315467457 7.787117348153325 7.125210379624371 -0.7018936795295524 -0.45330065684335485 -1.4631263631390543
Ni 9.22048832627567 3.382642735062655 7.148162900611942 1.6415400965966893 1.4284720062899785 1.4134436512019464
Ni 6.747395691554448 0.5871445730021843 5.811352210993533 -2.2381797546817324 -1.0358272725657838 1.0276820177508301
Ni 4.381957048357622 7.251713093786099 5.037221891737561 3.4040698802055886 0.5491786363896026 0.8643861137712404
Ni 8.872745901551458 2.7287430422299583 2.6827702991746887 -0.40705653827415056 -0.009962767639666713 -1.0030071407119694
Ni 1.6282387994447558 6.689469534502298 12.04286196232292 -1.6778528149847942 1.7767451558773337 0.058782360245531025
Ni 6.643905780163967 6.770868490705745 9.902276227060899 0.3475367856419628 -0.2354444011193816 -0.43704048623075054
Ni 5.061267831539805 4.548612994919765 5.822849338258591 0.5986795713332076 0.1786831850689374 -0.03159243009430043
Ni 3.460192931231416 4.402174631190425 4.039656677581249 -0.643834313492975 1.9005116343037332 0.5243628628975034
Ni 1.915504683961304 7.0421179690056634 6.872266160496648 -0.4901929018840139 0.15618320419420845 1.3568742394473343
Ni 2.094523033237266 2.6954953200026193 2.9461664521797375 -1.4144738922386737 0.8045897104388982 -0.5533715914250277
Ni 1.4034897616602835 7.712989302473236 2.7183467530760264 -1.9515801708447746 -2.334165463450438 0.7023274246328614
Ni 3.830990819681477 3.4572994056149784 12.849270858207136 -0.6229767533176754 -1.5241139585660204 1.1444977758910095
Ni 2.3000097226071823 8.510795524120889 4.817967770388151 -0.03931576688048713 -1.3576548263671007 -2.3216526756954083
P 0.28092516828591163 5.640659239749225 8.204679062142892 0.7416930709146775 0.6303272801454757 -0.3144356322126198
P 6.9061129909125185 4.2344707090043805 10.643517732555418 -0.03985312744119588 0.0430171269914743 0.6741134240924906
P 6.177695739335981 5.249393367211094 8.007888715627253 0.15488119755333327 -0.09669147658647864 -1.4421268780692518
P 8.48019092625472 2.860110960040351 0.4308682221769559 -0.17242974796005786 0.6266801703111917 0.6233410786356296
P 8.35473989736512 8.290358952399377 11.890091229071452 -0.12019367347347686 -0.09869333750785583 -0.813769062945321
P 5.092243394228595 5.040326867302893 13.700390289337657 0.48802957568410793 1.4032086037374996 -0.031597572300623
P 0.38403484073320726 2.234682817343758 9.009580913435215 0.09274637589580158 -0.8857324406575005 0.6293461471791291
P 2.9180185688513705 9.188492610324673 8.071833776926416 -1.356705575079954 -0.22338515596200237 -0.5206057098479163
Ni 6.227757442148583 8.486015073969856 2.9399360979838307 -0.4435926855269715 0.30120653511685547 0.6969335073107997
Ni 7.823212225394275 4.847369514816974 1.6619530099365398 -0.5439603254134566 0.03102601606786915 0.4598567127943178
Ni 1.2577747793350533 9.105368667696043 11.286459124527912 -0.5388913955309815 -0.2382343051596929 0.8023037426181989
Ni 0.6336728358793278 8.921824547584114 8.709847828642458 0.9798872668650542 0.6404800523087615 -0.8928520824214172
Ni 3.7743908618701933 6.985573655917774 2.7696817926422717 -0.18781214395339912 -0.4046463861707612 0.05803596899780973
Ni 7.429729838040986 2.499913391396664 9.40174915790437 -0.39468721807552026 1.792481592775984 -0.9919763368191045
Ni 1.917999422393425 1.8186086722928971 12.503700432519365 1.4545766737968302 -0.5803710028320069 0.9897826716018955
Ni 0.034220577474660556 5.535268133642816 -0.09348869977263968 1.745816327508961 -1.0603553396141352 1.9398117174549363
Ni 2.576786576764143 2.2415642148033634 7.372304483499374 -0.7083990847482381 -0.2519377707887145 -0.056490221777244644
Ni 0.14599320594219528 7.168533506434076 10.270704577706471 -0.4602305511939686 -0.41918108945182647 -1.515895684421286
Ni 6.965819779113246 4.2175268907312 12.967686539235743 0.7920255006206425 0.761720678989514 -1.9312373455223644
Ni 6.9773567850967355 1.5594248248487013 3.7530631668056995 -0.40431445675263916 0.30295719925937503 -0.6652140647203317
Ni 6.041032298682685 3.16774281331875 1.0900263413702942 -0.289328809842663 -0.47278730481305675 2.7198029126188645
Ni 3.779445257578394 4.486847351953495 1.6960363304268307 0.11961388971060691 0.7093899879065977 0.1646285067480842
Ni 1.6307891826002698 3.782793215102542 0.7999012454834007 -1.0253294583582535 0.13003431371298252 -0.7140663103363444
Ni 8.414632167977157 1.1418111757839666 7.477743815032724 -0.35572112122496796 -0.7050049714650246 0.7044138748482448
Ni 6.039298038136935 9.608916317920757 10.83042650360851 0.5819905407133009 -2.7014979436620896 1.9669558819698965
Ni 1.4222976781671297 0.35952426749063143 6.342433797765177 -2.478658118680596 1.1129541967567735 2.092152665084919
Ni 3.435774171782439 2.0840154546365475 1.1229819287998197 -1.219074937076952 -0.8998408550344245 -2.2202334546159572
Ni 9.164982714691115 7.62205655032845 5.498345077435367 -0.41796932853191243 0.2921801632485291 -0.0888141307209309
Ni 8.654498022283404 9.023506005464322 3.489165283878057 0.38427862114768657 1.265972372959439 0.35905507069420745
Ni 2.1830630622761515 5.3873459106229955 10.150157703771912 0.0075263902840322 -1.1071838699318997 -0.35910340743363967
Ni 2.891587325239678 9.040626032028246 1.8458078130874132 1.518244644269437 0.987320840324964 -1.7423422529174315
Ni 7.258844892500973 2.1374158408527313 11.661511979493428 0.15210851990420254 0.7741817875710022 0.5639599084638351
P 3.9448213755024972 1.417317475423453 11.65339434176244 0.10754024637552448 -0.5437839477365926 0.25055194618478144
P 1.4378225559937867 0.6462550352505498 3.3598358177679626 0.7373749031552979 0.33425703781392113 0.01955581064474051
P 6.926525330277197 3.7100933839895407 3.5076931219438245 -0.1990254961707153 0.8088693116508585 -0.5006166683204991
P 9.101742486554931 8.364014017930625 1.3443700252913526 -0.4668519131652283 -0.41643052328988284 -0.3375747893332444
P 8.767336247203914 0.9537969295594636 5.363233197152679 0.6164240398008222 0.7192504256404451 -0.6065774860240456
P 1.910505932976496 4.068334113193906 12.008019091358314 -1.1833520297540459 0.8569401990161564 0.603562867567438
P 2.996255049941979 3.3012808753414706 9.35006077434458 1.3547271111973445 0.6014206244134545 0.13142708029545108
P 2.607289159304092 6.394088794490933 4.97546181324363 -2.0388953484226757 -2.0046703658015343 -0.14246739727001273
