# total energy = -340859.9180329767 ev
CRYSTAL
PRIMVEC
9.41641149889255 0.00000000000000 0.00000000000000

0.00000000000000 9.41641149889255 0.00000000000000

0.00000000000000 0.00000000000000 13.78187005408557

PRIMCOORD
 96 1
Ni 1.7480249752824104 8.99638310044907 8.287300002821487 -1.1732542791984115 -0.06540012267236478 0.14309423222073422
Ni 4.190453804220502 5.572029707458212 0.5902385674015521 0.2992499256111169 -0.4835753965674962 -0.5033428090024106
Ni 2.977036178518365 6.6262911450706286 7.65136359014722 -0.10286598082830671 0.53211011094309 0.7681872605504642
Ni 1.093518457382033 6.521100411598242 4.055150328238821 0.3024794882920081 -0.09500329025077832 1.1367752104357713
Ni 2.783331176436148 5.799285383908177 2.513951182898302 -0.4088617098036894 0.4647052991358706 -0.9163985022827894
Ni 4.758319919410343 4.35964788702704 9.45717425821452 0.9032107999479219 -0.7140861078306864 -0.4361385432417715
Ni 7.916000537185197 4.834913010992509 12.507116061550411 -0.798798814788734 0.4215681016267643 0.27271074167000775
Ni 7.445952105220775 8.851125535813404 7.228342600766971 -0.10749010986387939 -0.035866374879305975 -1.5625835753961284
Ni 5.623528062248335 1.788308383911438 3.5597331419061287 -1.1894560857692547 0.29880615320547893 0.9736651972147425
Ni 2.9877520548670873 1.0870493826442718 13.263010024296419 0.783722894292218 0.33317074672827784 -0.45665543224820065
Ni 8.390531181049436 2.9976487034105905 11.124091914215663 -0.021438629489750175 -0.1054864491702893 -0.1347592299924776
Ni 5.624347290053555 0.8100759948290889 13.138063659383244 -1.0409828486247943 0.3300216595763349 0.6079735950406239
Ni 1.6893983969457285 9.197489402012916 1.7550656262015139 2.4948956635853805 2.132064670788509 -0.720245699674179
Ni 6.216225254706698 6.124377576406668 2.3144720372510266 -0.36100088156666854 -0.15662929059269154 2.1745544645216035
Ni 0.23113900457493244 1.0453252630474459 6.221384506597266 -1.2362033692271226 0.40613582623209404 1.1024651242999917
Ni 8.413064653898726 6.990169536761023 11.3269327187878 0.13906531356699922 0.08995595763485797 -0.6493853252181913
Ni 7.746335633800948 8.948528896930435 4.743499429265128 0.3676723800495732 1.8031478142405784 0.03452245925690183
Ni 0.5130484753268466 5.1238932651805 11.643888190062276 0.2851381688000831 -0.20056995783969975 -2.2697151062858523
Ni 2.838407767616882 5.229168746356874 10.194449150394332 -1.9089582224091899 0.2984896504063247 0.8076238692795317
Ni 6.614106308519445 6.539688408006307 0.15883697173803157 0.5385491817002144 0.8130195863738062 -1.1425468228122257
Ni 0.44794717240547105 8.196232945039302 5.8793597228419445 0.5685917508088918 -0.6748384751839732 0.26022623604975187
Ni 0.93788965706053 3.3814993040075234 7.271314394894734 0.7050669350512115 -1.0322570387160224 -0.49423930403924554
Ni 8.197033340021411 0.5484909067758407 11.56511143264068 -2.661108226991133 -0.6875829193338352 0.28835796128896146
Ni 5.0078642420091874 8.302337070432449 11.70116633826439 -0.5681947724807892 0.21828511573127565 -1.1601095142863376
P 5.02567067625825 3.725650313491791 4.892109236414102 2.01722660519999 -2.4761443511198067 0.37349644293051804
P 2.296163708266123 0.9961715947343268 6.7966396799337145 0.17829571982253165 0.9595542117346573 -0.8240516758182518
P 5.3769969913468465 6.076702284707563 8.605193348686763 0.11633239074585772 3.0653000421229786 -0.78179945201726
P 3.8959272836270658 6.149971383011085 12.167888893667854 -0.9598676292100177 -0.03699894582185241 -0.8017388712536645
P 5.121567411526603 7.799519526259281 1.258225620082976 -0.2813373069967542 -0.9521954573767407 -1.223539400606209
P 1.3411983304931387 3.307900631299604 10.604363436532239 -0.044904830932490404 0.4384345383647998 0.03692746915396866
P 4.634833098288073 0.4181385799893772 9.674969265975943 -1.4408323276275443 1.825538523230953 1.4254635584809578
P 4.685983045850691 2.7059376898718708 13.797305690654248 0.2813733024410122 -0.5136272216475541 -0.6356543487853439
Ni 6.308035267360514 4.306689988446009 0.2533429030198242 -1.18646717834426 -2.3668480412851234 0.9665884928736193
Ni 9.16214019303831 0.25011119057440995 0.708571786480187 0.45590261324257614 1.1728102496824575 -0.6447108025606573
Ni 5.1166708775184 4.291576647901458 7.046698138603421 1.2747807152796884 -0.18860764327150098 -0.6068235405965807
Ni 2.5659344828834696 9.031685227365905 4.74851555170007 -0.7285938145285582 3.261578057455544 -1.2554164518204636
Ni 0.5659762413909041 0.387673663687953 3.7075293710968165 -1.417807841707913 0.1498912005379096 0.15888877605082957
Ni 0.37061018431051945 8.976514472069628 10.413856247813841 0.8352632282633551 -1.8184934434587132 -1.0841719824177587
Ni 7.117112180923698 3.2226350246759843 2.8534674346155744 -2.5777281228015796 0.006903669098368756 1.4383905509552712
Ni 5.976323337539393 5.964863564677886 11.450405415292737 0.3630554501028522 0.17872406560920187 -0.3176497682745433
Ni 4.174944974390674 7.592914040347758 3.156751217954452 -0.1742871128837708 0.18349654729718076 1.2394725268966975
Ni 0.6398065578230577 5.728144394615913 6.852882964506019 -0.12979365845708615 0.9104075748066772 0.19676781048479017
Ni 0.7123929662888965 1.282694165506662 12.438827303317927 0.11031138136275839 1.279162646397468 -1.3018266636538869
Ni 2.936423195484939 4.914076782928983 6.14455035487931 -0.4312843004732637 -0.25084890859990994 -0.849577073782866
Ni 7.480048931458669 2.8307993070810586 7.630539195995025 0.48029672581622446 -1.9717563886823333 1.5552847277418698
Ni 0.9035301129402732 4.212309295437887 4.901673485629741 -0.43220784072879753 0.9454902774424233 -0.548311660403617
Ni 1.475683520310757 2.39664623596139 2.3198610495835164 -0.15628784809287277 -1.1695056107892567 0.23236576219405788
Ni 1.6207056746575668 5.5611443357015125 13.571861731787317 0.3742227795735813 1.5788658574959196 1.8747895469472808
Ni 2.6728860853164975 0.5758502905466774 10.843464958717435 0.05217102557660048 -0.708695018722102 -0.0863157897791094
Ni 2.0623542093744085 2.1211879487652836 4.833274555382072 0.7180314656316795 -0.434158279586949 0.6812407791658913
Ni 5.955089329484587 1.7032405219304576 11.152702739082057 0.08526420858614349 0.7085700631084636 -1.6250582968915819
Ni 8.137135546124908 6.630189539454083 5.445809302061747 -0.38871660231438215 -1.1246095216075147 0.11427782220967417
Ni 0.7274620496991426 4.518380336596819 2.255375579977788 -0.2615868638427043 2.433464809973409 0.4177063046785129
Ni 6.0109663156474324 9.16311949983995 2.579635361694885 1.1205914015870573 -0.08099823422093792 3.627804449087211
Ni 0.24628624420107872 4.603354034462257 9.168802304212932 0.03570773781425463 1.0025427994810412 0.3336453723718512
Ni 8.669850196982779 2.9367433534777834 1.5802565371851849 1.376210992102733 -1.6591290133230459 -1.4996792225624238
P 1.383882924068497 8.944781165131849 13.235281517192655 1.1938300464672342 -2.1452472309170534 -0.5796732054340339
P 5.89184870948633 0.7100285053476276 5.404588018841918 0.08794561207304855 0.22706029082074444 1.382001116421949
P 2.3309667653705843 3.9386966249064117 0.9801043716993316 0.9681769204066617 -0.22404053015781417 -0.12363972304054836
P 3.256788349383203 3.641326348023595 7.9141558621617225 -0.6850827786198007 -0.579385498990286 0.2224816703111265
P -0.08745868887460137 2.395271439874471 4.527661151824676 -0.34264243366413893 -0.22628613165888128 -0.8414562444479443
P 3.035352015273757 7.308331250355597 5.477025648005199 0.6186315889751023 -4.48049538590871 1.1854708758692616
P 0.8835588456748912 6.877841163330526 8.858544726476987 0.38857776274367267 0.09036759125097985 0.4213521289612163
P 8.286244423086256 5.037893178455651 1.0151748548919333 -0.46158115168459213 0.6138696488100848 0.2721975494790151
Ni 1.5752809053199257 7.093288659691477 11.714479260919772 0.40586380351762996 1.6598406946780897 1.1939544878602406
Ni 4.030431306267793 0.41273826796302204 1.477912384925645 1.513933932709225 -1.444168591089629 -1.3851172934534275
Ni 8.1810066075561 5.022836336380425 3.4410985976577577 0.6801796848912286 1.5819568377164175 0.5587793927041602
Ni 0.33737307644752773 1.7463017719679852 9.585152707648161 0.9219883376657411 0.5649880926180334 0.01781208848075642
Ni 3.872235592156604 2.658893297746901 2.1150757560254285 1.2194770576113771 2.441239054602189 -1.9614331523794541
Ni 7.227001703761648 4.882578886280059 8.764897571928941 -0.5458979087558018 0.878157713634036 0.06431588846925052
Ni 9.001138388283959 7.322625363094929 13.660272419870052 0.8156950763234404 -0.5191844040203574 0.6103400383902715
Ni 8.670725923257324 7.536255492025912 2.9778902470463344 -1.4285432258475461 0.44826566552260866 -0.31107700015303197
Ni 7.01082914371102 9.043305079223835 0.6588371255741714 0.37257136001308744 -1.0051735522356688 -1.1405647593851906
Ni 7.851403953923128 1.9761657944184738 13.458312991419389 -0.8982326300070401 0.006174504241828076 -0.8869783972494596
Ni 2.88671395889012 7.695863667870235 9.929148346341783 0.8425525628359167 0.2446096125584174 -0.41353597535090714
Ni 3.3917820254247504 2.606274389981823 9.950179901548172 -0.5042190409597768 -0.7126128657192695 -0.34772781860684626
Ni 5.765480466428464 8.362555022321796 8.851117061043004 -1.0220816408449171 -1.3505084451303064 -0.47304930022519176
Ni 7.724489558995117 7.244356150256108 9.034980971409889 1.4333992683882668 -0.4570547245691483 -0.010694760709684807
Ni 4.5621478175009145 3.780274916917922 11.763901296962187 2.0259881534427047 0.5834087612170662 0.781849331418589
Ni 7.416723563756422 2.7626527366630427 5.379546013954579 -1.088999485713389 0.12261205310698238 -0.920358258261486
Ni 0.29622335795551036 3.4656914397139595 13.214939243312038 -0.030755278904985743 -0.19574065477185643 1.5981079935549831
Ni 5.194318607194641 1.615394818540977 7.468326440714799 -0.10925748617694732 -0.3040095517832893 0.11991599433205799
Ni 4.926883102642745 5.738370617563814 4.755420606292793 -0.3561227275387609 2.3876665206923717 -0.4976863820475816
Ni 3.4971705035397758 7.802787021068601 13.612228946479178 -1.1691610829656445 0.7954772066146688 -0.10182776937177947
Ni 3.7410178971483066 8.899469392732858 6.903324797919759 2.093955008400981 -0.3777163945491366 0.3805813748017574
Ni 3.3104995608885734 4.0231241709017045 3.888072113108521 -1.8724691263442201 0.07032198545401437 -0.11533685960180783
Ni 5.833175049091877 6.97267384409325 6.690064733962856 0.13749642641798257 0.18356776685474838 0.16883920239532213
Ni 2.4472500316538617 3.7191624059309216 12.375760886933422 0.09479245979155287 -0.9296515106379537 0.5463794763779106
P 8.469836199159223 0.6384289368126728 8.465610113653682 0.21676199421852987 -0.08384675941332657 -0.16672061339042257
P 1.0810040464264514 7.356420864163086 1.9772439735414342 -0.002920258970588519 -3.6815273925319634 -0.1019565816401599
P 8.106004889526599 4.640162787227771 6.802345083694427 1.4093003184575341 0.9197440217162548 -1.420568692282502
P 6.5445001943105225 3.956427727863041 10.538237628033764 0.6583929280334403 -1.3823847250136128 2.4034109280108216
P 8.107859922602783 0.5819380006164918 2.489970407593126 -0.9121695518031065 0.39370814199170256 0.7183885918607821
P 3.0579702358270353 1.09460134471077 3.118107206577017 -1.0387421322197337 -1.3592900479776784 2.5807602247596844
P 7.026187310955982 8.1184533856013 12.473529604818758 0.3167347126594416 0.7026701526842608 -1.0246211194373194
P 6.284588402590463 7.529202599771788 4.5154923231731345 -1.019729338562657 -1.6956862436217894 -1.113736583448753
