# total energy = -340871.4792763597 ev
CRYSTAL
PRIMVEC
9.25476841774232 0.00000000000000 0.00000000000000

0.00000000000000 9.25476841774232 0.00000000000000

0.00000000000000 0.00000000000000 13.54528906569651

PRIMCOORD
 96 1
Ni 9.423668081125188 7.212935242550398 2.5502801166121998 -0.8412047905587707 1.1238325342321742 0.15359924551711612
Ni 0.7115047555544199 0.2430690922821391 2.3561761538008366 -0.6042971746303012 0.7978526488253808 0.09579724690698341
Ni 8.58349242739694 1.753593545800737 12.954836129006367 -0.8216062996015528 -0.5639208276957837 -0.08804948464076448
Ni 5.626788224215212 7.116731923421209 7.402798670409862 -3.7228470772163558 -3.0480098875839636 -0.10132151915932226
Ni 3.62242746964829 1.2663392361487262 4.2808663077852165 0.7545699268773456 -1.7215980783915448 0.5272370991215048
Ni 6.507925483567874 1.121677948865576 11.50891736381649 -2.373685375921931 2.3691126689495845 0.014086817110369288
Ni 2.6185997435620396 8.524743156609821 5.916704029445889 0.9069674387768768 -0.3398245045993696 -0.075175971112206
Ni 5.297031565832132 7.893244024259635 11.805559534832936 -0.3347517180621525 -0.02268150075791578 0.13584243575432733
Ni 5.546530871306282 4.082611581276936 9.157590708738471 0.805021398659678 1.1992273062234056 0.17960209733878102
Ni 6.077874898354297 2.033707625654816 4.883307317826424 -1.0691739663470297 -0.5250735158112828 -1.3535937689238495
Ni 7.743548142882568 8.746061691834008 11.860255216992966 2.070591908195008 -2.4069865611772223 1.2258122558007858
Ni 0.7461934790522579 0.5660392288838405 11.539312800181666 1.2036694011551594 -0.47938938351060667 -0.138075181739588
Ni 6.873164924590812 4.9889588301734085 7.1663652471816555 0.422327348390292 -0.3286381489652469 -0.1290102433238423
Ni 6.333463841537635 1.845632219080177 9.17354685520414 -1.7018604907533015 -1.7261818411074852 0.11230218654054208
Ni 0.6294519775458209 7.0990460607126105 4.929943022051907 -0.05799406001628077 0.7735199856172872 0.030838068426779146
Ni 2.747777803052681 8.606925501378191 10.510250096676504 1.3204162537306163 0.5600194357588484 -0.653805308662758
Ni 1.1251392323051446 0.6694566401016488 4.632854771191108 -1.627127777826101 -0.3904644382434243 1.0074566918428909
Ni 5.15683107699249 8.182631382205821 0.7161423200773287 -1.5057465118024262 0.8320226098388703 0.8853568024856364
Ni -0.3083226144097084 7.064803417059124 -0.027020222273167784 -0.5516764631107919 -2.1305708598518014 -0.06994017663456342
Ni 0.8123521175445058 8.138282531290278 7.51068706031659 -0.21488817423458476 -1.5481172634591531 -0.9030405929186447
Ni 2.3100735242441215 2.046275601352501 2.3476423317162745 2.9074517915215217 0.5808602837635997 0.6797192003150423
Ni 2.0928641062583537 0.7983181865077091 7.586445670230935 1.2053609299249692 2.149028295226041 -1.274982032657217
Ni 8.333669205023364 0.31314249787315057 8.354382302526302 -0.08262677096329642 0.8376466408938671 0.6183140577346835
Ni 2.492244388480673 1.6406761146612245 9.841749474166587 0.4489716904506978 0.9089070790017507 0.4428007857532955
P 0.5768413947412324 5.2056592358886515 11.422877631514398 -0.38279252352046333 0.1058893410356628 -1.2607406922468545
P 5.020165909740856 0.7346324221733562 6.166926132344185 -1.5769089908798648 -0.770832411482795 -0.02883749305698259
P 6.364171163603114 7.263540317009118 3.6197620963044517 0.37975142270129436 0.3136241920549179 -0.18528449243553896
P 4.528719189933433 0.9280496811579392 10.363256607717496 0.43528365144064396 -0.4708900877903439 0.40665056108498354
P 2.1351121247119127 8.302258520547705 3.6224163639260243 0.6332004879282127 -1.4471796100018108 -0.03628469336364719
P 2.3370511745819367 3.2612508720209967 8.029430719976975 -1.2448515318204239 -1.2952415542372016 -2.560885083102312
P 9.380263216602254 9.011025715563557 0.3334039626706044 -0.7422566567276313 2.0306295088694575 -0.6957238032734147
P 0.005309460720001493 5.3239444327900625 1.5941042683387714 0.20946186101269088 -0.8357041724555155 -0.47989511950243163
Ni 4.824409045265571 8.021718721340097 5.063364392925014 0.7360343299670032 1.150898794321347 1.117841863866378
Ni 3.355871625727281 4.113800151307275 3.8780571338132708 -0.5061738506933025 -0.034592393262888814 0.3119879420030756
Ni 4.787501028268245 2.9568707890157166 11.32292705659729 0.42688385741272283 0.14378174520606204 0.376911382149338
Ni 7.869153861710979 9.089191490779058 4.178247583093704 0.7869326594787673 -0.10489818076698708 0.07502607579790306
Ni 4.580286760321873 6.764051203327402 9.706974130653883 -0.7065221794404994 -0.2562351126124877 -0.904484781564339
Ni -0.10158404156706359 7.487579754188474 9.659443490309133 -0.21140947165736493 0.5504017101634263 0.9083239528047712
Ni 2.062693560769065 5.932732363106287 9.61122244423018 -0.6403368418626778 -0.14939137808335565 -0.7994639591765585
Ni 1.5305536236253212 5.85583449118282 6.852548076680845 -1.0556566485868852 -1.1256359059895003 1.2525725546137654
Ni 6.482669220181289 9.069090133477605 7.45546293087207 -1.0465382312253846 3.194382276335337 -2.6921026184901184
Ni 6.394795192751596 8.630580689804761 9.757119243115422 -0.1633259858865768 -0.24246994050759527 0.255056004702722
Ni 4.993262297551482 4.87930833233381 13.208485272700578 2.88703003333206 -0.6765045500324864 0.7908926725677798
Ni 8.743470356638609 5.347275704317208 8.618529130192446 -0.04048176216413028 0.5824430548696872 -0.04346501316217031
Ni 2.1518910201021213 2.440251098738702 5.567641923857085 0.6229957794810691 2.02949436682375 1.602316632319692
Ni 5.688508275708484 5.781065216027004 5.32480234983511 -0.21613644481938907 1.1643459209651883 -0.9023219695850653
Ni 7.526486801193679 7.275710337658939 5.951691681968052 0.735859494952036 -0.014970762377219378 -0.4706221788409379
Ni 9.246716906353653 2.215758177900152 6.80917652932471 0.4644828987124194 -0.5231819552155248 0.7503965122259464
Ni 7.5847548240159375 3.8979234199934263 1.7182606904114712 -1.175674715714446 0.49344534738304047 -0.4183881612368859
Ni 1.1888027851949656 4.597371063074397 4.650423098339059 -0.8612987330951681 -0.49876495982374097 -0.007912055758225083
Ni 3.573497508298024 5.312301933947877 11.564967944092968 -1.3682945654691339 0.8016964480515031 -0.31229930259590727
Ni 3.690709152047054 0.8107982419041219 12.533158332904495 1.6708848683073934 -0.6143072505681356 -1.1671869899584093
Ni 1.4342022281992526 7.1716034461837825 11.513224533101985 -2.223070666954436 -0.9691781079776663 1.6539934918686932
Ni 8.071315026026323 3.271690250951033 5.070448918253864 1.8435287891607866 0.30327730160295513 -0.7548576333210936
Ni 8.386606481157944 1.7701780910512908 10.212389998118221 1.2645888623483512 0.03048531307305073 0.5104182277919532
Ni 4.314711921867693 2.303484129032964 7.5419765073241765 -0.2319348453042264 -0.3313324079679584 -0.1461013944781742
P 0.9041205515821401 0.3371253051065685 9.186063004197917 0.8876180877159875 -0.5895961209747007 3.4596800133707255
P 7.432365804989365 7.317643693981628 8.299632017231797 1.9273629501686227 -1.4692116501011858 1.2634678613700305
P 1.4322031981913734 2.6338145830664543 12.827280430443418 -1.5755563335067124 0.6355821007865118 -0.6561218726110765
P 0.8377407241214277 2.6214039384342036 3.6507674219174007 -0.8529881563469438 0.6425911851144933 1.2503032989636145
P 3.097682092579989 6.933468996495169 7.8476124624223695 0.6631247862914709 0.4316982480822307 -0.008272524421437366
P 7.334487372751722 2.0049345502173317 2.9174112323277783 -0.6028897527598133 -0.4358732053955267 0.5552942623690372
P 3.7623410606627274 4.445454037244129 1.7964301675343937 0.09511873278272005 -0.12184509303397081 -1.1237428027318452
P 4.266485322927607 0.7790497583762064 1.5936304241887556 -0.9309892556127709 0.7227152442605941 -0.7169665147022749
Ni 2.0164752466054123 5.869318688967451 2.6421170359371415 -0.11393046617258443 -1.1091924157214963 0.20582323581883907
Ni 3.9573760531907234 4.723291444033679 7.301858760734226 -0.25455206848310996 1.282584013374191 0.4986813989709992
Ni 0.2964876163815789 2.7603272692132563 1.4605616599975937 0.15554788460305471 -0.11762745540819743 0.17832940127394448
Ni 6.1083508512059 1.0372466953383428 0.30916942573249057 0.3722453441322363 1.4516553863849775 0.44995050942419934
Ni 0.826264811113232 3.5920533192507915 9.505962408593073 -0.7968818002716792 0.1706970815396673 0.7685826962166699
Ni 1.8921096667633694 7.808257484619103 0.9892968139780505 0.2924922951723092 0.35591575373427736 -0.5456266573722861
Ni 7.448219223524074 3.948750608897467 10.98219516818484 -0.4445758753758473 -0.8605148037412921 0.07894238013317371
Ni 3.3317351893358502 3.9004314622718304 9.649690815205878 0.4970073537026859 0.5708638346725201 1.2254366176289218
Ni 4.770055789542076 2.621320645517209 2.7375707188133753 0.6639675939077403 -0.5379017779242027 -1.7708370179230146
Ni 7.6569420187449095 6.191949175563184 11.50777995276108 0.805039139271491 1.5185614041789073 0.32197436379182615
Ni 3.347560843564894 3.2406219929119096 13.331463562736227 0.23490035569045353 -0.45106868218904245 0.5636272077147648
Ni 6.821097596700401 2.507783144884512 6.919245342702994 -0.007483967081870981 -0.2557175495461209 1.6476130422636464
Ni 6.146878452700351 6.150302717065699 1.7033743951907594 0.0269184216573988 -0.8563208202646027 0.6934491483066251
Ni 2.9738347797770257 6.2424524475678 5.158980959727816 1.0488583947181291 -0.3076522907421992 -0.25721933090262794
Ni 4.158454409585133 8.861727789234354 8.432551779649224 -0.15668585486223982 0.9136214537582846 -0.32583178986470335
Ni 8.889177432768474 4.1519575620595255 13.056832933250984 -0.4804124254584824 0.5893030152143142 0.052926672795702394
Ni 2.0103578445905597 1.0133693924664517 0.427276931077645 -0.6973533684570378 -1.2840850233997498 -0.17407062599759054
Ni 4.018559328107806 6.931923450146484 3.2172231615743123 0.6875968032909062 0.6133567137294081 -1.3446553287836391
Ni 5.763990168043035 0.2386092193154863 3.1207125841290977 -0.39737222110685116 0.15201287486660273 -0.4871178625031159
Ni 7.450579189505598 8.482800545518577 1.7098897522534768 0.7919283129211457 -0.31834499456935494 -0.7685176473066894
Ni 3.6683403764496276 6.412175648097881 0.8554460218439915 0.8216240402133657 -0.9284402639386721 0.1105173267259774
Ni 6.364781978327743 4.009378597701249 3.763355383296355 -1.0553380889052018 1.3490272325990895 -0.76436814391469
Ni 1.7506505294002481 5.1377384894635325 0.1579594642198248 -0.19685857042638355 0.1458867073642068 -0.531512072347775
Ni 8.153534389868913 5.598514906279699 3.6481390676477816 -0.8643897133156663 0.32481389012315026 0.20113842874866003
P 8.689524310731533 9.356293366044811 6.242129456145231 0.27712198336382593 0.23549016675565249 -1.4218964099549898
P 3.21389422132508 7.384453868180147 12.527943270823755 0.9315746958025956 1.0527227627695417 0.5732781005409675
P 8.694595923899673 5.264676894963864 5.7863311793347965 0.04505884001185143 0.5454335675248736 1.1248152098604176
P 7.683493949729194 3.3972034220938956 8.783876676149724 1.3109934177548197 0.8766579891600579 -0.6650073480261643
P 6.672938006903462 7.104978367356363 13.354802238078218 1.6668384661521616 -0.34059197889301346 -0.45208323949648593
P 4.714888114185742 3.9877316940511123 5.48412226503252 0.7566939151988838 -2.015555131034838 -0.152829200120311
P 5.69681905787087 5.512038348901811 10.972023252066043 -0.21674708182019445 -1.4851388628544036 0.1547053340971013
P 6.800755615416518 3.210442192654066 13.26039156761813 -0.5537418302802528 -0.5305687345978991 -0.6791612709290433
