# total energy = -340852.13185739494 ev
CRYSTAL
PRIMVEC
9.45409814780939 0.00000000000000 0.00000000000000

0.00000000000000 9.45409814780939 0.00000000000000

0.00000000000000 0.00000000000000 13.83702827420138

PRIMCOORD
 96 1
Ni 4.757179193964722 7.136652749107043 0.3781724273875586 1.4771774419154817 -0.7395577697392295 1.0031470087239434
Ni 8.333267382949549 8.43319719846586 1.5407948519879728 -0.2469459740010779 -0.15938731295380293 -1.4397077271047978
Ni 7.689906562164246 4.950619492477426 7.417906491180931 -0.2743343933163598 -0.3991591378039448 -0.11267345383703177
Ni 0.2636360305114815 4.670116405782155 12.913890351961696 -0.1631876605364996 0.45648008301260096 0.6473798647523883
Ni 4.063768378539557 0.9503353817895291 13.271550222989204 1.3732747922925443 -1.906460909908633 -2.578219717726018
Ni 5.723123291498568 6.617717311671808 8.367153706294403 -0.04219617375207572 0.8314009170944713 -1.850598294413058
Ni 1.5799783064240098 7.6811898838382255 11.67037110187311 0.014768159448110052 -0.3755924062275983 0.6258134514355222
Ni 2.5120672791362937 0.6861765396604458 6.6101559241174135 0.9264268330530689 1.4782369935282478 -1.3771034220100153
Ni 7.804253877080974 8.242498588363727 7.046893652184149 -0.9883541666854849 -0.11947762124305875 -0.3677040046184571
Ni 0.10154552085895636 8.925160094399862 4.919921090967207 -1.2073584199709722 1.9887992030972328 0.9415958274840236
Ni 7.697195671697178 3.5969722913949997 3.0573881585889815 0.505833179524432 0.6544663392855244 0.8746018779619776
Ni 5.9755855236222795 3.5653199713998607 5.970594705305245 0.11403099630619071 -0.6336727995789408 -4.9858197441175225
Ni 6.7150945207369 9.602149141655506 3.9215796905183837 -0.004230236031263682 -3.0259971307582982 2.940820853900271
Ni 8.15832875415921 5.875646254007999 2.4467328443123972 -1.0502416482189008 1.5258869913060429 0.7164952314928111
Ni 0.5319508941070712 6.562562104129502 4.741354924786746 -3.163393798373623 -0.9924440204841423 -1.3979895214304052
Ni 4.581786768471946 0.7961655154141627 3.1114637081434005 -0.5058527199084579 1.9779802581048578 -0.6596787367243994
Ni 6.55298510288844 2.242020424793061 7.711805089286331 -1.635775683309086 0.042684683352720035 1.0442082975406275
Ni 6.712693179853159 5.477420739421609 10.092838570593289 -0.12603984784160874 -1.9397649233774008 0.16502779906903192
Ni 4.45051661819342 4.79037253192856 0.35764001742177526 -3.29739532426447 0.3058437767785507 0.6113576810215084
Ni 7.449394309871437 1.3895444110649655 2.4080580203470108 1.4674026219169052 0.8650227189139746 -3.339616694827526
Ni 6.334954695562307 4.5945592548260175 13.200621798397945 3.4244132197486317 1.2425668495513054 -2.5665497375872577
Ni 1.6071399298845934 4.906799748398134 3.1756532517034346 0.731748558107456 -1.1359480865487857 -0.06910045434208745
Ni 0.576998725512339 8.847986292691285 7.11004608119715 0.349790614673146 0.03448312137853416 2.1944913126548466
Ni 3.140736431680123 9.290419169373633 10.641837094155328 0.7179214224163766 0.3468317891551382 0.23479596890210533
P 1.0661386277932492 3.2201697628029295 9.827914891938635 3.674512137556394 0.7299233319732591 -0.7798161030386441
P -0.019838479174969885 1.1168598633888045 3.3362868848591702 -0.28331911331347337 -0.4149128010937757 0.1845995505533724
P 7.8171587208065905 7.640735798635359 4.460019877470336 0.08939417159411701 -0.5681207247097442 0.5940392443477188
P 0.5810138809191298 7.7695384293443706 13.81993895723234 -0.5975279742272677 -0.06527670972062306 -0.37128169466738636
P 8.661958006985088 4.59586392034553 5.533123339236232 -0.14594455718533575 -0.037385125516677546 -0.6753259563433531
P 6.148084995137006 7.899692996062732 10.211034648792577 -1.2211642155058129 0.7354226645249334 -4.715484444658228
P 0.8514077006577693 6.601550804147408 7.49740032853073 -0.5632960496275913 2.2816704788755158 -1.2666639997098248
P 5.82967097559212 5.570307251952146 2.3957572934815166 -0.074620098608736 -3.72964815929859 -1.2680310552606806
Ni 8.315049336166204 2.020388006141317 9.27523683344765 -0.023381612148733924 -0.34100798338450944 2.156056919938048
Ni 3.9043061081219923 6.597513904315292 9.85309871810442 2.5165587503811113 1.1699792079915659 1.7551553455216997
Ni 0.8871640445805931 4.6444201675065315 7.948888340246335 3.025970391285421 1.4694674748657337 0.881176702966018
Ni 3.3767296251444763 2.428398512124054 10.791318673348618 -0.0459659252071531 0.10413970533440774 -1.1155294136831173
Ni 1.90562471091402 6.642222333603527 9.349845738377649 -3.3238810292598235 0.19778750999855615 -0.07177028786476672
Ni 6.08739914028372 7.35071243528683 3.151798671711877 1.7507497602548363 1.7194298670956323 0.09611297837518933
Ni 7.201819846396914 1.090048041553018 11.559896185483863 -0.6832873772822748 1.5900501562475131 0.2531976113377446
Ni 2.4460871294212176 9.33674424941431 4.161402739069365 -0.08030095104359718 0.4505506049020434 -0.7369059339386792
Ni 3.450594492564434 5.408434186552873 7.337097588803856 0.49735290996756276 0.10509666993103836 0.7911587817449729
Ni 2.4763213347212343 6.480046737069295 13.700968588409513 -0.11827254519136407 0.07334920231611239 -0.6416424480479789
Ni 3.0940426418187164 8.500160574369554 8.120965213581915 0.2451037785860166 -0.5253115999640179 0.7057585618015975
Ni 2.556047742881032 2.9827679087414216 12.933027337067479 0.5415044076737965 0.5597322435357328 -0.876560030129613
Ni 4.833776295697283 3.6036185222661414 3.5195451198608936 -0.6493035641376624 2.541266794650752 0.09338760902422626
Ni 3.1674820748301378 2.9628764866178336 8.026624660783979 -0.1312674147891352 1.3033256167969167 0.0933143325841296
Ni 1.6908748755826055 2.1502778581165893 2.6875239924952483 0.6619608478903568 0.39414162998469543 0.09867276868256555
Ni 6.08684134850364 9.140779706744286 1.3326884112983095 -0.48220499858253085 -0.5364537326237664 -0.39053591491130807
Ni 7.860685387848891 2.26844462861218 5.7920275937149865 0.2539347466140852 -0.7730150209564106 -2.371664745947477
Ni 5.459968474573632 9.106527509808089 6.757022499812898 -0.2707399910968821 0.1565660414549239 0.4296161687422214
Ni 4.014758334676116 5.576698222178165 4.7646838569313115 0.7325754248841255 1.415400517818001 -0.7756820262656124
Ni 8.437319185179684 6.51528216019411 9.00511056468149 1.0409419680845298 2.152494142287454 -2.4159095746984653
Ni 6.365481977899316 5.699270602326605 5.005599799207333 1.7696064879500233 0.6369455567929417 -0.28720867817586665
Ni 4.533164342625172 1.7742411114598855 5.332222812017385 -1.6781909150505032 -0.8090567450713162 1.1093171142248186
Ni 6.136409184147162 8.494213946748006 12.130618335355589 -1.0778128729689502 2.6383092268187465 3.094413671659484
Ni 8.8435617748425 4.211138857656708 9.648753117586223 -2.6202030041363393 2.16765310941608 0.6251526779230717
P 3.8613183246638396 1.137951955954263 8.744670019283019 1.1352397476278513 -1.6160021002265847 0.8063123495569599
P 5.576206609083855 4.403104316886485 7.590481595479397 -2.0004822958621156 2.2972037986244245 5.032492208473398
P 4.277468808996581 7.268395604283941 6.55176363343104 0.754174748321456 0.5651261608577944 -0.24746405128807702
P 9.281343235324849 4.398708161331605 1.4432162706361729 -0.04963591785957258 -0.41674394076524357 -0.309663407634957
P 1.2034026761831595 8.745239155980661 9.764887257018804 0.7842522844331268 -0.6081620569023461 -0.5668521424099657
P 3.434541434215645 3.3337607498822583 1.9837874112699967 0.7693972216981653 -0.7541850327341011 -0.05152876400691126
P 4.014172180602132 8.125778294857161 12.652425927753345 -2.236077620737065 1.441472018094072 -1.4728037383278183
P 2.4050468901443667 2.9051119480365024 6.032266622576537 -0.21196971503620912 -0.3897008206045224 -0.8774743144137661
Ni 7.135924783563547 6.503511808224592 0.19256012199193154 0.7802243942206563 1.401581609657038 0.1604890306584139
Ni 9.483311130204225 1.4772311697133862 0.9201872087810172 0.1877306399831864 -0.48695434034205815 0.3711911918361091
Ni 5.952337896720235 3.4084292156294524 1.3115150134903306 0.46537995660539205 -1.3153072146388252 0.9543276732283952
Ni 0.8033459028204674 1.4232293621231136 10.680510972710916 -0.568512303721208 -1.3061142352856474 5.644384936062769
Ni 6.438552701090005 0.26786390312254066 9.05652856729725 -0.1179789252103452 -0.42185349407766704 -0.09928134880084191
Ni 4.524457118397119 4.414335785271857 9.613413699383765 -0.40170067327887593 -0.40637108217135176 -0.390243837592186
Ni 4.5940960040256105 8.337862074561745 4.566191288464783 -0.814504655559765 -0.45283991515685235 1.6735405607626854
Ni 2.3204327133353786 5.115376057756782 11.200908013691924 0.10175577848326346 -1.0616756010874555 0.2523473475223073
Ni -0.3078433926074399 6.243977910821203 11.043429213027938 -0.14691566284935342 0.08378633848903634 1.9215753969525682
Ni 8.863992080550236 9.247762279344343 12.37715190264389 1.4170707064315724 -0.7843605278762168 1.9619270612967372
Ni 0.6009544643521484 3.2078510731512972 4.643236514441003 -0.5382115958551376 -0.9702163194341934 0.3568035556558694
Ni 4.154130646912775 8.253824597728773 2.2565561004180683 -2.625293274175053 -0.9222989269276246 -0.11724616080937872
Ni 5.233788634799527 2.7881269397868467 12.840969948928688 -0.21895823053890032 -1.1064572761785203 -1.1944903057590524
Ni 2.1428374830161787 7.503367755167806 5.8559552587613215 2.229729824142167 0.8045254328598661 1.0468655326578162
Ni 1.5544144255199313 1.2928478970535322 8.7436867930944 0.8393052595432126 -0.7677622571979036 -3.048864522274775
Ni 9.116085602853214 2.3958007823321665 12.61491395783796 0.08132373588115673 -0.11065642340700296 -0.24828551874810786
Ni 2.026646618995792 5.030374262931127 5.429691725832762 -1.1073846730887962 -1.856274518862229 1.8533231495433888
Ni 0.9287819292432575 6.4431190304083 1.724260131735184 0.10233401958423666 -0.5889366330138309 -2.4674208552038794
Ni 9.383636575333032 2.9451311447328647 7.388862556815021 -0.585279752987534 -2.5850333982137417 -1.264986354897086
Ni 2.9216377112836653 0.7738576258500858 1.1551357244199632 -1.475032627658337 -0.07998059158970096 2.1397633249843473
Ni 8.666287983854197 9.244396620467917 10.090874009035643 -1.280530473279272 -1.5434867066656774 -1.1539586641935933
Ni 0.5246315314606445 8.122828616291306 2.956779538838603 1.2377406318072555 1.523395592342757 0.10596313169639171
Ni 1.8698220419111558 4.035670799380193 0.8908530336075057 -1.1190163437904534 1.2069673551801408 0.18585116357228637
Ni 5.979735872630005 2.581772343450558 10.10894551730049 -0.035429801562519625 0.024818858815892738 0.353303770032727
P 7.647741285229265 3.618158924940133 11.421345434360578 -0.6060085008944531 -0.6628229387803359 0.4498386664366834
P 6.755643146919442 1.1705024152563128 13.884903736825708 0.3358498362223377 1.265414186463124 -1.057349977128908
P 8.241619357252752 0.9302369149204534 7.512924902803137 0.4590581281524223 -1.887838409711439 -1.0750358244444453
P 4.6618440700606065 4.980607891230287 11.780458400245688 -1.3126844323039972 -0.8048555625057752 -0.26579138884235515
P 2.605899201463579 7.023250843987063 3.5059567448522277 -0.12746706720643855 0.2893753468098823 0.2638067543121586
P 1.8713346975859533 1.0315177210363202 12.865862588877077 -1.1156530837451752 -0.4680814146969552 0.26520877686600774
P 6.8666531652536476 6.688575775938105 11.72112542681155 3.606610331508098 -3.2320643642671434 4.1396282989774384
P 6.127371066490245 2.167304688556029 4.018369800099695 2.280587530223982 -0.41236483786094147 0.5137046118527089
