# total energy = -381170.01671631413 ev
CRYSTAL
PRIMVEC
9.27917421451036 0.00000000000000 0.00000000000000
0.00000000000000 9.27917421451036 0.00000000000000
0.00000000000000 0.00000000000000 13.58100941623868
PRIMCOORD
 96 1
Ni -0.3452539464210006 6.235558671801316 13.327193541835225 1.2722818601172345 0.3121118691754496 -0.6733909441041693
Ni 0.8546472054045849 3.4242843787471156 2.299292144466627 -0.5599443595465389 0.16721606496960234 1.3763770853669521
Ni 7.407509095078028 0.8922519867993007 10.325397388110693 -1.7726614727262633 1.166978473492029 0.47297679511604357
Ni 7.510173878513634 8.144127060393656 12.349578719828267 1.1318312361669345 0.19585532597284977 1.065123964647372
Ni 0.8331427191779024 6.483804419383814 6.754732180399969 0.32842834694728595 0.22838312339722602 0.5856119395159721
Ni 0.366466138660136 8.68637416357754 -0.023235980133866584 -0.07188393062449555 0.8262607676544287 -0.13554393067730205
Ni 8.906930855323825 4.324234368469245 6.919578566037192 -0.39271183951670435 0.8969092832099264 0.8227843790700539
Ni 7.862569077404992 7.4257241140480295 7.17578398925518 0.4238003333913927 0.7908631048814251 -1.3709564285720133
Ni 6.108480381024868 6.999772901211078 8.737301983299881 -1.8845581962982707 0.15231703637058286 0.4352263158401472
Ni 5.443367732154899 4.068231231248988 5.344914765892235 2.1525260239666544 0.3583433893391635 -0.12627458956023413
Ni 4.457650335229651 3.9645550178247273 11.399084140278582 -0.3603182536773472 0.3419459218177466 -0.8403671251488237
Ni 0.18383157606647407 2.4811027163906325 11.144888586194014 -0.6575907438471191 1.5275612936846725 -0.039970369745350516
Ni 4.153581075612753 5.921310158078411 13.083862972830623 0.44210401679658695 0.5895812085763653 -0.11279738100940574
Ni 9.211297048515375 7.441925552214928 4.651944180215472 0.7126812570633597 1.4477228840997904 1.0905262067705606
Ni 7.606343240003747 2.162854878584146 3.3859632451035537 -0.9777625072125677 1.2541483837413174 0.7842363435935269
Ni 1.8518819133566111 5.289416952872529 9.436886764351996 -1.0764730711116042 0.32661906165268906 -0.08892700214971136
Ni 2.276088641442488 -0.15795195920079222 12.138678864680086 -0.6606860949429911 -0.22349674183920218 0.9390257527640021
Ni 3.2644598821911797 6.3855194061743115 7.67825498427971 -0.21391218347456065 -0.33135991877178417 0.8003494471053054
Ni 3.3924568112142044 4.787617770060646 5.616630328798637 -0.222052810303824 0.5989883608228781 -0.3978075088720568
Ni 8.962485271306198 1.4349314995012694 1.659776097649001 1.5761829113471175 -1.5177972723193731 -0.8183427983589325
Ni 4.719081789361498 4.268531485699547 7.820800730543216 -0.044351015311549426 0.8928947627338946 0.2984539120723828
Ni 3.643876036375785 6.666418567794218 10.125538822352429 1.4715377271312013 -0.35456592457460223 0.37293311422788034
Ni 6.597195928203689 2.5048759607111335 7.098359487582335 0.4618793996513013 0.9100540481220004 -0.6692483826907054
Ni 5.03614189286938 6.167171157889493 3.968085743610813 -0.44879119900877545 -0.45878481988637765 -0.34962066475418496
P 5.516357716473815 1.7238293092883394 11.050364422290953 -0.7316603692690238 -0.23402180974024214 -0.6309862538857133
Ni 1.7521400697964769 7.993813717400763 10.137123871350925 1.1762177327021097 1.0783800583263297 -1.50505025706635
P 7.7811907196021854 4.480560616348822 13.290293977680305 -0.22340392501507977 -0.6240363049304413 -1.4316174938974957
Ni 2.274102898162009 0.33931249117571693 5.344996422625265 -0.5765835107651167 -1.498536367207232 -0.6768274805895441
P 2.190005742316303 4.9839743754728705 0.04571014006526903 -0.13474791713856793 -0.08464020184889938 2.4404281286651197
P 6.065406454352048 0.5432325514847562 2.8212373424011647 0.24939340710030597 -1.407678466583395 0.9184690116585731
P 2.8608065249756813 2.5630099871232868 5.184577131002606 -0.13355646793362805 0.2707433335309918 -1.8646647998084533
Ni 5.281910100938383 2.367321482254028 13.051078722436882 0.36910602717230623 -2.0709685748081363 -1.4319285973800113
Ni 9.047918628237834 4.802483007141616 10.772660080350805 1.9450541968007984 -2.311975300506644 -0.2117398584135902
Ni 1.3980560611992903 5.593495491663636 4.443529287920152 1.597791747866145 -0.1172854986877464 -0.19405195421552388
Ni 3.832957769209059 3.7427827542572136 3.366541933486533 -0.9857516960656314 -1.0024360986998477 0.4748040781327694
Ni 7.889450845085122 2.9829111783767237 9.06228186199416 -0.9354616895618276 0.06047748855976682 0.2203440551428334
Ni 7.289116111360124 2.8774069676335174 0.9897130093391463 -0.48594029725524707 0.031095692963539995 0.19015776136744025
Ni 2.921510882643408 7.172337703954385 5.413947182411503 -0.9127493355659765 -0.05383478643226857 0.317101351970241
Ni 7.226769339857608 5.83887397441591 10.601526126270347 -1.2277326127519501 2.478588441784925 0.5366555642219274
Ni 7.288076843848845 0.36918679253787634 8.020251940553758 -1.2098104810558905 0.48304214977184556 -1.2571550317781255
Ni 1.9325086580485829 4.354438080515783 7.169809128982748 -0.007198831741284376 -0.6353126491752091 0.8950184939451166
Ni 0.2719995056371622 1.2544886778555007 4.108472226036153 0.8742599212415265 -1.5585263746076192 0.7451337211651103
Ni 6.360827523607234 0.24703017576127 0.5618707007986353 0.29970809619445804 0.24724345063683872 0.2989725035800141
Ni 2.1712710895906624 6.631417522682224 12.259305345629821 -1.1278156872496383 1.1600827748134601 -0.8881773026535671
Ni 1.917457837483457 1.7997051167858944 6.964490697120586 0.1796172668474326 0.7148011316198399 1.794882746018309
Ni 7.121627016908508 0.36982056013627224 5.381243660833372 0.1987395894991803 0.7312063124507407 0.3519966211855292
Ni 2.424880199865295 7.836847206500844 0.8684796703962205 0.16439607902230396 -0.1308534671801682 -0.03507884598100411
Ni 6.809299292246627 3.5901403385381507 11.46269751906047 1.0464022198681528 -0.5749014950770034 -0.10405537315071757
Ni 8.885607312994196 1.9169289245536099 6.713487178963516 -0.3953171383500353 0.01532017529683813 -0.34515363012176686
Ni 6.112470425934243 4.025101629530921 2.836923786399528 0.220563113132175 1.141807630653356 0.18774760926405085
Ni 5.074501999044614 1.8215482928711633 8.762155323498174 0.9363633754404905 -0.2706003801952243 1.9876800018911251
Ni 5.079781849168879 6.712294805077808 6.313906451307841 0.35022821643119684 0.6182222693518256 0.018143503678246173
Ni 8.07187941001137 9.04844754116768 3.1529260640477155 -0.9960592486392265 -0.40848067231518687 0.7270706930158124
Ni 2.7455591813142366 2.977018902754742 1.1462749482436032 1.1542407142103863 0.3205594857221705 -0.8753135593170216
Ni 4.403497074552663 8.751736666697605 4.498859147886694 1.5388587209753628 0.5593473493924883 -0.6128170391758543
Ni 6.8754598043485675 7.400057918189128 4.709514032835789 0.04209641494941782 -0.4711052891249434 -0.43069114697395505
P 5.301424204297482 7.896883463625607 13.11523493290993 -0.0358648322174092 -0.036150224668311935 -0.7476500598290609
Ni 4.659695074431285 8.034679200612116 1.7341319764113106 0.9894332586822768 -0.28150571425381843 0.8007101728788338
P 1.9023884585699156 0.9308681981826716 0.9352424009042501 -1.4987903921995671 -0.5772327143133413 0.4327410875244483
Ni 6.366970336932828 6.097800051511638 0.38367065555890284 0.6058886874871372 0.582776526949706 0.22781156716447218
P 2.3443462469154013 1.0621406757010656 9.148630145502688 0.7752261696751165 -0.3759644448550364 0.45740927969508965
P 5.5468769204434185 -0.4275147536909741 6.678298694532523 0.07614604833495918 -0.11965811268498103 -0.17308126550112773
P 6.864751637312714 6.232366635873817 2.629568575798744 -0.6616042358818864 0.27905776693395806 1.4706283279430543
Ni 1.9645403674140665 4.264541440790173 11.705214304487042 -0.18802091753009556 0.15440245814470183 -1.2606093088753128
Ni 4.364431751137633 2.3316059407280294 6.689135842089867 -1.268867949339679 -1.0720913971041408 -1.2596790837515595
Ni 5.1420822248003555 4.142529579131209 0.563526105477315 -0.4328567871667061 0.758429666943068 1.6483918294111999
Ni 9.528134451842268 0.5883191310432581 8.89461089572807 0.11308277346030848 0.2005481034628288 -2.115609610556279
Ni 3.9748641803696443 -0.08137557405054502 10.562575864615495 -1.5228970554397838 2.261386788925815 3.508865988177073
Ni 8.062071322873678 1.3677688365848817 12.909835772232158 0.10519745717496078 -0.3009347695127075 -1.1121239875459943
Ni 3.741966186926923 5.624654958653582 2.074309286623199 -0.31302563923897053 0.4735650635193457 -1.4222954451656213
Ni 8.51515484109437 5.261885642997852 4.365072014157974 -2.5294955130474372 -0.5242628469845293 -0.4437492657094938
Ni 0.6732644034115614 3.329840943659661 4.775978901851746 0.7108187499333243 0.635818385167034 0.7015758911788176
Ni 7.935698249337025 7.720365732669756 1.3592143658826688 0.20905074161720127 -0.28933086672519204 -0.07246988503495261
Ni 0.5483008364370816 3.070738562253984 13.455561637826563 -0.19200741298166935 0.5372551454791392 0.03428000422879258
Ni 2.540053310133077 1.2739285478209375 3.1812702295830007 0.2997813726345547 0.62356553594161 -0.6983180463631522
Ni 1.091898987385627 8.317109425976318 2.8221068010244394 0.24867941175241687 0.6669557300017868 -0.6941117215912884
Ni 6.674658474490785 5.415613722099232 7.300552693571293 1.587486252175079 -2.4715721583680916 -0.717140578386294
Ni 5.928668543225233 8.027747657478855 10.836844128346474 -1.0710884097609232 -0.14006238737294588 -0.277781985545328
Ni 4.55944287628972 8.770740415475274 8.69793044713599 0.6444164112486902 -1.338677513933649 -4.4448866355661645
Ni 0.8612428424315217 2.927894954498406 8.878286044544206 -0.1488175078577566 0.8643963981838855 0.11047798884760973
Ni 5.246008975928228 1.957061353002543 4.274392212129222 -0.4991357128995984 -0.45089333295344286 0.35496444556460155
Ni 0.11980805778460062 9.643938545956184 11.02635363111073 1.3674869819661741 -3.038495263225309 3.1319065263986188
Ni 3.1138496056236353 3.138188879570815 9.059048997700145 0.41202056714764523 0.004576563627088892 0.17991937146888368
Ni 2.09465294815648 8.460639692623277 7.674383712800197 -0.3034616496996193 0.9237243465202414 -0.3058933990695635
Ni 8.42535099311084 5.076432067279846 1.745281832139458 -0.49190088571405605 -0.8031933443120037 0.7678003095246906
Ni 3.8428957647856614 0.6094079102654292 0.22217590764555512 0.21256698230057586 -0.7057050828558427 -1.0260604229870072
Ni 1.3353659602510843 5.815518292934761 2.0992711931597245 0.2158705927525121 0.31431350481245873 -0.8487460932411384
Ni 2.5586394960713914 2.125691785881724 11.241028254326663 0.4898234343597371 -1.413350577267508 -0.14944048615373617
P 8.865109617169065 6.106513196092805 8.694725420364602 0.41286414609486316 -0.7326700414804608 0.173915588476965
Ni 9.390802673566151 6.97348500068025 11.10713348217713 -0.8906810429120274 0.6320062105097954 0.4893477802748992
P 0.052508063089936836 9.09131732600793 6.585906884862424 0.4557195506974926 -0.7514105553127575 -0.24682333238028462
Ni 4.958753579975946 1.907529121081062 1.7529826188145492 -0.4299599252348853 1.5594051776681466 0.9313443249593444
P 5.8010520603447295 4.823342590760853 9.569586378863557 -1.3485310096889613 -0.6236902344449322 0.029000243887091992
P 7.620215605444477 3.476888017331393 5.40731999619226 -0.06633780399528576 -0.5849599077542699 -0.5686043492143821
P 3.012808677674403 7.3990372090262655 3.2734031502927015 0.1749031492012149 -0.30230465327704065 -0.856931200155092
Ni 8.025696959978921 8.073633173936653 9.504411315062491 0.8980796493689437 -1.0925404089871118 0.9612405982981446
