# total energy = -340861.9758825888 ev
CRYSTAL
PRIMVEC
9.36502526168648 0.00000000000000 0.00000000000000

0.00000000000000 9.36502526168648 0.00000000000000

0.00000000000000 0.00000000000000 13.70666110173837

PRIMCOORD
 96 1
Ni 7.380164355942731 2.962120033509373 0.19639769099431692 0.5589791674197921 -0.34463735260698064 1.9173762712695561
Ni 4.682381525767689 9.264875691981636 6.854358456514958 -0.00831340496170181 -0.017975610641814205 0.11793444512565497
Ni 8.002713775940357 7.345392017106893 4.6596619744572285 -0.5087500960609109 0.6107259609747804 0.06566546051860948
Ni 8.763715729562824 1.4206368736981745 6.454891430522378 -0.17817590641521572 1.184287911304754 1.6047272986437138
Ni 0.6349974115894912 9.160577405524664 7.658020909760073 2.0887012162012093 0.6640583538493338 1.2364800199272772
Ni 3.4846416185741713 6.101463805270672 9.970759789364315 -0.5609905414228662 -1.8006682423518343 -0.856053425535829
Ni 3.1329380944750853 6.2517350007890835 7.515910397263894 -0.13236476161837202 0.8663437517182435 -0.1869258846937039
Ni 1.4518598679558328 4.816760273399105 6.627335259875352 -0.24251287793038878 -0.14292453941208935 0.46674752637688005
Ni 1.2567395664086498 0.07027421314038426 0.9154611884426247 -0.8691747934091353 0.2777202790694572 0.1251088513869071
Ni 4.58468558212765 2.1460610963113895 13.684620703004436 0.8245656393401929 1.5410593281711071 1.6769225898610407
Ni 8.979542101986937 8.535368318349724 2.7142062749949742 0.7360973219944549 -0.42946627342791843 0.06037001644762506
Ni 1.0040243594371723 6.514058723689882 10.894287074073924 -0.6548370923613819 0.03513001093391369 3.3541902217663266
Ni 5.431424342117501 7.588789023932489 5.297802288528084 -1.0036098072929749 -1.1609332957392136 -0.6334557984721284
Ni 0.9955583765910646 7.272588310640476 13.615251151305348 -1.114495058881332 -0.38437246641307354 -0.20947523074912958
Ni 8.417284714692011 1.0853596039266027 12.898598211362115 0.3603591342176117 1.0610958173245852 -0.07938769520070844
Ni 0.7053811955255607 2.799346529252517 0.47205627338026246 -1.222133778507934 0.24830171669802398 1.2107196231337212
Ni 9.055454996843737 5.206616910457309 0.9747492904361407 0.3493211312358952 0.08216654349742623 -0.7980974178463351
Ni 5.290134205835172 0.3971117221366106 9.235246625025313 -1.3641129232876186 1.174086802402036 -0.8521828868368292
Ni 2.635299381558636 1.464128051062471 7.038164871030744 -0.4236517236286704 -0.21076849563925637 -0.7680509920829159
Ni 4.183600279768028 1.2205156486556137 11.710724358292905 -0.5553773090011468 0.03333075294164582 -2.409212622294264
Ni 3.778862617552229 3.962136162130025 11.910745377565053 -1.331538846006339 -1.706098440094049 0.2431181156145555
Ni 5.084328410452359 4.746878454817628 8.02686711262 -2.2930805204846703 1.9317230269095311 -0.924647372555143
Ni 4.82642497948006 2.268284041139433 5.952748140449981 0.13850121353341308 -0.010073325075602007 0.34691997799357027
Ni 5.276929520201309 7.958117525593937 12.568103659997078 2.6081154768441857 -0.21372243606125774 -0.8420342284386015
P 4.165497685916781 0.6731926671623343 4.588030769154896 0.9504177966510277 0.16784444258222062 0.8998997332968179
P 8.628784445440347 0.8820561432965338 10.319087221852758 -0.12225826931198944 -0.651034173675524 0.8666283728381977
P 6.328706143501648 8.40772302388905 10.318936444945876 0.9241249243927697 -2.4257162763762414 1.2282676593198136
P 8.187345249182629 6.493877094228198 12.938087713427585 0.5434905848658899 0.18328957349269723 0.44165407374336196
P 6.143952924930838 0.5807345821570608 13.24729649885134 -0.2567066529322676 -0.12717241878415517 1.6573310408823587
P 1.8057173478675344 7.886765398044717 2.347526202480517 0.5582340617236515 -0.36083144586833993 0.03239692827346678
P 6.328453287819298 1.3328865868972577 7.406874344521696 -0.2978216778050226 1.117240482836953 0.7381053535634192
P 0.3522401400471855 5.309828853982698 3.0143281763970733 -0.09846553776776591 -0.7907083244711156 0.88520382184754
Ni 5.454743255045386 5.460867981573434 11.641313600482622 1.4254604731571645 0.9647339561633836 -0.4435052680194878
Ni 8.506439755283765 4.291962987193151 10.007123245993908 1.6403044244173752 0.05389932112161685 -0.028712794553660225
Ni 6.793342507358713 3.392143263960227 11.81455252048121 0.01872868675775484 1.4943863495946006 -0.16543917557483767
Ni 6.4116147122368154 8.882183299256697 3.5358252276970883 0.3888952939840915 -0.3852911215726009 1.1723916740878002
Ni 3.8352681647669487 9.189524698641168 13.66341641278302 -1.1315317026486449 0.9330337968466255 1.7413212678520849
Ni 6.9082700974996785 3.3351664502039005 5.191973756941629 0.7710015900708077 -1.0861049377744134 -0.14301761334652788
Ni 2.236639620744524 5.767993985376643 1.2744188611175902 0.3624065036649436 1.9768273754473376 2.3053878770971137
Ni 4.962882762721913 1.260607321846086 2.5571557376819865 -0.29873621919949195 0.12251306563527288 -0.5669102493414108
Ni 0.33574364803012946 2.4260847169767277 11.569586871922512 0.11400837059837139 0.9667687272052254 -1.0497248564834825
Ni 2.416457470996862 4.676331719441821 3.989131783979793 -1.0010919259671274 0.9387917823763251 0.03258256192171163
Ni 8.721498195635553 5.3802819391057835 5.77608255770428 -0.4906919530076194 -0.0055145020603259865 1.0069409285487367
Ni 4.76767817594728 6.200264821892836 0.22145849862283917 0.47270862905632133 -1.1303605651586792 1.8246286098221738
Ni 6.960938999630774 0.01463472499293414 5.893905813659423 0.014425174286394511 -1.0557620638164977 -0.07612959327472694
Ni 2.2163456109795736 0.6030111677721453 3.732063713261777 -1.843542158897225 0.6257702569024126 -1.1453485539270791
Ni 8.261431964111342 3.3465543209349478 2.573466802198652 1.298000090818945 -1.2930139504582634 0.017811574260124162
Ni 7.58683173365059 9.239562028670763 8.525872182723667 -0.07928665084646991 0.6780502972530515 -0.6124686546975
Ni 6.881251999589258 2.710088473382769 9.684002715528235 -0.7133476870027651 -1.3220563604372007 -2.1152103182353312
Ni 1.0939566971265218 2.740056554253947 5.326641883853957 -1.0697941164295317 -0.5063651407685021 -0.7070700815241694
Ni 9.222901648711442 7.921050755566399 9.449893004265123 -2.166409209706649 -1.0850374157418474 -0.17343324952390776
Ni 0.4148631275401472 8.791632869899379 5.510831327903378 -1.1618105561378442 0.5231354182483056 -1.6326453652102204
Ni 4.097947758628093 8.472856774657501 3.1537790217159345 -1.9961523010281945 -0.9642130506629072 -0.10418624230162701
Ni 4.0588113180153895 8.221106165289063 10.69352621780527 -0.477982475860751 0.6946102584942618 0.1396163009744628
Ni 6.831121019306941 7.164731314580053 7.183222556980098 -0.09633897834306634 -0.5760178680696338 0.15323929107453607
Ni 1.5674430098658558 4.474918120911691 10.189038861907228 0.35453661399856357 -0.9607549169109776 1.0768772485285583
P 6.103233795047125 3.0214849287101213 2.988449802062284 2.216434649695157 0.1947556651507678 0.9849783082347165
P 2.2359278788238335 2.461222291798183 10.375476848524515 1.2769700096215233 -0.9076786059112885 0.44407168204591907
P 9.05971608334261 4.519205325424128 11.957650106641083 -0.2148434370395784 0.3909789159859976 1.439044382489186
P 2.8268047833507333 3.8809975831713115 0.8634197430047703 0.1685772069831871 -2.3558236651501616 -0.5553369426815146
P 3.017776378702313 3.452435296662927 5.735017858388021 0.173665677249688 0.27815710949655964 0.6779299696251034
P 6.437874243100185 5.231452957479297 6.192066678769514 0.28113084741290295 0.17716829108630777 -0.24615227445518897
P 8.90214953313712 7.439885122103825 7.027638582624743 0.41869437962339506 -0.46545297593517254 -0.5474331144534056
P 2.231751077552413 8.5802829795554 12.426198241554362 -0.11051578406408064 0.31373320682895645 -0.6173938599132593
Ni 6.772936117290495 4.966300996946281 1.6092718952443292 -1.2836919017263893 -0.051909801495413826 -0.6588675536770137
Ni 4.595277425710558 2.5447395871760468 8.578162737833765 0.4710104154182921 -1.5921111525416 -0.7022950287330293
Ni 2.6714109190084057 8.623549396313162 5.497960973671733 1.3849936233913696 -1.7285153743366681 1.278449165270211
Ni 1.7745692738120542 8.537007197772365 10.330697043682758 1.4090174971097926 1.9330052360560646 -0.8120137708171113
Ni 1.578812150546359 4.902487714741217 12.96252668337803 -0.20979121932765157 -1.0045510881603215 -1.0730622456578423
Ni 1.148030353048453 6.923638103971429 4.334375313646086 0.4618279775880756 -0.6587549393585493 -0.6237480842660612
Ni 2.0615792033304854 1.5760213730152304 12.896185780851987 1.2260441693059336 -1.1326074522113267 -1.2595602987855083
Ni 2.765510692943903 1.794292017035398 1.5391344114729197 -0.16401838396791107 0.5345904541627825 0.7200783208583792
Ni 7.458390412041778 0.914593987102415 2.1518636659700716 0.057442815498501075 2.1681881559839438 -1.5733510983252774
Ni 7.811273929325166 8.746137577126824 0.4165385305613515 -0.1013045498784578 -2.314848251179065 0.9555065240278448
Ni 4.198153529041093 3.7407937898205614 2.7415512122873964 -1.0506206288248745 -0.7770349407490812 -2.142704667000858
Ni 5.554096808158613 8.17862641065417 1.377341425362068 -0.30685164921777475 1.1061541431158046 -1.2909807220783185
Ni 8.39577325164167 0.9484429344464101 4.310347468305092 0.5457495561033956 0.9935588508148759 -1.2238641309354794
Ni 5.0869974426549485 7.293612792376662 8.774977172452695 0.12917839347059043 0.12922904420286774 -0.8748512749686225
Ni 4.782933802115763 4.7152902245743515 4.758719592771851 0.926124728431618 -1.0981996641554184 1.8995081327398835
Ni 0.519034049653415 1.8826042053526497 8.876776870167031 0.7406322337503309 0.5082793270720795 0.1735209241417076
Ni 7.187694356547593 4.446888600271867 8.302590313680323 1.1256757580885002 0.5989729342039103 -2.910699351924542
Ni 7.1350629145175875 6.27564391030912 9.845466989252031 -0.2073065052325849 1.1481382008570744 0.21623311829825342
Ni 6.599074423111304 1.1415872156611497 11.270946517518484 0.1546179165896176 -1.8578297791644907 -0.3242377059047061
Ni 3.3509933429139913 6.3167470062289945 12.23307175388764 -1.800058119571661 1.9361486667810526 0.5544907926311354
Ni 4.4924119881202405 6.092538936186225 2.930388518379432 0.3521966530114773 1.02176333827355 -0.809525971398251
Ni 2.5322934685892355 3.4317011307101812 8.277946249676416 -0.39995746533552406 0.7311821440810246 -0.008725809908772069
Ni 8.174945955722178 8.34609179257242 11.803121570633909 0.044505024390910454 -0.6367234134798068 -1.5134523650871161
Ni 7.4587275529515775 5.16228288081851 3.7812291594385252 -0.060391613714179865 1.2091983013931886 0.40775690677528487
P 5.649676256087125 4.243227395676399 13.622296459817656 -0.5863997255245901 -0.28138332974334124 -1.4706861777641833
P 3.493201251673001 6.3547690088343005 5.234327083735349 -1.4395264643319272 1.2503130691556275 0.29169833851610405
P 2.9818146816569 9.129972502934976 8.247434997339449 0.028376237149847904 -1.2995661497544844 0.9876897936286086
P 0.9031508627222613 6.074417612284434 8.871458472314925 0.9390704899590084 -0.6047345192780359 -2.041749530042019
P 8.937802184348548 3.311604046618937 7.5027113306451945 0.42193345538598304 1.3686457781609653 -0.839771914766986
P 6.714610739894965 6.953128568553724 2.509456854462871 0.8146974882968615 -0.45719613524301905 1.4945778967801164
P 0.4647112840592423 1.5100915950986398 2.593396512480512 -0.42663600306797494 0.4542640491978886 -0.6938319855673406
P 4.891427619894698 4.01898186553254 10.016375890962884 0.8570504993417757 0.775165234530194 1.1655219435511606
