# total energy = -381168.23770270485 ev
CRYSTAL
PRIMVEC
9.29937348418594 0.00000000000000 0.00000000000000

0.00000000000000 9.29937348418594 0.00000000000000

0.00000000000000 0.00000000000000 13.61057308918298

PRIMCOORD
 96 1
Ni 4.486705896780055 5.125693743348881 4.43985100374763 -0.607815729306521 -0.570145982669889 0.7046043935924962
Ni 4.545496535611253 1.4535292647693134 12.713378003825579 3.507421542421062 -0.9463901635488734 -0.8120667355422336
Ni 8.080346466107704 2.706898815808366 6.865390766837698 0.013865959348814832 -0.3997044687844536 -0.8710193028170418
Ni 0.4450615028494089 8.179803264952952 4.292026303812721 0.8914606013905293 0.6090102638352544 -0.04288111563424228
Ni 4.5200348511569945 6.16491732301735 8.291493389546767 -1.311420220879593 0.17647203635023154 -0.7534054742555992
Ni 5.598734271040338 6.278695156946441 6.185746989565595 0.6482820648516835 -0.24631373973371773 -0.506200847276496
Ni 0.12528394867534817 2.9632081463154023 8.869343435430396 -0.5421129877920728 -2.416328150293122 1.8515760849452951
Ni 2.731942028458226 1.4708075006042336 10.690615492593864 -0.4772790220358232 -1.8686667218789945 0.7245924066786489
Ni 6.319203227612163 9.264537978193056 11.442041133380364 0.5820252506059782 0.835208977986652 0.852018593344823
Ni 6.619015027029725 3.9535728179770513 5.401682407910739 2.062843631708157 2.032780750884506 -3.2108576482825413
Ni 3.8229724175111626 3.427823441678313 11.031152038078092 0.9202631274445183 0.5767552604562906 -1.045872829727244
Ni 0.34628355826462764 8.053480576265354 1.3290339029609197 0.2507663761884326 -0.5312493056046915 -0.32555411072328444
Ni 0.7341501947636091 7.653616818102955 10.607563718418357 0.5159216741086856 -0.1443072786922289 -0.6796490091987392
Ni 1.4553240438415092 9.02035503064013 6.846648809624727 -0.410508501378493 -1.9074942362691536 -1.128448692847947
Ni 2.8170777922196337 6.1940615593503106 10.283074171726776 -0.10071242482041363 -0.21094255932327544 -0.28078554825834223
Ni 2.608492846160827 9.221147101763703 0.9899768877895733 -0.7980071721253741 1.3519703743878135 -0.6339785037448178
Ni 8.55844585294566 8.337557835837552 12.248453969264757 0.665198638101364 0.38961725975178063 0.28616686717491363
Ni 2.421138369645144 3.610611925839343 1.1401785075734623 0.3374585754703543 0.6167549407776798 0.5318496581928518
Ni 0.17512766032851793 4.627758792982461 7.519746757938703 -0.5223136936779585 2.9582809583582472 -1.9148915571744891
Ni 4.270337375159446 2.0301555131094124 1.433887128208216 -0.7429590821112947 0.03441807246855363 -0.108868992489277
Ni 6.1718453562234945 3.0447636513058494 0.5694741002342661 0.6046782121188037 -0.1020177738953985 0.16416210863462696
Ni 1.2538252203371747 3.2922757745470976 10.942546678089554 1.2891675801289797 1.9075988801678176 0.506153024757696
Ni 3.0706066100707816 3.189703685602441 5.771441304464749 0.23197906827860051 -0.6087251284946678 -0.5218460100129206
Ni 0.07423968791222783 1.3916791320792947 11.008095171593107 0.5989166270446782 -1.193401443570248 0.7581013370693718
P 3.578064118830613 5.019652988114438 6.5872725457601256 0.6157653231709008 1.3898085282815096 0.25703549702659606
Ni 2.860040897471158 0.748038808982906 5.423486648794559 1.0036404034205941 -0.008257612023101909 -1.3527525039694768
P 0.994065822287213 6.916846059906471 5.97968310364395 -0.3495723280147528 -0.07755732686018901 0.7758825723121928
Ni 9.16031060077767 5.467548010048293 12.020272453574666 0.5677592276052673 0.5961151530401412 0.08256737848027071
P 5.058682458404621 0.5851109966586033 5.504020152644933 0.41202185269922587 0.26758730440051337 0.26713504735444316
P 2.983229697312487 1.7040636843756578 8.617697740699038 0.28493068077496736 -0.1298831328470989 -0.5956104454895808
P 6.054254779187667 3.109226907929998 11.278006695617766 -0.2504840690613235 -0.14426099883532575 0.15542524298226137
Ni 7.935629616773456 4.493038770086611 1.1985962415300748 0.9666154894568127 0.00958970057096413 -0.4687725272267088
Ni 0.2982950716109555 3.7003601788225597 2.652769022940818 0.2992159870493879 0.26466061767202165 0.25883321235696716
Ni 4.958844385248698 0.9826647904607262 9.395827462230189 0.2565703844647194 1.1739196806965524 0.21795421475441817
Ni 8.222059617823716 3.4806531821401983 10.990238514730777 -0.6851501415226264 -1.0318302355912488 1.3513543380703696
Ni 4.583968043495573 8.380465144848491 0.5486965101772358 0.5351535257551042 -0.8139156158255144 0.23161088630590437
Ni 6.792178659689602 5.013087630472104 12.308898966629341 -0.5350823061975365 0.025542881466110848 -0.20243297919036748
Ni 4.5285809753401445 3.562636458308474 8.693712678999256 0.8407931569426487 0.15426876078031496 0.24573087064705423
Ni 2.215687312432607 6.768967423605662 7.831333423994681 -0.651504428443723 -1.0894666551577947 -0.28311933859784144
Ni 0.429069370360005 1.0550697119950048 5.00213017875828 0.3414486704663539 1.1331352996903388 -0.8512778585240564
Ni 4.505704516699722 6.171389686925371 12.505435644470857 0.37865484720300596 0.7226895332289811 -0.5241718299326198
Ni 8.334479743231869 8.321256034212894 6.363446856585146 -0.5547777277439349 0.9052088042145572 -1.3119665803013663
Ni 6.989018497104972 2.584807342031903 2.9476549442519446 0.16640925279759083 1.070084136866125 -1.8611560153242463
Ni 1.8854944600157522 7.131168719372244 12.908648107005785 -0.15245304772781487 1.2190160588145584 0.16169642070295379
Ni 6.536669075297637 0.5323398422493341 0.9249324203259833 -0.5074236639400035 -0.09403526991055418 0.5232657731785827
Ni 0.9950236577506126 5.318041983397047 0.9302767702368169 -0.3379694536685018 1.7538872774425538 -0.7070230303363179
Ni 0.1442741991589277 6.473182252883752 2.9150578505640294 -0.41854139898529846 -2.4635181777153634 -0.46777468208981376
Ni 3.9738826495504984 8.214759609680328 6.91764208627217 1.32943285540693 0.5782770964174557 -2.1512651549763597
Ni 5.907817545768673 5.482482803778584 0.9658143258036349 0.20462381619409922 1.2137458115545547 -1.9200461047922355
Ni 1.162616965725281 2.1434869771138114 6.879409572285029 0.4030649006162542 -0.3059553626557505 0.18412955289548935
Ni 7.272677284872773 7.855720100880308 2.3963592592007257 -0.6838280802770933 -0.7838401365963726 -1.0229987533425478
Ni 7.480276497347887 1.3663569382265024 4.665541217295539 -1.4920021656331401 -0.6203966512953251 2.556525777692352
Ni 7.830676888230447 0.1445699192340356 9.907625918507641 1.1379108667021114 0.09810018400854717 -2.180336875531335
Ni 9.0584824617075 7.318783578343998 8.183357485478306 1.2212619174259418 -0.9182903199888637 1.791272660069547
Ni 8.41579346451311 5.6703766439532695 4.9411011807422245 -0.8267284513194666 1.6220161676311486 1.2048027434286541
Ni 2.332729226436001 3.742802519161944 8.113711688041024 -0.13717426719187345 1.2016006915515887 0.5304656333611316
P 0.8998650293052022 5.159952635068928 9.512197961471857 0.33369885131760596 0.6298526545019024 0.7872902999285022
Ni 3.5504263809934855 5.939249427965676 1.0645169454636245 -1.6026547323854012 0.7756074642739352 -1.721346881612687
P 5.4283697497832115 8.154992536638868 9.674830983658396 0.6941847409210691 -0.8937941346197122 -0.2571583957577055
Ni 4.341868155591205 3.835033704851255 13.175728901758024 0.10312411958569981 0.8672976309910805 0.9142732284096706
P 8.13896041684371 6.567459300727896 0.6130081870144577 0.22496509885461258 0.3827629558341086 -0.4051564930379603
P 2.3893159137640367 9.234054632086023 12.400348075013099 -0.9153566912818365 0.2622401811559871 -0.21040391321098603
P 6.844376042758174 4.6246807003767785 7.367988423042453 0.03594865018046712 0.5491560106817832 1.8580498655950968
Ni 2.964128784285078 7.280228376098799 4.740780587851606 -0.4773222165689328 -0.6734955880028336 1.6504291715562027
Ni 2.987581804078226 7.612392695683039 2.538535519713605 -0.6259736311624704 -0.0007816153610309119 -0.10586260156278543
Ni 5.508121176328033 5.509385891114657 10.126879105766564 0.4931280732529378 -0.3322009266158408 1.67849661921638
Ni 6.644764992060347 7.332797734104614 8.03180373679754 0.4158180865168645 -1.2976013127186297 0.7305506811446127
Ni 5.131096679312331 6.647870982786323 2.7267009015924777 -0.38277581134991495 1.3298534878841164 0.8802904437063226
Ni 4.9101156684699125 0.5964655316179347 2.988296925895075 0.27836485463199157 -1.6251174322642914 0.9941980270607716
Ni 6.5301874120161845 7.762512480980735 13.089165684174949 0.003944329359728691 -1.929477168298148 1.079361962623625
Ni 7.586056870126261 7.175294246302652 10.422296021300607 -0.7943166106476642 -0.45171737151663494 0.2611168661848213
Ni 6.533321300862454 0.21621508195899608 7.613251027850727 -0.5575347216637817 1.7713928904264846 -0.7738817398320801
Ni 3.3729292403147317 8.54511055144551 8.993362669319119 -0.7389345343329338 -0.13726399869220232 1.5037767896705652
Ni 5.546016123059625 2.758770720806851 6.698579536168581 -1.606083555561292 -2.866079142112006 2.1076682442220154
Ni 5.068762979203896 2.5253657470605297 4.381393282485264 -1.069668646595261 -0.119046190132595 -0.6188701873484697
Ni 8.463052880289785 0.5158102059756146 2.783784175461732 0.7144630315541308 0.40459162167342577 -0.9984724860664094
Ni 0.3159536518192064 3.23732577694293 13.419766779085428 -0.0918817139026611 -0.19759287748924678 -0.6621909616232918
Ni 4.2523895844374895 8.6583490217156 11.517838466342296 -1.8090559521948975 -1.499556323831314 0.08287411108741212
Ni 7.581862852708849 1.6380474323885215 12.665768001670552 -0.11326737866728881 0.1592397316323451 -1.645432746782876
Ni 2.3284143171639866 5.062978768929773 3.2721045036377725 0.471170338034924 0.5883059414083674 -1.410685628840835
Ni 2.4623252945713348 5.00004060954832 12.297656024151182 -0.8695162359089542 -0.9666309160757803 0.7098075350599904
Ni 4.3965949682330265 4.332819865242778 2.21663119883586 1.1975740868906988 -2.460753470486033 1.3051526427033264
Ni 1.1403356669844473 1.7609665504003498 1.688786673703103 -0.5805818332912324 -0.45898485171232567 0.6155786610813915
Ni 1.2214355026767723 0.36567368180574295 8.909549276459607 -0.7860032056859625 0.6551250559154459 2.103459091236674
Ni 0.4310380477153616 0.5939751594130953 0.02397099489325839 -0.671536921614566 0.06372170652867735 -2.6191259690220767
Ni 7.891569185457066 5.023437833100881 9.450556134746694 -0.06490775641697855 0.9189510935013141 -1.5672228739403524
Ni 6.817221872339462 2.620042667962211 9.016282835014666 0.0858229093030909 0.2614991892249045 0.3493139321470436
Ni 6.774733035132923 5.0261532501427535 3.1993964225296416 -0.06373430493416765 0.12848008185198517 0.5134174196295932
P 2.0388597266408897 0.1835575423437791 3.1441376857275625 -0.6959891411196595 0.2998489926476965 0.8696095669537088
Ni 2.435124627285467 2.328897884582402 3.4066580677492073 1.3974423906776836 0.7142861396566343 1.2598467196776755
P 8.136300796042425 2.080809200188428 1.0479054747037115 1.0454822791570444 0.02812941124636446 1.1770325152939214
Ni 1.2577402565516536 4.8579182854013405 5.213148770843996 1.1889675761686103 -0.4326801523795258 1.335925405109809
P 8.63130644377806 0.871052780603731 7.960837428333047 -0.07564571165977295 -0.12233488818619574 -0.5020999377342449
P 7.532762160992823 7.630563671367342 4.460511421699429 -0.6525380119145601 0.07122727087710312 -0.2653226767360527
P 8.854909877928037 3.639784060292597 4.602279439718684 -1.2977347529727004 -2.0943815544154383 0.6836884693754354
Ni 2.583905302809089 2.0861098430441354 13.064816204783046 -3.130786810971879 0.43669364441429304 -0.12585627107589292
