# total energy = -340896.4653133888 ev
CRYSTAL
PRIMVEC
9.00199116094364 0.00000000000000 0.00000000000000
0.00000000000000 9.00199116094364 0.00000000000000
0.00000000000000 0.00000000000000 13.17532399925615
PRIMCOORD
 96 1
Ni 6.358790526079765 1.8770591941629504 11.434349909176879 -0.08340015879421121 0.4314725052246698 -0.19761010388042743
Ni 4.5252289533280985 0.16546559999189123 5.874165629978167 0.14203853726271023 1.2554817578407604 0.17336820061392724
Ni 2.7194655293591405 1.4983094169985507 4.764447867107791 -0.10299016511099682 -0.83516526923291 0.3082192189892627
Ni 3.2626726835025877 4.518621491797494 4.861681074506323 0.7626874137781575 -0.7910865337461408 -0.6263050463599601
Ni 5.069390318537273 4.597884024191194 2.667766193778191 -0.24689300927595545 -0.2853536272449989 0.18604373919906667
Ni 7.1561058874247285 6.157848078823413 2.7707570747393597 -0.5955813920238582 -0.3479085671590847 -1.7771326211237393
Ni 5.234837914546792 4.444445084423946 11.691387364310359 0.3096945179832086 0.2850612928155607 -0.6522796160468508
Ni 5.713842867550901 7.679706704764827 12.317083364488605 -1.512216692907802 0.5841723788559682 -0.023826670105952512
Ni 1.9454473212038292 6.430761445612715 0.27289896360340454 -0.6676393863323727 0.5780037881514111 0.4155864301220326
Ni 2.6067696017002273 1.511578352006877 0.24741162595817082 0.30505521943898434 0.12030577357130895 0.8973911079423512
Ni 0.5649235576808188 -0.004834069266941167 4.791680690844011 0.24543416534224186 -0.26138631779612403 0.21140124412724884
Ni 8.594209987370576 2.3573604338978593 1.195209673164865 0.26384249264610043 -0.002478286337163474 0.9460479497181062
Ni 6.666073495217636 0.9393577802705972 5.0299435931597385 -0.03345390878307142 -0.6911138153052291 -1.2384278876822672
Ni 0.8517540028438475 7.469798274287111 2.433060878379215 0.09882857753413947 -1.1661518638256754 0.11925984880529782
Ni 7.595673117042489 3.9122743714746706 3.8117266309214126 0.8307162323226209 -0.4194515695043937 -0.6769820038895372
Ni 7.601119321710086 3.782348632685542 12.597191122633847 -0.32374353987710697 -0.10061729400344607 -1.0003195665774771
Ni 8.05373043655652 8.733326759160722 6.845160908272349 -1.6223640378888706 1.0424522340814693 0.01819492574147189
Ni 6.7801647315103954 0.6003544947902298 0.313397121551477 -0.2922336421942838 -0.2767946819313943 0.7603248270832518
Ni 1.9893320282361164 6.497601230169583 9.157073889468013 0.2665570633637861 0.42016942150702474 0.09413117205847014
Ni -0.20980760817643274 4.884399399662709 1.3890612519639174 0.8271819939171173 0.02178084332051733 0.005543812636364646
Ni 6.38469825671339 2.102451049480777 7.045846798779896 -0.041373163630148105 0.19035830741402054 0.438615029806722
Ni 3.3622437080121523 4.287450358138184 0.4458686234480372 -0.14207067605222629 0.4133292586567397 0.04042879743900779
Ni 5.995992277297153 5.7177137237609275 4.854092395936432 -0.480457676874121 -0.2726336085751692 -0.19426844110170413
Ni 5.136113077208721 2.773207416740219 9.387536566420973 0.8706467499689715 0.1682275369532522 -0.22687799960660926
P 0.1465164085451293 5.398584134222136 12.306425006924252 0.8908527926032012 1.0351487584415204 0.8474885666849534
P 3.9675555993485734 6.1338397683300565 12.48182790498649 0.5230765399859121 0.4341166277157362 0.3139327244342722
P 2.366101367339572 8.583938715427223 1.266053543401315 0.9365991456003806 -1.1813763940849138 -0.2804525903989557
P 6.337572832854103 7.782689483933928 5.743387402623715 0.534103744334351 -0.3211341272787179 0.2121741177375314
P 4.610279766054468 0.9176359755385134 12.493724936538053 0.6540536772281381 0.07229633557156583 0.8380531323036663
P 3.9852985239763963 6.092772684539023 8.198530165382458 -0.1503074621397218 0.5849575937614249 -0.965206524924428
P 4.735479459470888 1.3008417383400377 3.9310030141373726 0.3337561869181026 -1.0858254588607816 -0.6999825785497686
P 0.17704486125458474 5.575482263020388 3.5272322024711795 1.3353481924501003 -1.1721875284967942 -0.5515013709855082
Ni 1.2618181065482499 0.9372423123418614 2.605683961563183 0.23752622334907478 1.451858760645035 0.36676966572964576
Ni 1.8355240068302379 6.693628590238319 4.742141833147728 -0.021077132385273378 -0.43450075052803233 -0.014772016102851978
Ni 5.950568229772039 5.448914266943678 9.06596653707163 0.19847836541799369 0.36355758655025133 1.398514797806256
Ni 8.490651080765563 2.2617322815278107 10.185987979053627 0.35821534840173147 0.4417957415275488 -0.4043530233000585
Ni 2.370269289258741 5.108810037941249 6.8797987699582634 0.00017432079433518367 0.3038432014087541 1.4696924463923462
Ni 0.245450992277836 8.94996867904565 9.11512371034162 1.2318682321868784 0.00731838803828417 0.48895080194679663
Ni 1.3519640462859575 1.2001994768793258 11.268090333562373 0.5922145324341542 -0.5073742987593067 -0.1327727956900681
Ni 4.14020478830698 6.650725100245317 1.630868238209616 -0.0032969255837169025 0.9926227121538518 -0.7064363045949125
Ni 5.627495768093731 7.77824250028799 7.858843628771064 0.06836640438954032 -0.13145356265801234 0.31074815605870354
Ni 5.358138187822943 3.196607070187725 4.800218179284919 -0.3803216933824676 -0.1837891388369351 0.18366803987803854
Ni 0.7572781053456211 7.374647227449926 6.941037515599134 1.1463230020252064 -1.4277580109420895 0.6223090378266896
Ni 5.14303560843084 4.570923060588794 7.075399435644776 -0.10339459963826708 -0.6345888836353071 -1.2047142974799059
Ni 7.991598693389987 6.98084612102235 9.0421724739685 0.793944057799594 -0.15043241775336028 -0.04676296718715172
Ni 4.629958118787304 0.45910515128809365 10.353301687836026 -0.4666727072748866 -1.0372208104792007 -0.031543579134236
Ni 8.189273417845781 7.060792804746195 4.569399923680105 -0.26107264321044715 1.5791335093350094 2.1222114321435126
Ni 7.384162332133645 6.123748536210428 6.910997871011085 -0.5942233353340669 -0.33659417058753 0.08904758688797568
Ni 2.2528293122447476 5.1162996946080925 2.5690962685863563 -0.5429923050732326 0.642626666338119 -0.0854225885408787
Ni 2.3579635673073285 5.173480342622264 11.375917084188718 -0.28623448718805544 -0.16703377375546716 -0.38177668066143927
Ni 1.2548145574054563 3.1970661717382165 3.779552614223136 -1.5327577502839473 0.3851119156822594 0.35588335783444514
Ni 3.500037187097941 2.6800458099551645 2.778214324237933 0.41637678723381194 0.3823785759114963 -0.55406013285162
Ni 1.158151176049005 3.323238080202737 8.312825746875143 0.2521231473266432 -0.6899851010174246 -0.6297986613355153
Ni 3.653845208503819 2.564001141575018 7.011670739241828 0.41286877408055345 1.0102527665307892 -0.9970833190283668
Ni 4.19590910976663 6.895552254533956 6.083495232422617 -0.9188544200224498 -1.4618351551314566 -0.5772908212447864
Ni 0.7748697965215177 7.299336569186928 11.224809660138673 0.36515681271657113 -0.43448712368127757 0.045960268780198266
P 0.48648740807800356 5.416975202215359 8.16210000725139 -1.1098894417885208 0.8133594862117283 -2.5275977818040922
P 8.435864962406898 1.629081342959173 8.013824609628493 -0.07734855328349259 -0.26425489759317067 0.03418230230866372
P 1.902759878999295 3.2392224964627703 10.383077574082321 -0.5208561352958256 -0.8486321933710933 0.17615656199234178
P 3.8170333047256246 6.261821077022986 3.760738452644166 0.9772958519887941 0.12114678141536554 0.25351308569563435
P 6.928796607984261 3.805222692289448 10.230928619652044 -0.9780301590516576 0.584157980678265 1.0809851000493447
P 6.1927578006431485 7.599444951349469 10.024682199188836 0.050918127006105866 0.1407180186790738 0.9103134724309742
P 2.398940631186502 8.48117198404659 5.889712068756579 0.17064334548359644 -0.10961049864099187 -0.6703796680816713
P 6.796557357460302 3.8916057997113613 1.5462558224540106 0.4596751929111309 -0.5294163661610108 0.41597081004464487
Ni 5.121349811663501 2.8214130795418386 0.5484679177926094 0.6053829514953123 -0.7419190708825545 -0.11970876341725836
Ni 1.4366277733913237 1.0411973065590618 7.076440065825892 -0.3100868683256208 0.8044482997650274 -0.16099888041529692
Ni 6.763880129454723 0.5310364620598257 9.181738445118834 0.21350800605760648 0.7222475605955562 -0.5540544764246651
Ni 2.9339109633946574 1.6039567855587398 9.014714600452628 -1.3648397741513139 -0.013564626058312124 1.6604778140414564
Ni 6.4498366649360825 1.9287036175976644 2.535419819559118 0.41675679628105 0.17502167705695018 0.785732211412763
Ni 4.119734260349766 6.939157899839474 10.280534092083103 0.001973321676286924 -0.08352305752532067 0.40551541903927585
Ni 8.108390527038582 7.1738038020966215 0.12946393664128078 0.23659934065943122 -0.12382047159278677 1.0757685888454118
Ni 7.752586825407576 3.787866853282628 8.192653665536165 -0.1129786437822764 0.5481769345979656 -0.6177643558788005
Ni 2.925764161371228 8.357880712761625 12.113287286026258 0.6605513691373398 -0.3078145273516763 0.5624655833064958
Ni 0.053653667867453896 4.820782327950468 10.125934795651967 -0.019841460205959376 -0.5572465009994015 1.1837821753129292
Ni 8.547003545590613 2.175187138264547 5.786312497395562 1.337898983896412 1.4586919815167847 0.9765358338943181
Ni 3.69443518676199 2.6939538863377046 11.557236090858469 -0.4489840317458719 0.03728202427990999 -0.6400061979961365
Ni 1.0931297937117315 3.343654596212835 12.583712441230883 -0.17942880498571034 0.1674001559559504 -0.2580508256649878
Ni 3.2402397214668013 8.43967280467862 7.937395003861062 -0.3483973338700451 -0.8726750932529099 0.6038899118895535
Ni 5.682191866540537 8.033124878731513 3.624123334204639 -1.18242797527788 0.14576509418467798 0.3236617787965781
Ni 3.0862966701931307 8.336302939888517 3.358640210940352 0.49804762204174235 0.333996842173999 0.49935271400641096
Ni 3.4205316009422155 4.306939669056113 9.227496466516952 0.12559299011217726 -0.200024626859191 -0.26102224958848597
Ni 7.2492494902274105 6.13531609488458 11.326681593595408 -0.062271090125079843 -1.7668628637666153 -0.5484720972408812
Ni 0.4028508081669725 9.122707887915917 0.5254678303120979 -0.2664012545122122 -0.3582189479461573 -1.0343607153225864
Ni 4.599495380613508 0.573046054328046 1.6772185906277788 -0.36479480139146203 -0.9138176289294907 -0.12843765864982395
Ni 6.181721359448978 5.638163127649272 0.47607480487302994 -0.7550545798232481 0.4124985352253283 -0.015952409564198335
Ni 7.849421244596563 8.524498567625338 11.256087978713932 -0.4167799362095016 1.6112270474354444 0.004715146087482202
Ni 0.17819171493169517 5.085116797139407 5.81967207633305 0.03956953476250604 -1.5581026568066394 -0.5900933723260934
Ni 7.9163060391093625 8.710182639821232 2.6810864401362786 -0.5843454140987226 0.8116299051151312 -0.38105857154849215
P 8.418284073620423 1.572269776583632 3.780869605533664 -0.18853745215519788 0.3065747414073043 -2.1902016841405567
P 1.7725910864481418 3.1871639814334953 1.5888127357863466 -0.7810903417653773 -0.4556416462717056 -0.7059344252578293
P 4.823698973094768 1.0257948996396271 8.054721555786111 0.22632109866187475 -0.5252486079365664 0.23121827885317597
P 8.411406552354235 1.4908107583405208 12.28281458444132 -0.05905721117347248 0.33601464393497615 0.2824451953489523
P 6.221276108720746 7.758573149546339 1.5135812950457865 0.39473761169748145 -0.07399223521674998 -0.9149764251242823
P 1.8222460698307255 3.0904465881299275 5.941188154956113 -0.4811117655183521 0.5538325902218462 0.6741103387686972
P 7.0986911876397185 3.9207722511543586 5.933520258863784 -0.7498426966050054 1.3900599821706834 0.6725177974705966
P 2.2703921970488485 8.552008652690091 10.004801301654313 0.14843672747957015 0.44002065190499706 0.10375995339748582
