# total energy = -340892.167934503 ev
CRYSTAL
PRIMVEC
9.06676204161827 0.00000000000000 0.00000000000000

0.00000000000000 9.06676204161827 0.00000000000000

0.00000000000000 0.00000000000000 13.27012273026349

PRIMCOORD
 96 1
Ni 6.2229720624850495 2.031952019994936 11.327071246985845 0.7672966304153946 -0.521504824623418 0.3648259117397136
Ni 4.969845826995691 0.3158814528607094 5.9537200596427775 -0.7333459845015629 -0.17447351786296403 -0.8055446181529999
Ni 2.724843034764616 1.6759637456606309 4.6857868952173884 1.3468842181141578 -1.7562118118106722 1.2055607046406012
Ni 3.5702460522487436 4.280019377764176 4.80107712010985 -0.478048553211996 -0.7121310409868445 0.5442997110307465
Ni 4.977189904172952 4.42880494131831 2.6843599426702096 0.04803283503851083 0.16265184263768762 -0.5283814971385933
Ni 7.021472720416128 6.054457224933731 2.740505866028465 1.0151874848282452 -0.08436740780348696 -0.21522318897650033
Ni 5.117715647593153 4.629216647400002 11.53229377695674 -0.4073283038782985 -1.2065940310011218 0.3429141992682868
Ni 5.49901832128414 7.979566522142445 12.534878179558142 -0.5980648205673442 0.22426704434632347 0.32095569271932467
Ni 1.808447271233635 6.3123884688086855 0.43376749169866463 0.08515956468747914 0.8742151840465202 -0.5973210004227841
Ni 2.8044038708516075 1.5321558344155293 0.35236066287921647 -0.8303498501221377 -0.09338863746549078 -0.0038201450770385817
Ni 0.6411850847369858 0.10605028779203413 4.901014596997058 -0.22845691405795493 0.3393262248067124 -0.9945443546565969
Ni 8.453132565408499 2.4514801620554674 1.3054976658489799 1.053450642074502 0.06396621843931563 -0.26304853598989536
Ni 7.262440052687804 0.28693309531557604 4.652066700859425 -0.603654913060612 1.4528558344509817 0.6981979758455201
Ni 0.8627150927461789 7.3966281295068885 2.585258421234537 0.286965451816809 0.6257340043478384 -0.20642898772363805
Ni 8.002061158533536 3.841169965994086 3.957801164978544 -1.3137604389769957 1.3018600879949838 -1.3530101285062377
Ni 7.24064355696665 3.9166416924428735 12.54444633344106 1.3848750955356341 -0.14845189698822175 -0.15703166823743278
Ni 8.161454833565935 8.575706120173175 7.0848258128462405 -1.5063388939707865 0.5931979793933461 -0.21576157797847356
Ni 6.774349056782278 0.8344757559853194 0.11775003740874675 0.22329593868230574 0.04580291726672757 1.6313862959921388
Ni 1.9196329729925832 6.617557542428736 9.313011575017583 -0.4762876046568313 -0.3313329221885907 0.39735165228156083
Ni -0.1848957563613883 4.9565630207429905 1.3418354343811099 -0.08463737363542198 -0.23620493343448995 0.35325723306550777
Ni 6.431208384127205 1.9481388725546915 7.105951368183299 0.40191741727537234 0.761418831478379 -1.1392393557055476
Ni 3.0923823638196994 4.076615640239896 0.4169667818104374 0.8841311576086515 0.7850981773731899 0.0651134446698814
Ni 5.902434827364435 5.414126229172175 4.771153178979195 0.09599470762977017 0.7544262022106296 0.8922638140181148
Ni 5.009857447468841 2.742097082750205 9.463123605844597 -0.7146116413168532 -0.7193314153900257 -1.3493961859027341
P -0.12810790625726853 5.807487696252985 12.551465820540608 0.20306958433310188 0.3631773203926971 0.21308017449156852
P 4.037592296818994 6.085519951364959 12.76289908244536 -0.18491759601442345 0.4588344421773904 1.1099580902429271
P 2.4718622429128527 8.634712606925783 1.4114364324690627 -0.983835709989841 -1.2692816398383302 -0.3483119732450905
P 6.458916408637958 7.731028443644827 5.975098577638163 -0.14636673232441888 -0.5016834190221167 -1.4788388887783046
P 4.627784099012339 1.0070361827174938 12.538395176517474 0.3784357892136644 -0.36846402271293316 -0.7699114423304224
P 4.133165034504803 6.052045466255767 8.338865071263685 0.17188004610417495 0.6001024198226632 -0.6540269377552608
P 4.973236795963957 1.0505747735881186 3.8337651415117793 -1.102408045809811 -0.7922551001329452 0.06804475938406346
P 0.2566147500402154 5.6069218552181885 3.5860911254277323 -1.0401608669441311 -0.692445132522143 -0.18892774561508105
Ni 1.387395913165968 1.1215765863969194 2.5492035356751606 -0.1025510206910492 -0.19180815248666966 0.2422359701199183
Ni 1.886466757789596 6.259837516562508 4.791774622351987 1.0037797572119358 1.1091772462128446 0.5502646703649298
Ni 6.076634524656669 5.571443615718657 9.413334389287549 -0.5048445903589177 2.0892789430815504 -1.318252670420394
Ni 8.758029636170132 2.2988684249596005 9.901170609182357 -1.0218965214173046 0.02326771227868896 0.5451180931669838
Ni 2.4440998178304176 5.310502206877221 7.286186808903809 -0.1518362400794224 -0.13212873434816602 -1.602938582174407
Ni 0.6909869947607606 9.222256914630535 9.0768568799875 -0.01104417362930356 -0.9117846576598619 0.28523792760274097
Ni 1.6158873809982486 1.1232358038332633 11.211249709843274 -0.7122254004728636 1.0963734095799569 0.8016085163233873
Ni 4.124596944464666 6.921702071948748 1.7069494046153078 0.2432209597410069 -0.3289597939707238 -0.4344297880807808
Ni 5.5899942106627005 7.886432743420442 7.9308888906001265 -0.8738860828418756 0.0696090185473898 1.1874601383851484
Ni 5.588851798657349 2.877028634048963 4.775758187372196 0.07558349096326983 0.08912189176933683 0.526297618026371
Ni 0.962599982414093 7.427917524986798 7.0389906111743805 0.6013064674330935 -0.9568933770730423 -0.09206811888185434
Ni 5.4928529231600205 4.387805043792911 7.3758661513239145 -1.6022976061562986 -0.34674180054449316 -0.20069774166681564
Ni 8.08010784537534 7.279077560860981 9.214985371548853 -0.05812647182908699 0.8617957273362449 1.1085838356032198
Ni 4.644530408328883 0.2157363471249097 10.24798513377845 -1.1364576791953522 0.785720384338221 0.07859296721355497
Ni 8.390245504542474 7.20296209431394 4.93039453241088 -0.20833288961457022 -1.0966546882658017 -0.42689851270074225
Ni 7.102447971366887 6.088647984236756 7.158315545133362 1.3369232502467039 -0.3851299134043883 -0.5357227679950128
Ni 2.2735268253170773 5.205318701527343 2.587235882015229 0.12595782965076371 -0.6055071357780023 -0.340027364638795
Ni 2.477030297222777 5.067830323359464 11.538915233206806 -1.0011790863642953 0.41462123799528594 -0.008172251398147215
Ni 1.299285120562734 3.259419319173618 3.9310079767482686 -0.9611794060429061 1.1948101509923164 -1.1295424401327578
Ni 3.6083989865227104 2.472007311104009 2.6583238290625286 0.22684174705203516 0.3146492908853226 -0.4436068265943586
Ni 1.2698544112820078 3.434208355992423 8.123385313501883 -2.0193441657636253 0.9269600798487198 -0.051472199737362966
Ni 3.9862562906737478 2.6174835065474014 6.726744929854513 -0.8785523779692934 0.5785198085558811 -0.1550460052659717
Ni 3.97965568797616 6.963100906999826 6.028005853628866 0.9133751420754335 -0.31224608076046867 -0.102106734064779
Ni 0.7882642836926498 7.683881281519202 11.438965062852873 -0.11494219526655045 -1.054092903644191 -0.4022591168855072
P 0.0899332117546284 5.79339794818698 8.229426534531969 0.810175946277424 -1.804754496606066 -0.48198851169635054
P 8.533627277976056 1.4495757666001088 7.81684534547541 0.10177840419108278 1.5054984003473622 0.13590439934051432
P 1.4779456647330087 3.33123714055767 10.48392766657897 2.1240482282419357 -0.1903883893210076 -0.8853267205786496
P 3.970443857837769 6.133464988541941 3.8309780188891986 0.18828651248665637 0.7408080972065629 -0.46328167931546665
P 6.680426469770866 3.7850829765884875 10.109551092339474 2.1867620623313884 -1.118871847792789 1.317422718319931
P 6.189651712328959 7.8687434908613865 10.209023444338788 1.0307051208478701 -0.2637198510253071 0.11126217531180194
P 2.371465987871115 8.384098239942247 5.740429018215036 0.9617329645535307 0.8469411788219157 0.13439233357136207
P 6.68185901815853 3.892941176712801 1.4373800651048825 0.9741915020318579 0.9977942290524622 0.19105970435641934
Ni 5.106726732113104 2.6607863616073977 0.5337929161767608 -0.17764394517114565 0.8504759314480513 0.031637938620255185
Ni 1.5865110722892057 1.2465437663156653 6.934435432427446 -0.4433147492752365 -0.43777556462456213 -0.6506644490409311
Ni 6.817398042507752 0.7004925879862424 9.034883212228968 0.07364565051060865 -0.5007606500975311 1.3740548649916786
Ni 2.728814276497505 1.9067037704558256 8.867785509570002 0.8919743078021541 -1.4515623124505388 1.8419845846021183
Ni 6.47330535984822 2.029558394840866 2.6046195846966635 0.17674560172659237 -0.28366209847518886 -0.0019167574067386341
Ni 4.058527450155162 6.567345814764946 10.57778678625675 0.4414550703586785 1.775558334658084 -0.5007470232507764
Ni 8.10919401770207 7.43378371996666 0.6648783470575015 0.5026630093265665 -0.9062470156710845 -1.2506187733215042
Ni 7.765609073711583 3.874399648530704 8.143648619777759 0.9714255092509464 0.02554673812085278 0.12081973709325
Ni 3.031208920961702 8.388187349580452 12.328925775250493 0.25051646496115565 -0.2801440580196014 0.8659596289059474
Ni -0.007401197777528295 4.978994189800451 10.567649239723545 -0.6394832356131308 0.10128295261190298 -0.9377967654529075
Ni 8.66004513980636 2.3352080068441197 5.7008181486199545 0.28016359840362715 0.13587894541921758 1.6476598363411816
Ni 3.5267165281400663 2.74860701782832 11.551748328066923 -0.007960649607973387 -0.20494906074400185 -0.47993265760858644
Ni 0.8968840918205304 3.415567093428907 12.576904434535967 -0.43788740761207806 0.16621899116365565 0.8076675780332735
Ni 3.016321297844341 8.430320592349254 8.011571285139992 0.8158166895029693 0.08648496836712202 -0.09584198410198977
Ni 5.735597340773356 7.801041979401379 3.8453896370043292 -1.5301812478060226 -0.060390842383231474 -0.48448016776995273
Ni 3.136591895074419 8.43748333428757 3.5802657308766337 0.1205860238158891 -0.2799507110618727 0.8191089871009958
Ni 3.2370697509736828 4.292767245061989 9.363265916462524 0.24412444539188277 0.24992793944753733 0.4066737010134351
Ni 6.885879295495222 6.348465114596735 11.507677518269995 2.0502051170085402 -0.44795456204009304 0.25571806376675316
Ni 0.6328327836311924 0.03152241126195348 0.13874049799279153 0.4219229138630218 0.4947422118175932 0.42608321588829845
Ni 4.524377679004118 0.2879349725107455 1.6930953923599321 0.9809555602285687 0.7077511667515939 -0.2702566237025604
Ni 6.204720670685264 5.844752087856122 0.423156660191815 -1.151774769168397 -0.0888131022796664 0.7028640138626218
Ni 7.8365564859487 9.003747951702161 11.461829623131411 -0.11090093531764125 -0.8476032378859467 -1.2291413201740184
Ni 0.26992475657875703 4.923088535633797 5.936322756818422 -0.8465945941157742 -0.4134804395226233 0.6207609766132793
Ni 8.237633767446608 9.04418570998683 2.382982588896493 -0.720713640449533 0.4596906195300986 0.06001828953516115
P 8.523499704880994 1.7732229010686253 3.63044028481644 0.5478745728661983 -0.9831893346550938 -0.9654785476388921
P 1.6833259563617857 3.0771411369863966 1.6518914926907204 -0.6487425494278698 0.8472486827600053 -0.3976784394933603
P 4.578460914019378 1.0268017237624671 8.023394342719186 0.895397217440774 -0.20138371199024674 0.6055480163182668
P 8.629200015661864 1.711940657067261 12.293494682913087 -0.8868033051241759 -0.02048269333438408 0.6393438818217893
P 6.337095395114902 8.134191080390599 1.5660600840410215 -0.10893404139925757 -1.1286757212570886 0.2657124559753037
P 1.8995319617555624 3.3046805948142173 5.9951497216844745 0.6087176722955 0.003930188292341618 0.7974595271520202
P 7.131579477503355 4.027174587341621 5.970148125614973 -0.3281259852155188 -0.07605477417273354 0.5559131268999588
P 2.5380858721754604 8.56526121040996 10.214544195688461 -0.6951041674115448 -1.035735741293242 -0.6604783498075593
