# total energy = -381166.8041977509 ev
CRYSTAL
PRIMVEC
9.25539628537141 0.00000000000000 0.00000000000000
0.00000000000000 9.25539628537141 0.00000000000000
0.00000000000000 0.00000000000000 13.54620801343303
PRIMCOORD
 96 1
Ni 5.1883529573204195 2.3542488440261597 5.369270037122861 0.322625881332896 -0.5405219891558691 -0.4018392557392692
Ni 4.477529276900342 8.721341289989434 8.855128967009788 -1.10867613820671 -1.2297272745844756 -0.6441916968323937
Ni 2.4592883350365304 6.229464705076481 4.3009613077530915 4.095890748880172 0.32280071634786345 0.3931322148835746
Ni 1.8831584349207897 8.293186663666432 0.07703451331196719 0.5115099181942353 1.033160524366898 0.8899428791944222
Ni 6.095326248541694 2.887526259924964 10.005297047709298 -1.5810870335169545 -1.2165547417582598 0.2908431896046604
Ni 5.295697041974422 4.395720830249477 7.833541477451487 0.4460866555934188 0.4385839194584705 -0.31672314269521584
Ni 8.58251960299811 8.061440799237085 9.22858420203212 1.151320712350114 0.06977331203939596 -1.0164424402812686
Ni 2.8173796124346477 3.202135686167321 0.9712871880520846 -0.050552259026254875 -0.08279594955130902 -0.9087767240714736
Ni 0.575406128136094 2.7067776283326186 6.415456518592994 -0.4178687983983062 0.06040369789903791 2.00672082057266
Ni 6.0669584593138515 6.958049490725998 8.400396545076127 -0.0044840039132826 0.21299172854282025 -0.07676465575556457
Ni 8.705486796368783 3.55499766473551 4.561157334436099 0.9018311459915759 0.47511775271844636 -0.7956564125050103
Ni 0.2457807471651064 1.3774898657647765 3.959583424739196 0.6918162406888924 -0.43971109108437817 0.21818484270798552
Ni 7.969895675826778 8.619568953823249 4.120079398456054 -0.20100344583269253 0.1411029128223183 2.303395529257433
Ni 8.090817426646277 8.838468328383675 1.9813766989618549 1.7451354993918526 2.786130432201505 -3.6040099177707736
Ni 0.03191075487757118 1.166651941258984 8.513128195834382 -0.1807056148156049 1.0050804783012304 0.7036438294514397
Ni 1.0633246985380593 2.1852915871405916 10.432842668965028 -0.4325438839119776 0.5334882222375392 0.5752529648791512
Ni 5.98012433254856 0.9317684975316792 12.198617691017967 -0.9559742076928828 1.034500069113928 0.12020190100359297
Ni 7.301350645061769 8.474083381597325 12.851882988263808 0.6774702563798655 0.07017877500793075 0.7201672810277598
Ni 3.760782142938398 1.1729270998548984 0.6485070980804158 2.3637874000819292 0.47082760998352463 -0.31761711526439496
Ni 7.949367207145749 2.4730418537290504 12.853007518897149 0.6497200828497907 -0.18324097964294894 0.005918422366964
Ni 1.5403663273737729 2.4935795778062393 12.683802217394515 -2.3494781825481086 0.981414245032542 1.123966231596561
Ni 1.0735241451054596 3.526963069769397 2.6996916970331615 -0.38991422216690913 -1.1005599368574788 0.6750418494440309
Ni 6.292632783862787 3.9968687881663945 12.1578162025899 -1.7244175501182106 -1.2294827626738374 -2.1417644145747756
Ni 1.5009383397357277 7.315215228508199 11.806590578062654 -0.06558061411428706 -1.9580017581004021 -2.4726206542372644
P 3.4244688127027976 6.416516261453219 1.6228624499592639 0.7102410230529832 1.0018339463394748 0.0944294200251793
Ni 8.94256376898581 5.635110929923344 9.58153040470536 1.2534012211626477 0.06852941232996584 -0.3437091843657565
P 7.012508241726528 6.035980648369125 6.720531035712179 0.7348696202349408 0.523622385187053 -0.34529349813374083
Ni 2.9934172473819776 6.96091866353534 9.760096613883372 -1.9713442408455792 2.0354019905574368 -0.19320040484850598
P 7.748728729207357 1.3989438740617226 9.894326698840135 -0.7482331860260405 -0.779663893731496 0.8247366177004184
P 3.8976601967362985 6.674093936562798 7.755420380630434 0.1149679062981633 0.18028343967652177 1.9183679457588636
P 5.131959828522623 2.7086194521682927 13.31260365151245 -0.20060415351174482 -0.4814737768434611 1.5166485034269106
Ni 5.321760237558633 5.703628627689647 2.7671246623696106 -1.293049174571573 0.6546853972748661 -1.6383691550678752
Ni 5.01397203828558 0.07595163196134481 6.2505725615570755 0.9648607115492351 -0.319884571142333 -0.056643716635973416
Ni 3.73646821722827 8.576318487571468 1.8746055233301047 -1.582631238075623 -0.42146422905904835 2.1946190964819627
Ni 7.080433594138645 1.64710881127743 3.4709447845160475 -0.007270822629800381 -1.3414123963663092 1.5024806965669608
Ni 2.7660862069205523 8.817810284156417 4.130984106210784 1.5254043952426697 1.548698846994236 -1.5309209541855249
Ni 6.65631432054104 4.073281338856465 0.9659329413740072 -0.2570031011267639 -1.606375632880414 0.390851646379514
Ni 2.419018106348001 2.227894175661231 8.535614180803073 0.017902334201717555 0.2279064408711236 -0.9413063212680628
Ni 4.396239132434391 1.1626443547220655 10.410504770334882 -0.1720510244644005 0.7734083997400875 0.3469246059792606
Ni 6.777763628941611 8.52927330889443 10.480822642654141 -1.5162098732275953 0.9450372490654048 -0.10707616225491237
Ni 5.207187688504321 7.698296075536064 4.477279381204045 -1.4160870023620642 1.3198338988645852 0.5101577750417149
Ni 9.246668320587515 5.261516863958624 6.478920770056392 -2.9833255600317004 -2.3593633028723042 -0.37708673138493765
Ni 4.6526876492125515 6.000458437910247 5.907108512248902 1.0184077915377558 -0.6161900694131452 0.6857078137983094
Ni 8.887022136634657 7.01316537485383 0.07552310711917544 2.425900110252274 0.47628323378145715 0.0671189051356844
Ni 7.012563774103484 6.345138646273734 4.143771361544287 1.6642707054249855 -0.8745496845678036 0.8323697087656439
Ni 1.6516624661877395 0.962996204172704 1.473123097658587 -2.497962989656795 -0.6912305433887515 -0.8057207387195479
Ni 8.037932092992804 5.0440150542182325 12.859916672129966 0.033563951998374454 1.422310614674273 0.32082868022315714
Ni 8.614765403216643 4.859480965596789 2.3054701296485094 -0.815924418725427 1.08507443962737 -1.142153444028549
Ni 7.6488537492538 1.7907433042715208 5.910846766757589 -1.1645927468686719 -0.17644401132577356 0.1417045509620592
Ni 4.99745115614147 2.034576716084739 7.943726968726353 -2.5440842094948892 1.9295201057209415 -1.048156226444782
Ni 0.47779501808306984 5.977486544643198 4.060773596486969 -3.2952715930532475 -1.3598163527947937 0.45136127372879686
Ni 8.579113617211537 2.2695342029813173 1.7233214454104633 -0.14024185037360362 0.17415572951222913 -0.2253073126853797
Ni 7.363352543932019 8.279368357200799 6.43771296973694 -0.6862752562660053 -0.9601681911695721 0.33372533368016716
Ni 1.5475485147932855 7.550070906047027 2.124180982920469 -0.5132806369414128 -0.4445303668498925 1.6164510148385451
Ni 4.801153459001727 5.210223458444528 0.2714283754617702 -1.0379522893285866 0.6010642695153003 -0.035283762902958586
Ni 2.7339514714559288 1.9583770395063285 3.0746509339313586 1.4647566996536259 -0.19442604972549096 2.061777909447804
P 3.9479169978805677 3.1930191209505434 9.754217586243069 -0.2175425811382963 0.6208080278011309 -0.012901024332384234
Ni 6.3263131704859905 1.0374558662731912 1.347782820712703 -0.49706237531033753 0.6742903159899871 -1.852681145084016
P 3.700298129038251 6.232232068528072 11.944030434407415 -0.6277368937104801 -0.37790819884496846 -0.16566491843239856
Ni 0.5995664142699799 7.240625990861483 7.087931390567185 -0.5069292408020882 2.65190033523962 1.111245698706099
P 1.1584053832811674 4.07623381023124 8.190212977078788 -0.9575598070124478 0.3233658448227141 -0.10556512492702465
P 2.0291345431431496 2.7872255317480863 4.992753117051078 0.7213705573072415 -0.27561531691131247 -2.0097040715707
P 8.888873215866491 0.7312679249960587 0.17290745996630005 0.5854784992619013 -0.7199564505685342 -0.33317357494175526
Ni 0.3096985130403041 0.10211015812599458 11.520819115173024 -0.734460043501348 0.45410875456694694 0.4844444294360108
Ni 6.938548371018636 6.515502723375495 1.1728456523686976 -0.07593701764794664 -0.9547009974074139 -0.8030614467198299
Ni 2.199239469152454 4.735745574344903 9.992265449917195 -0.4299990060029369 -0.9282561729523239 -0.2414191306455778
Ni 5.908700440388279 6.21772886274666 11.85787657925982 0.9323066888726137 1.3050194595595719 -0.1461661862778386
Ni 3.031790119857878 7.702275895884505 6.0507383775449135 -0.13031739217104008 0.9748538182062051 1.502808769330341
Ni 5.220608012935112 8.242013578302407 0.38260326858605154 0.4735205834346554 -0.8169299771718059 -3.1417767343244796
Ni 6.7849643271534426 5.0196455961311495 9.663336074737375 -0.12493478770288806 1.5800508789429561 0.4808469418927396
Ni 4.4869975471711685 4.430539630600259 4.355525570269837 -0.2345789677952928 -1.6014211170886161 0.44581488998927093
Ni 2.7094802040110952 0.7141611762750729 12.30305835789684 0.6846374635522661 -1.1381273535882914 -2.0429358370406363
Ni 7.604566678632194 3.131507758076728 8.277830110359146 0.5986757146784658 -0.10861111084220006 -1.7251827104190096
Ni 0.05861164725714805 0.31258619664196374 6.474003378077028 -0.9149139473174631 -0.40390282313651726 -2.64416594270984
Ni 4.434417641590949 5.385205978229712 9.84019558886364 1.8838699119819942 -1.5981661004864283 0.7991651969892172
Ni 6.310791871127069 0.4894457107682275 8.256820361077839 4.398938965191457 -1.4932170118768477 0.3941254320347793
Ni 2.2542350331302163 5.4438944452749825 0.03536671980340362 -0.5326323019951473 0.5036217736954101 -0.474685293166718
Ni 8.205621360604567 3.4482366700395346 10.583543656926642 0.6132132461730084 -0.5870640985814665 0.7564805136364972
Ni 3.425542438657261 3.636713557424783 6.40780323150898 -0.13905040116866374 -0.3637355068890123 0.11728575579806252
Ni 6.819996001615885 3.8494858597278414 3.212875647870417 -0.17255238958085123 1.2481088624154568 1.767018929728505
Ni 0.8890122694347978 8.086273027132126 4.890587426548128 -0.9423995543322415 0.023379812376521023 -0.13076656389331673
Ni 3.5009739173544605 3.6921163588335486 12.17457309733607 0.5385311839780855 0.1628053374964164 -1.3981461016129275
Ni 6.911846553099443 4.157440656131759 5.824828965933536 -0.9849238008476973 -0.07352789398582175 0.008670274080488293
Ni 2.1064726334491373 5.548554465042827 6.901399987454593 2.4134415727739467 0.03504387897801061 0.1623199132195656
Ni 2.898854864823783 4.666505955678185 2.5987995490417135 1.7342023974191163 0.8091986699658192 1.0340429269718514
Ni 2.376915309219956 0.13617371815018767 9.872706093412324 -1.078194424678085 -0.8031010417085136 -0.1798710347294515
Ni 6.053399303940674 8.10064665736731 2.455019746327923 -0.7434352504167648 0.6875703209283449 1.2848877218067032
Ni 5.019756660885059 2.638954085278253 2.68111981910018 -1.2392483267010335 0.5739563575549147 -1.0449037809457553
P 8.288734818113875 7.188370024146835 11.293270572901859 0.9346849592968031 -0.820517180302432 0.03993051764635059
Ni 3.033132152300957 1.1473822064556012 6.260081555571002 -1.2868913825002932 0.13238121667860428 0.058522164605608884
P 0.39244453132209234 4.205614993140216 0.4798876631546572 0.8021649030474894 -0.9554211634028901 -0.20886099420389834
Ni 4.53578274032613 8.16810923997147 11.37246159351891 -0.6628383653993036 0.5902700071132737 0.3145667584738453
P 8.687262921331387 7.0309172246871094 2.5582822012757336 -0.1574013928720257 -1.5736434327547155 0.5998702492071991
P 4.959004240496297 0.6289652546299536 3.3446132546415166 -0.23703771374843044 -0.6371381324197221 0.8899176823834415
P 1.6365854258444588 0.015614778860128298 7.672057027424829 2.8470961732516 -1.112940827020335 1.2729187223702854
Ni 0.536151216406225 4.58115269229836 11.616780913630485 2.2863845965217333 -0.002446404657963529 0.7867079450624709
