# total energy = -381162.4610712226 ev
CRYSTAL
PRIMVEC
9.33687178265875 0.00000000000000 0.00000000000000
0.00000000000000 9.33687178265875 0.00000000000000
0.00000000000000 0.00000000000000 13.66545563938365
PRIMCOORD
 96 1
Ni 1.6840916001877217 3.263507528535866 8.833158946984057 -0.03303841851220762 -0.7044079613109739 -0.7853809987209313
Ni 5.298254693044983 4.332896824626682 8.873582000561996 -0.32319383802122403 0.18398737089067022 0.20373550005187493
Ni 6.789166411834002 7.040701743147731 3.6859290920063597 -0.6727741364557768 0.3528803093420632 0.15811487399928253
Ni 2.706843220706449 3.5901393212362436 5.629703378003146 1.352721136510909 2.2200215957154668 1.109845990145095
Ni 8.339049814089151 3.528590661101867 8.581346310572332 0.4183395673871375 1.120226819158787 -1.966221317796717
Ni 4.4738555810054255 8.043985985574805 0.26471619349693537 -0.3375632193690186 -0.3344601549636627 1.1509563870321597
Ni 6.964671594562442 8.516310328751034 5.809130980653074 0.4021033080339333 -1.1613950658669805 -0.4958290171238686
Ni 4.746893728503844 1.1004343954456102 1.8964102017841555 0.2966474549912633 1.0111811918823295 -2.11843139627579
Ni 9.228937746241346 6.778382324689705 0.24440569586491032 -0.7183273996055435 -0.310269159539756 0.04746667812239567
Ni 0.26520077715302975 8.19083630817697 7.615758755103165 0.9139114741948776 -1.205654549905988 -0.5930120886347852
Ni 5.543889121263304 5.039940792669125 4.826023718588618 -0.5834090183273823 -0.6737706960410913 -1.3580358638556032
Ni 0.11399013533321405 5.914385538555808 8.670704843918212 -1.563518685615888 -0.5969772439301203 0.9652448343615312
Ni 3.586497941161546 7.831917612147607 2.5134597954984432 0.7180864872393311 -0.6375934747895858 -0.33771799977932804
Ni 3.0798419196913094 4.998559776025381 7.687447258214776 0.5246125170144642 0.37977122019563625 1.1064097107700364
Ni 9.123729872698544 0.3092297306921173 3.495664182041813 -0.755286493328396 0.5647160699035694 -0.13251954202868146
Ni 2.747318560767511 1.1381273476547238 5.520652447950741 -0.16891762104174138 -0.32364815194982327 -0.4379336874689812
Ni 2.678991331571005 6.835197190726975 11.504797491865768 1.7482362498043635 0.5784663296101263 0.42325963039657427
Ni 4.792093525790026 2.219346460552314 4.897672073150688 3.030995098193522 0.3094541198376284 0.32154370401231075
Ni 3.0859295602264454 2.935456531293555 0.9880492684068588 0.7080334738787032 -0.027024865328276033 0.020581166585461327
Ni 2.025074165131202 0.8752169051999589 7.613025852672745 -0.7823003029130785 -0.29175336012375563 -0.6390566895986736
Ni 6.007063329892856 6.2732948977131855 6.804932653870244 0.8815749668457011 0.6019261032949633 -0.781583479351712
Ni 3.2259826400225076 2.748336279814029 3.471736580202255 -1.6539613530791772 -0.7620022147856748 -1.3934579521086388
Ni 1.874797210510027 7.136992903943517 9.198751639109302 2.0950994064180692 0.7953003147171722 0.30441578608277253
Ni 8.44070967627712 4.600108764005584 13.034029600661388 -0.6115836809893854 -0.7181029422995633 0.2332905880011724
P 4.9161245332574195 -0.038471647332779774 5.766726642839621 0.04041054260656266 0.6055829833212603 -0.9318860563954273
Ni 1.580928501609942 8.185476943656774 5.636918912674239 3.854676792266864 -3.450082856600594 -0.5200302969604205
P 4.827050774507123 6.4358405021244955 8.56082013119742 0.4035133010075825 -0.28909946744067627 1.7939430078128586
Ni 1.196902956809138 1.8045372488123355 2.116451330200544 0.033562923557109936 0.8993538880956768 -1.2483338339420695
P 1.5077834464684514 5.025944821561506 10.047950416831947 -0.4892752751657509 -0.12248889726555678 -0.011302312386696664
P 0.8841018725822212 2.86949153070961 6.588868099232865 -0.7821054132934531 -0.5563311882739838 0.5256322165282302
P 3.2581388271436835 6.059480529224529 5.887829607252078 -1.781144827606926 -1.6033453306945227 -0.5389255912030266
Ni 8.970745225201311 7.495061944622117 4.482720940956517 -1.4148528728446472 -0.08537862267682071 2.323593344361547
Ni 5.728021573707181 4.544292943270859 0.3408210370581158 -4.519485651128978 2.2866321937561653 -5.1854119114249855
Ni 7.884260116503389 4.840972050638852 5.48562797375534 1.0411949646356005 1.1152571338583375 -0.6170344196913116
Ni 3.493297284993259 5.510080307800535 1.4561085284596975 0.573359090290548 0.44973222276580604 -0.2764892348758335
Ni 8.51878459982743 0.3860871261354019 8.707341795905664 -0.7716171121676195 1.153289920261343 -1.2809863298697681
Ni 7.080000637338506 5.720813508533677 9.080353566511306 0.4779549650569253 0.15338095885872294 -0.08975618291922606
Ni 3.5249025966672374 4.812746686623952 10.337876164692172 0.7403882360603249 0.7066695036516409 -0.23178289310739436
Ni 8.004873828823758 8.3002831216016 12.454532906076418 1.9551689166372972 1.9990519911734927 -0.04465466259489729
Ni 5.383061501297492 5.656594503011188 11.82254618455828 0.9926833901884582 -0.3317643532990544 -1.050445793809907
Ni 4.477982478423416 2.8696502575333787 7.0188926775618885 -2.790871032210284 -1.3752504279616766 1.7011467525157282
Ni 1.4773359069207876 4.18998666200278 2.2194883810065074 0.033358777966103835 0.6657236573668986 0.7453440374037035
Ni 4.053808384081075 0.37475683197990045 3.744362037958873 -1.1061425731515788 -1.594322558370622 1.5093049185776457
Ni 4.423119018631305 1.407328040766729 13.246759958312422 -1.2617462506932335 -1.309454869623106 -1.7631869575769246
Ni 4.792373631949618 0.23768968384508982 7.816012250718768 -0.3404670232793749 1.0159757850574955 0.5896580845608876
Ni 8.71386920311136 6.041161586387204 2.6940489050234793 -0.29171556490728473 -0.11424336942731295 -1.6812178748022852
Ni 5.59219809692096 0.9610722441765412 10.9765994393485 0.18072001299330812 0.15329919777819404 0.568334126272131
Ni 6.544540365790213 0.6696609999832778 3.4882301645662377 -0.32066310117957036 0.4900597187402592 1.1879568755159091
Ni 5.594681704869343 7.994733985846523 12.105721373972338 0.5049201807918594 0.5310413033589435 -1.8813890545416696
Ni 6.148694341054621 2.4204066619075415 0.3629027393059617 1.2973390601961785 -0.22341575208962167 1.191709657690122
Ni 9.363015227966109 8.995151808573771 1.0835150497190469 -0.02900718586562746 0.1300901066515824 -0.08149291446916933
Ni 1.1726737740044193 2.6825580166698115 4.401083067056193 -1.8571381524141048 -1.5753606725561384 -0.41410933135587386
Ni 7.863112101454184 1.8401760891844403 12.535226822218917 0.5778153262896888 0.2360442394869096 -0.24382002677758655
Ni 9.198975724036975 8.044732935333718 10.053430227000767 -0.09428338136561827 -1.1439614437715653 1.6916694091529123
Ni 2.6775347795411264 0.13066672238813057 0.40223898098468247 -1.0851667422308602 1.0056898297504553 0.6349061577654098
Ni 6.642278741743891 0.07818883338854588 0.22748448276395003 -0.5237995341948657 -0.36013262002910235 1.5623740304884834
P 3.37956484732687 1.7960313584327214 8.926125247665485 1.2903456595974812 -0.0022836538278541317 0.8614072336485744
Ni 0.9677667813907931 5.487699825649123 4.252279470834472 -0.07499290856712247 -1.488508807767901 1.3199213163720687
P 5.335994329614029 3.109271740192455 12.111297353922618 1.3035415894624647 1.0723425938829982 0.02008854321975895
Ni 3.5820349163520446 2.6252016120573307 11.057827424568622 -0.3001881211546701 -1.1365936905525846 -1.1759241127210909
P 7.239754517025881 8.932706808728701 10.463980891427747 -0.7404869664217183 0.3217825594959942 -0.07412876079461427
P 7.488246028072043 8.608978783216095 2.25378924762296 0.8956496997712123 -0.3201388532449841 -1.202612934866187
P 5.623588660539251 6.016269485671451 2.229259417540279 -1.1018416317833797 -0.01574903530414062 -0.5224116527084035
Ni 7.031467576753177 1.0771388998395315 6.988063259949979 -0.9387604149177574 0.6956811229609373 1.2275580348472988
Ni 7.895716458430707 1.977176011840949 10.006967150934823 -1.5914256964388012 -3.782130031247389 1.0397291787233514
Ni 8.221806712555873 2.056968919836759 5.4095800851132765 -0.4863308478254463 2.1317615377257932 -1.242904435396382
Ni 4.620351102472108 8.211059972899521 9.828797224941464 -0.1369104720075255 -0.6230310035943787 -5.707849018054686e-05
Ni 6.831873264299816 8.03730078523254 8.464519633529648 -0.1947350963254775 0.06322445517728466 -0.20145698843034338
Ni 3.212845661137637 5.450847191918787 3.7888298244813217 0.3055195606699126 -0.09998454551545362 -0.07022762596799519
Ni 1.2957804311451582 0.5041257291619208 9.700806450064638 0.6095854196124341 0.623287599689875 1.2827423933289264
Ni 1.4667105466002597 5.014535163994119 0.08771244281467813 -0.5876292270563169 -0.19362540820106652 -0.12702046658732316
Ni 3.123771902387341 0.09306900627327822 11.363837801799825 -0.2968341170807727 -0.19252549026866841 0.6211726102294012
Ni 8.821803443274192 3.780060634311691 3.464753533643623 -1.854346962822213 -0.2720412264068089 -0.28014225824738853
Ni 4.839170034345476 3.8590318975726974 2.5477055745701764 0.9900487807790885 -0.16827073148636182 0.40368299381622735
Ni 0.26946959502521367 0.3525397450882517 5.77741269282806 -1.7274681640190763 2.7740426477990354 1.2648074061170604
Ni 4.480270012060086 7.334645147023706 4.881300801809728 1.3239684898582489 1.2982615720104478 -0.6593792032061095
Ni 5.739786032410049 2.108555137561642 8.859984713888196 0.565567105049955 -0.2634779102178301 0.5642471006869508
Ni 1.3927811942119113 7.3759234580756 3.1381357462512254 0.6227867487940564 0.4868962334106131 -1.6875263335188164
Ni 0.3339780435792801 2.8913958323897138 10.79285446709206 1.010626090709808 1.1653406807782898 0.8080609568169503
Ni 7.604406052454896 6.47430841470848 11.343421797514354 -0.7867526822574774 -1.7814795852385255 -0.8452283098958668
Ni 6.24749712041475 3.9180596022707443 6.738422379962293 2.281307953329774 -0.534015555495919 0.6675635387891148
Ni 6.976716159424903 4.311394008441994 1.7973627963779826 5.402725407271611 -0.6410320681574896 4.290063802054592
Ni 3.5543137434244105 4.935255783957561 12.817159273971582 -0.6234518931818811 -0.9846139829167624 0.1503069479190895
Ni 0.8356873902711196 5.255417124371361 6.611839605381015 0.730275058885723 -0.7940471590363616 -0.651250403451388
Ni 7.238064543196343 3.8225060543618845 10.703016952213275 -1.7775349987684805 2.450351558426419 1.652735451091876
Ni 8.157092852818105 2.091814126090019 1.6801402359630753 -0.41382856689066155 -0.541589511188435 0.07301830133925488
Ni 1.9144322320923126 3.0448006391263345 12.60891154856122 0.07201839931983081 -0.5561998049024421 -0.050227528696984464
Ni 0.5468400511253226 5.981265552594421 11.645647006842271 -0.8682715648685755 0.015844423231424324 0.3353127327719451
P 9.524543113330902 2.6864421554161555 0.08885994438180721 -0.384711337809731 0.37725976662769223 0.1178233734690874
Ni 2.1280878737571993 7.24609425310465 0.6548387157048611 -0.2727889032061109 0.049397062375889124 -0.7676889807578068
P 6.687161085382536 2.87055593411606 3.7212952957164616 0.5512997964976635 0.821434807020695 -0.09252140436918904
Ni 6.748392291869375 6.652792059600582 0.10442170892154705 -0.0944823847503018 0.14502795890833733 0.7905908250566449
P 1.8943672941935301 0.10655518417044041 3.0314218352570164 1.6284459824168924 -0.7427109706562306 0.07252722063544928
P 8.38874998367278 6.554306733887991 6.865770778046455 -1.6961071332092919 0.11749555781602347 -0.7360338157463711
P 1.1001822999019772 8.255158019291308 12.050527388911908 0.14963794687652293 0.25601682595409453 0.4153434608732912
Ni 3.564070774650203 7.6143591579924035 7.371297038006336 -0.9175416147482972 0.4354841974872242 -0.5309600564990469
