# total energy = -381166.88581680023 ev
CRYSTAL
PRIMVEC
9.37002113655222 0.00000000000000 0.00000000000000

0.00000000000000 9.37002113655222 0.00000000000000

0.00000000000000 0.00000000000000 13.71397306958978

PRIMCOORD
 96 1
Ni 8.35690642835441 8.165420674410928 3.5768781738926667 0.3523192946322707 0.20731267588017196 -0.23381637859765536
Ni 4.553633549407875 9.146077726768084 10.35191044441653 -0.4085156393181803 -1.020191880021372 0.05031006110846175
Ni 9.040871128349734 4.456991150397645 11.930525708861799 1.8999166810322117 -3.651971019031085 1.9088664340263317
Ni 7.74996330290476 5.23472165288428 6.9141461647826565 -0.8766255932602257 -1.50421079188419 1.2233925906156993
Ni 2.479270138502129 1.5771338640881298 9.53414652620649 0.43489078687759936 0.0035998015361163815 1.4398131423344107
Ni 1.878829807789061 7.931835415061884 13.331669023121554 -0.3853674833364911 0.6342806083662689 -0.027802624034565022
Ni 7.673916210567448 3.894743026235449 9.62480897766501 0.3365345209941882 -1.5698806232781737 -0.2003773822129194
Ni 2.4112812644262873 1.6905111210227615 3.149784173015663 -0.12067884064001151 0.5345513733947309 1.0584681498937514
Ni -0.01974825675334127 5.653139951100476 3.1401161851061468 -1.6818958747059165 0.3675836769905089 0.6753015308633209
Ni 7.507663923807848 4.160373758205687 2.8256404694437984 -0.7711409438621493 -0.4562648816780013 0.10474648568047122
Ni 7.208975756923117 8.105030887556076 9.887747702534643 0.7233179108415994 0.346757484273777 -0.5770226551850643
Ni 6.926900637686741 8.328543374078283 12.16056441517367 0.33539423674215785 -1.9365042503482583 0.09476083522266907
Ni 3.435368365204272 3.558143753436873 9.239268209955611 1.0261586391277682 1.3767946325203448 -0.9885793953224136
Ni 0.3255220336954254 8.458627378873613 8.473919253527937 0.26495706586651785 -0.2226889012259262 1.811336520698958
Ni 8.365957868866712 3.9273225900669955 5.076405774110103 -0.15821566124320494 0.0648884731432689 -0.6174098007528593
Ni 1.077739842365398 5.011677667423786 5.220854958459689 1.4134696193438754 -0.5087022735421111 -0.1391892407393732
Ni 6.970030845428072 1.1504137270583734 12.69096571116484 0.05181081402370432 1.8560210080905262 -0.5061715367004573
Ni 5.302710526960121 4.127363173397363 7.690398077918524 0.002392668601892653 0.3700061703890724 0.319932650771449
Ni 5.197410228329428 1.0780490530661289 6.112756358679497 0.4535857921839414 0.031861110374654805 1.2296869082648436
Ni 6.606295991135059 5.934128147873677 8.99247122066625 -0.582200856951894 0.47969817300027706 -0.9488705067685657
Ni 7.114722713327624 2.6842862031078925 7.588325751603035 0.768914882745108 0.5710993477220938 -0.004200154124276638
Ni 1.8317641911293376 8.91233317705806 10.602684070717713 0.2373159071104816 -0.3027473972414141 0.5572902097531434
Ni 8.879509992674421 0.7947399020332001 9.855094115535344 0.724790381622068 -0.7186706418775751 0.27528261616224203
Ni -0.13804571183808642 2.002457867953981 11.618409364546238 -0.5830241241841378 2.9300224777331865 -0.6372530607310316
P 1.026795036914688 5.185454081234504 7.502585372298875 0.34118718927485114 0.27244231849996947 0.1334968183402862
Ni 4.793599793217455 1.9590371895543872 11.175584972021149 0.22184352250649536 0.8479107418240365 0.3521884254813612
P 1.677796002207861 6.921587835646911 4.382437639445076 -0.6617338194812151 0.042078674337604954 -0.5331341813322302
Ni 4.538960096155013 1.228915764959063 1.3716305583781845 -0.25680075530797064 -1.3307595446381533 0.881649014616746
P 7.406711315029854 9.050822090900525 5.945185709932234 -1.494055191507427 0.22540835703961826 -0.6443004544961162
P 9.227353290954117 8.198899760280963 11.045618092491246 -0.5800843248295235 -0.55953452570263 0.38236237796158024
P 0.10477932545006806 5.402988494209248 0.5803125880997388 0.7533393969043543 -1.5745572028182366 1.5654318434782006
Ni 0.36750066582706525 8.564190038098866 1.4915865072213952 -0.4234640330978965 0.07980241414062386 0.4001397565496593
Ni 5.499181132200234 4.467120143351887 10.508798331954605 -1.5796821827496277 0.4643779977034389 -0.6185333728343412
Ni 6.630733006514028 5.266682795314364 0.6740802645952964 -0.25327885819764123 0.4089514413040182 -0.2595780609427916
Ni 2.8825839624886864 3.0474869661905526 1.265075613904223 1.6594030929200387 1.6582239850102731 -0.5395593681322837
Ni 3.839637931356725 2.901605105594249 4.7761247036155465 -0.4789199000733559 0.003191253243788052 0.5386288858982143
Ni 0.7224473772044595 3.5198109965674864 2.2286305035045957 -0.45043207704630817 -0.5608689282433372 0.4189993124583235
Ni 5.3778487272377085 8.503828361307717 8.198254165817923 0.18074289581144357 0.488163787269127 0.36134849471407443
Ni 6.597544391302253 6.5291619763345725 3.736824436361606 -0.3117071775378632 -0.5412658093004291 0.07369938656667953
Ni 7.619467017175122 5.599487209513063 11.156276169263693 -3.528145662342291 3.6680141885368767 -0.9356491229822854
Ni 2.9966733410371225 8.814482045308607 2.1102515292351125 0.2973768769581201 -1.0892036313043951 -0.1831785018361297
Ni 5.0240367254317855 5.278770122706569 5.427990521868643 0.9155248414285846 0.27278787476484634 -1.2748953864806816
Ni 1.4332946681208962 7.3971070432647315 6.895728451044581 1.363060570763704 -1.3808711165825636 -1.4017646722021213
Ni 1.5519191369467173 9.044975197650343 3.980672679968542 -0.1594436201130351 -1.1146899485009576 -1.8113380633608547
Ni 4.655541900351763 4.8652617156171285 12.877447873769224 -0.8221711709660872 -0.17261589582893497 0.30555581322448666
Ni 8.793240207170523 6.798381426437534 12.989463666618516 -0.810383948523172 1.9345916067065778 0.046272143593662246
Ni 0.8931925891458912 1.2583470016558957 8.015748640225363 -0.5399848857054764 0.32099605903895684 -0.64769919576502
Ni 3.8019798160162055 0.08690882095207392 4.5086471404600355 0.3572514418265654 -0.6350277709449386 -0.6281492986575504
Ni 8.302710225535408 1.4877813415981593 3.6921172540465474 0.7823589240651558 -0.049525874644269545 -0.27703276608412936
Ni 7.916937081299399 7.4730604353897 7.48339931681959 -0.9146257266530828 0.258488941643671 -0.25241342487355234
Ni 1.1604115397153363 3.252652951136064 13.31645960465409 -0.077825235809595 -0.09960093692378975 0.5629754330633788
Ni 0.8543969532275317 3.6532963190708556 9.115294396007148 -0.20370104726951369 -0.17284832355471522 0.2516482645727537
Ni 1.659159029972904 6.5249173567154495 2.0520355873066114 0.699317434161944 2.706098418548578 -2.36047864742367
Ni 2.17645916227432 6.796601122403023 9.317616579508059 -0.9878384033913309 -0.2554964346742503 -0.5224551043518293
Ni 2.8541927981488575 9.083073703988873 8.198090190446324 0.041029407137484174 -0.35076583410222173 -0.25041799171007845
Ni 7.499989876416984 7.273422762972406 1.5152570548634006 0.49018416013326543 0.39657389357527184 -0.31749833029834357
P 3.818958294492697 7.988364753168217 6.650385689050779 -0.06682399960308491 -0.23855492172390524 -0.4689440198075666
Ni 3.8266229718623275 6.972232800418125 4.021046227462752 0.7669688147623307 0.45315770350758733 0.09619473945571819
P 5.774228735510909 9.030030013781687 0.09620107101009656 -1.5386723159961695 -1.571107039486107 0.5673915598532034
Ni 9.125201319458137 6.012864436305223 9.029115499709222 -0.1794138925873749 -0.14536837296689156 0.5356937145292903
P 4.234331335807757 2.2773274408612054 13.191320160064084 -0.40690869984237665 1.2154453107441647 0.6065556316471747
P -0.33078330061846634 1.6801010274314907 1.3992917980638644 1.752818212748091 -0.861979818322593 -0.1830041810417945
P 3.4896582682356154 2.096607841315896 7.497374703490499 -0.21179462291092557 -0.13204980148111453 -0.5256795248263979
Ni 2.2352373054768773 1.6110720809986454 11.918115115737011 0.15755488773075446 0.3755186155668694 0.14559128761097506
Ni 8.178979095136912 3.4462938099634277 0.5757194036907012 0.5325063179402443 0.4753977458527103 -1.0574728758600176
Ni 0.06142142619274406 9.063537209715426 5.514512360943741 -0.11742665225130099 -0.22776657285914967 2.0788806305663616
Ni 5.374719140145464 8.255822639279137 2.2314143368132964 -0.6595486389044383 -0.9156436263946359 -1.3267691925318377
Ni 5.851016059525728 7.435430430112882 6.154269300755793 0.11265519900458663 -0.48442771726546247 -1.3777197154377754
Ni 4.211580924250955 7.198856133990108 0.19122901536166287 0.2751337492892036 -0.15719621883975507 0.390877871631759
Ni 2.3131115519548713 5.600246181233039 13.429202511151162 -0.8245265585721412 -0.6688802007180094 -0.3413535396493863
Ni 6.145787557534535 -0.08118748598643043 3.967863860941299 1.1645328401650137 0.9657505703533562 1.9289148680367747
Ni 7.634440311107481 0.4179694741990745 7.979818356800442 -0.8455859503456017 0.3004467741326955 -0.7346029968371155
Ni 6.582308736775335 3.643457796774875 12.330480380235871 0.9665553256428386 -0.671574716831037 0.5342703518192025
Ni 1.8711182803132593 1.0536588877933317 0.9190978868522692 -0.7202909510898176 -0.2855012085664567 -0.8202004203929616
Ni 5.36019560723235 1.7944059164683148 8.865796029595948 -0.2965772638749602 -0.557995206239968 -0.3298450247891545
Ni 3.242655138479101 6.926619537049713 11.442706474369755 1.2143129969119346 -0.09214885152111871 0.280117318546724
Ni 3.753302555704188 0.1265543177963813 12.89662081121878 0.3894874190421357 -0.8386249456467363 0.01625734239912684
Ni 8.82487339885741 6.567297962758039 5.482009631286315 -0.4801807690636504 1.3355258556785452 -1.2989370008109178
Ni 5.930108408764176 3.04521942105186 1.1405620867326651 -0.06529984964907463 0.35151273957057527 -1.103339556485145
Ni 1.5037010076751791 3.1837458149792646 6.684368882063218 0.48555566022231855 -0.12221893143362178 0.24372926683599316
Ni 4.969718712336738 4.206652293081731 2.9951732006375162 0.561467995279917 0.42240936658113704 0.41007784159897764
Ni 0.9518629771042543 6.120394799989672 11.3564863499784 0.9849487405483618 1.7335681062692274 -1.3268468398473086
Ni 7.118245841311708 0.6920276032674114 1.3906929295771777 0.8018954514361868 -0.5462784320236722 1.037553511228271
Ni 3.2593431462973306 4.890532662885947 6.60056247514181 -1.4878482913657667 -0.11708366708958545 0.9333790960011861
Ni 2.6893928646805683 4.972220508006288 3.156312266809577 0.22690653885169954 -2.048729560904278 2.1005509164509437
Ni 2.1800104003221072 4.015869290730819 11.142109634159606 -0.047231165072821886 0.2648498508646922 0.7511603869751644
Ni 9.459130136204946 0.5632544644427557 13.142786261076951 -0.29584629924620665 -1.806117952612496 0.991241258425293
Ni 8.836126794359764 1.877424304603921 6.2555742223321955 -0.11714100269008212 -0.19454997689786493 -0.9357195712089046
P 3.705824658110157 5.123958631874009 1.315669043558648 1.224354954528969 0.6584808597615563 -0.6259980566425025
Ni 2.142080554365794 1.0255488240905306 5.845608620271432 0.05186712118293648 0.6422332875544423 0.4142484280368995
P 5.388614881635882 6.981808962119545 10.744816048816064 0.11644500506432204 -0.13838294278799393 -0.551714772547895
Ni 6.132669527806562 3.2630911547910375 5.534753480814005 0.42762587778507005 -0.39350733883480615 -0.7873962293787471
P 6.300917629089061 1.9781239228085892 3.0145091764565497 -1.0920588413650032 1.1700049190231785 0.6025082010506785
P 6.995030062081097 1.5275383416951545 10.408302043210721 -1.0397903709785898 1.0063565168001765 0.27979901597535684
P 0.8519944797830656 2.824161880093031 4.454942863755834 0.4570269566550064 -0.47101735739682754 0.4097004036549009
Ni 4.190938767471866 6.30190148131866 8.349739299112318 0.7959004101950163 0.2729321136521945 -0.24396657965777985
