# total energy = -381168.96390174975 ev
CRYSTAL
PRIMVEC
9.27084162718947 0.00000000000000 0.00000000000000
0.00000000000000 9.27084162718947 0.00000000000000
0.00000000000000 0.00000000000000 13.56881383242205
PRIMCOORD
 96 1
Ni 5.395379605282249 8.208254981662757 6.926052135876781 0.5941595719756669 1.504298209391674 1.1007273156732784
Ni 6.4493723368091995 8.474179807381331 2.9707151660816997 -0.3429321969904158 -0.11273438898195424 1.2509005662279813
Ni 0.8096207587867097 6.152575607951493 2.2047285512333197 0.4317630398818951 -0.18728661046723227 -0.013978059446646894
Ni 7.340365128098247 5.320369224411765 4.939387689654599 2.8367641951979725 1.5204336815009558 0.5331480652893011
Ni 6.547022113315048 0.7396370283312511 5.20062795901996 -0.21118475724106855 -1.775226919460594 -0.4351676946880699
Ni 3.461880655436037 0.548498229112 11.686629391715858 0.5707527630159526 -0.12623268057870518 0.41800352420395753
Ni 7.477768274171843 3.9961778091040356 7.05460255513129 0.5228253432070544 -0.3462604900327004 0.09461582500437253
Ni 4.273450145165643 3.555321469772165 2.1579979461392935 0.6691051722446218 1.6972474174613223 -2.0808680933100354
Ni 3.616342150391314 5.199152968092202 3.7831755837067025 -0.7649816091289728 -0.891102189609846 1.2096634139550653
Ni 5.530437228384613 6.17217416748186 11.024213840020462 -0.5324433259127928 0.48822909328942365 -0.4326788668279452
Ni 2.825057262484056 4.61622097842784 11.52554017196954 0.42585387348631176 0.36033676562010847 -0.8412546699600996
Ni 8.667551025302055 6.061137295440605 13.776280838058664 -0.39648056253051717 0.16850238788119368 0.08272575843500592
Ni 7.128229726407674 3.0037527378614626 4.555878923427245 0.28664046437722246 -1.7030660810256282 -0.015930555187327403
Ni 5.195815465050133 2.169080310407317 6.342931948124216 -0.3340595770911343 1.1796149313091167 -0.10404611717933694
Ni 4.291083286237903 7.811527849220455 0.6994395854420735 -0.3891989412674394 0.31627731340704884 0.7826872539388521
Ni 4.342907291807797 5.520415448416625 13.363368670030688 0.49635146528624197 -0.7190689057572583 0.5051176415146461
Ni 6.760130953392892 7.736063197102578 9.400189495170924 -0.20251654004310932 -0.13160577196516043 -0.7936612364518524
Ni 1.1717602347030431 1.178425969945396 7.18977513667177 -1.9593806407257999 2.43461435019682 0.30566688488105426
Ni 7.8030357581467475 6.239619541456991 2.771443984449942 -0.8944446237195175 1.0368770539865368 -0.2882448327498649
Ni 0.9762289106467589 4.272977332234683 9.50451984026598 0.36475032130677176 0.5565828992734737 1.2477645917021607
Ni 3.3506027415084096 0.6390029678552869 7.08123861065953 1.4208139755240885 0.026443538903509294 -0.9405712428742512
Ni 4.003381253169834 9.197806091952437 2.969073300001838 0.07221688848388207 -0.6351450132490932 0.3162572588023908
Ni 5.457206849136565 1.8150824877452734 3.1839899542274686 1.182546503133615 -0.5625596856821989 0.04916206354694759
Ni 6.256056743939178 5.2156179830997385 1.2618885772699189 0.49481420270610904 -0.8390730889277483 -1.830056208595648
P 4.927406053733574 6.401525522364437 8.696998927143238 0.8092027837308773 1.8579837882438517 0.25968810415809473
Ni 7.357228789302476 4.243153034217089 12.854226091373922 -0.25271424394342284 0.3304962852199082 0.5242888151264584
P 3.1570461067520155 5.9576932428200555 1.7431175784006758 -0.7068235127310021 -0.08114967219713766 -1.21896283697912
Ni 7.986533529568019 3.6832498155429994 10.724166754033453 -1.0766818446883006 -0.483065032589981 -1.0505627790037455
P 5.179934513074957 4.084723618978464 11.367179360960113 -0.04320250352940302 -0.8378379309690667 -0.013811451961795567
P 7.169058513622309 7.818184313621025 5.390061850435221 0.5855466334956754 0.1964281677571843 -0.2814054412305283
P 2.775782738404631 0.5598930207481281 9.139247746910993 -1.4058720095022756 0.6351815229139836 0.593519624398823
Ni 2.4821937208040237 7.195563850281402 10.0291716101424 -0.012637743368668557 0.38691914409432715 -0.679488829471791
Ni 7.920608573645388 9.346121018805238 13.497686479958727 0.8605821666441178 -0.5485849686696618 0.8074798875024995
Ni 6.101502540566065 3.05382455433427 9.030370981005298 0.5962938447098505 -0.3951803556618549 -0.07990911492181721
Ni 7.915073881100623 8.759638296737789 11.234706448546996 -0.5922821524472961 0.9417763189259457 -0.7201996769275919
Ni 0.5824665934068284 3.740367471771285 11.97042098371964 0.30105072626528157 0.3674342958968382 1.29105965494537
Ni 2.0185496523682533 8.320765917547591 1.0153064358484867 -0.3495373610117593 -0.059919302063451654 0.06635837282057604
Ni 8.695762196849316 1.9316911356984259 9.045351734243292 -0.37873557984227035 0.7937725652187361 1.9365489875432644
Ni 1.3141696353397403 0.05847861580210658 3.1001889611778473 0.032442693909737676 0.06188336776835794 0.5178451163836436
Ni 2.7510110491590574 3.0047169054069487 7.846234172521252 -0.459861340780008 -0.53590094544409 0.6532486648283394
Ni 3.192405097314373 7.684943775508232 7.696543452747776 1.2615567603902467 -0.7085746910941539 0.9868891521041843
Ni 5.8787798375587075 4.843347331282371 3.3700186654556417 0.599194049075781 -2.903950720346799 0.8021643888268573
Ni 4.482711585903325 8.839098681664364 9.779017413381776 -0.07485149789325174 -2.897076876045101 0.7345232926391156
Ni 7.090108024993826 3.01274545439148 1.5616482671616392 -0.26228260435814826 -0.7513951286937898 -0.2857405782707724
Ni 0.2985832200693912 1.2443601967098121 1.4236397351195804 -0.34249562367362946 0.7019852108020943 -0.3408040949038195
Ni 6.858911772596329 1.83936282237632 12.632551920572281 1.1007229447979043 0.09617571329232469 -0.8556276508523201
Ni 2.2418842309333233 1.4525184072752546 5.1405454875893035 0.5301686709460031 0.4195932372885806 -0.9811352803395426
Ni 3.5724447145463323 4.7865448836747255 9.168542679862748 -0.9215990726471225 0.5562131746388809 1.3278464847564164
Ni 2.8278570567026797 3.5927849414193815 0.125745989614993 -0.5095057432800129 -0.936384458486413 0.233815607266707
Ni 5.816609572558402 1.2284885155764205 10.616064103416683 1.5348017772971696 -0.6531386216130365 0.7948514001052117
Ni 1.8113463385065136 5.876100564283269 13.423695891684428 -0.30037452613386334 0.10084097997847793 0.10256336198622336
Ni 4.087718100874542 2.5181923994494437 10.032577717413668 -0.6322239829475563 0.7638806627553103 0.14598415217401955
Ni 1.7904962153353703 3.991245721275202 2.8393556817667838 -0.42132744637086794 -0.5902142141746738 0.3473650359507889
Ni 4.9811676652362245 4.695838967664735 7.391272247415751 0.49092232385087065 -0.5422536271349951 0.07526904504664457
Ni 5.338790387035624 0.9561946215525655 8.288550669434027 1.3666287477309367 0.542247199377092 -0.3676973197502377
Ni 5.791550487217539 0.5147699796193648 0.9226007992657915 -0.2686867081122792 0.668713593233158 0.8545164200660121
P 3.6439321755390783 2.652675230361229 3.924304681093095 -0.7706524342615051 0.15971744259971202 1.2992280496887754
Ni 0.5132875720181795 3.688061382428648 0.7836624017928452 -0.7662764166809964 0.21412301393378605 0.3402826751827107
P 5.617240120003739 4.187249858262446 5.46463650174188 -0.8351429006354067 0.05268498909854153 -0.05402273407335857
Ni 9.265529591181073 7.721322558666776 4.227052363291645 -0.9463515970014541 -1.6089253958854617 -0.6592149097141033
P 3.668490635423631 8.255805129170446 5.081263089804565 -0.3303882988871342 1.7430462209629913 0.24335002911970352
P 0.9981915348319249 6.0472588452906715 10.96375126407668 -0.7518558703802923 -0.2847350198243935 1.2939853132325974
P 4.015535326748032 1.4987428244079004 0.16177155370158514 -1.8671855093477778 -0.907903834548217 -0.2245218406696069
Ni 0.6615617071671335 8.335701243660848 12.554504411933513 0.31612536121021684 -1.0892604526842595 -0.2614696215385497
Ni 5.158602306131071 6.827084972753495 5.218959194478519 0.8046318765307433 -2.266017859939923 -1.7443446280594412
Ni 8.544953413556746 4.127897929164331 2.991475362087543 1.1204363640664317 -0.6268881725569396 0.3778652614221751
Ni 6.823497156983271 6.183679282135213 6.972226490463797 -0.29815797809851874 1.878766786427474 1.270812731770876
Ni 3.3178859408543566 3.9989868741644434 5.889747243388616 -0.45842229434063636 -0.874508804027539 -1.5875289324875563
Ni 1.6179936622693574 8.391066710792046 5.863002719011508 1.0897327643349877 0.6795258533573135 -2.0501863479554627
Ni 5.211993083962381 3.1439556781536813 13.40480747863468 0.35869743024447254 1.704879222974967 0.1473290962376882
Ni 1.6633466202743519 1.211587771005058 13.089156638841821 0.5217074275525273 0.7308296458376122 0.4400851865943453
Ni 7.816024207485464 1.0043195612508335 3.0257366849827303 0.7297109588521368 1.0349207015911144 -0.01832759466459424
Ni 2.7604858494618183 1.8012782043296074 2.0546308415055465 -0.9334644566261407 -1.0058201846807322 -0.882464568539506
Ni 6.60428810301187 7.412464464648706 0.8642343606492655 0.6253552808521811 -0.0654011511136293 -0.07689501068584177
Ni 8.947493363797316 0.5611112093584831 5.277155976690407 0.02779208251160375 -0.6120459653377847 0.30234604803793735
Ni 5.802360288737127 8.293565267754735 12.53674333324464 -0.26695378458157254 0.44277610316294713 -2.015881404026006
Ni 8.587905223539808 8.2038976860245 1.8618316345228665 1.5618942626385874 0.48713226068081916 -0.2615166727264013
Ni 0.9711206768240376 8.399744218701425 7.9087326253206935 -1.5583029457429034 -0.8278409676573549 3.6379477081687988
Ni 9.074698583909036 6.994553458731056 6.487385569374179 -0.5802365341366716 -0.8908566492579432 -0.15460300419128212
Ni 7.976762062328186 6.414328554867483 11.310583653124242 0.46355473047119516 -0.7745024041352145 0.6116165911098499
Ni 3.4674431605061504 7.233184926238938 12.177996985421077 -0.6094339816362343 1.2536125658425055 -0.8000910512375963
Ni 9.013881861809125 6.501752592886105 9.17011686879759 0.25077074706380686 0.4635989534455693 -0.5393325968334582
Ni 1.9083656977710821 2.3521330814229793 10.681356787929678 0.6625964245918265 0.4751336935580463 0.021079446378118535
Ni 0.16142482421888138 3.4236847872879217 5.481407454528274 -0.009366528816564513 -0.3056751124111703 0.9165000608576602
Ni 2.7961878611701656 6.336054837689198 5.8165567287602356 -0.49154607347779855 -1.008980327576269 -1.065143762141714
Ni 2.5215484441750786 7.315417292858787 3.422760484362104 -0.24424657279204387 0.31057640636752964 0.3048734424454814
Ni 6.978904277800468 5.119210499392882 9.06593485717107 -0.1443666711752546 1.4886435335735526 1.0329880033447758
Ni 0.7495633186288692 9.774712034457508 10.342028218221705 0.8248628588656376 -2.945224639394921 -1.8939558354630865
P 9.113218931519574 1.3409901806194724 11.956839200506778 -1.4948113529471612 1.2660834446160065 1.2934106716760498
Ni 7.828651093994623 1.7460425289833774 6.942035994195754 -0.8506960178786576 -0.9781551146652959 -0.18795175485505694
P 0.9077757961697598 5.264781257077761 4.682666028574528 0.5624825525873602 1.5756566065300024 -0.7392764910533848
Ni 1.6546042164724897 5.967891168781931 7.762013210338837 -0.3300136891565349 -1.0520542759476075 0.582360779568526
P 0.36179923602287806 3.353198577207796 7.800372245302341 -0.053248317801179265 -0.4310562436228576 -2.48514835439063
P 0.4817212828294619 1.922828210953378 3.9128385039752343 -0.46305336535474445 0.9234260985535322 -2.134138522598402
P 8.13865877239385 9.22896539118686 8.39839067580103 0.19116486247571593 -0.75179956322106 0.41708538326506234
Ni 4.9963811166029855 6.660654821055689 2.7258119741072635 -0.45649653807283314 2.6655240966706417 -0.9975941972265142
