# total energy = -340891.12437208137 ev
CRYSTAL
PRIMVEC
9.10180366084953 0.00000000000000 0.00000000000000
0.00000000000000 9.10180366084953 0.00000000000000
0.00000000000000 0.00000000000000 13.32140968206451
PRIMCOORD
 96 1
Ni 6.436586116911659 2.129066576980904 11.657832072778332 1.0248540613837316 0.26372036524593934 -0.2587205980385028
Ni 4.438922277533723 0.24124603317780216 6.146218560247713 0.8504551055124451 0.627402650299513 -1.2215845908726832
Ni 2.7529497001363654 1.9203440183668397 4.816368608956629 1.1665087329444621 -2.4266459872793624 1.0020401488130097
Ni 3.500316991821262 4.249322608142061 5.007331728517502 0.07981758364927544 1.2698454827616001 -0.7177774406393445
Ni 4.696594335547161 4.306472832524484 2.5569642053860946 1.2433086128133362 2.350029427065888 0.20276259461564433
Ni 7.388307101514879 6.065023191292353 2.7747166632850453 -0.6505500349502539 -0.6028195616435101 -1.0845936433362096
Ni 5.04709568779158 4.466509844041626 11.451949276866502 0.24044211144428912 0.84591813687404 0.02509962328110516
Ni 5.591219706589155 7.659868511719363 12.49279148094144 -0.04596669653810148 0.8129223986743096 0.15104896829143663
Ni 1.641564877960849 6.701530515947801 0.36205154092753583 0.9244972201305239 -0.2117480859437063 0.09539255526939701
Ni 2.8139590892166932 1.5573822970860243 0.4626938233110678 0.40503462274811536 -0.4906934956695162 -0.46273969076906757
Ni 0.5924200087032941 0.20498535808349855 4.509004344375541 0.15818352245368889 -0.7264173757025295 0.542808985417833
Ni 8.877407668497872 2.3295064943801247 1.4205949325130551 -0.518875614530687 -0.007999473265708804 -0.11387235924113938
Ni 6.92980374855031 0.5099148902195636 4.743407641657387 -0.6861202187453797 0.27242097834373086 -0.0033452623231490777
Ni 0.5071606844705397 7.453075535454251 2.3777251189558144 1.1254847251236166 -0.785852281930395 0.8906977550825758
Ni 7.876746286298811 3.8263071871518624 4.19351307942002 -1.2199971917809054 -0.5869725673089246 -1.2028595036593541
Ni 7.928362614133294 3.834608031973772 12.915692219207127 -1.2559664107866628 -0.5626165070620633 -0.7116859830296258
Ni 8.290268526204306 9.02320035748619 6.678449252368985 0.45148057291548055 -1.1939298052698921 0.693015146093
Ni 6.804653949974373 0.38930234070472525 0.392238582524405 0.7160504306459087 0.5600199499794808 -1.0690176432748233
Ni 1.8501327059148558 6.641413103613687 9.383094770976452 0.38925679108856837 0.22144654417839282 -0.9616324344199244
Ni 9.3179713666993 4.812578617965573 1.2266937507717948 0.4427048836053796 0.08793327077787437 2.0182763866207436
Ni 6.626959439603608 1.5382047970424244 7.0499166090511975 -1.43784007776844 1.3225451271481612 0.4063266020866615
Ni 3.2806540653607774 4.5798637052390605 0.4446485876269476 0.3448088451878384 -0.6351892362234673 0.21465343251595936
Ni 6.016301236981298 5.526587799702774 4.815063410330026 0.044490369102891114 -0.5914365166175493 0.16805707281365895
Ni 5.196092211623441 2.8108644760155426 9.231803682473974 1.5820931061839656 -0.36747389088552196 0.4977177495061493
P 0.05453436604709697 5.632860457751693 12.571307278936747 0.8902300714175378 -0.8502324479786776 -2.1353171162875357
P 3.9883830026603504 6.148350202635095 12.514797821523034 -0.07425834439394308 0.5393958459712259 -0.18635175735778875
P 2.39106199167242 8.576793301416705 1.3316630305548178 -0.7409775329048917 0.4937219980831949 0.2782887499784175
P 6.468251291402255 7.79804299115073 6.092067380129348 -0.3216547756688783 0.3976463007038442 -0.9405658435576124
P 4.883663703556706 0.927619408848377 12.689455060054904 -0.5014679605772009 -0.17593030491414863 0.5170722427733611
P 3.9612687299361524 6.350828924025661 8.230899282120587 -1.1040126712927696 -0.6205010380836733 -0.16378801312465988
P 4.7567299514883405 0.7869947239059814 3.8217662973693507 0.4469765143975399 0.874552769891597 0.7617039668189656
P 0.10814398885526195 5.492137473331144 3.7842532141089347 1.2910087471027767 0.4088642809068507 -1.3058920919725123
Ni 1.6588856100837586 1.3205988781803517 2.636719669022568 -1.1368016927983324 -2.3110579308986976 -0.3194243436764628
Ni 1.8439889885302188 6.546390274731303 4.599962307800179 0.11282052093785733 0.4609939117225545 1.2142194087568636
Ni 5.833791872541685 5.78796429175406 9.19227910063281 0.6035446127349928 -0.5842227724779293 0.8335812125752419
Ni 8.72583533426623 2.7165788932193147 10.414851554764953 0.3200918020571326 -0.806290752290405 0.15092478400874654
Ni 2.3920085792398305 5.42029693804679 6.91045422441994 0.7429583107803462 -0.35097717878207935 1.0537684304252368
Ni 0.6028534060929376 0.05400282072078172 9.120649727190415 0.15694090829583937 -0.6744872624921416 0.216230290084776
Ni 1.5036361472248672 0.8758401587306571 11.728635002459948 -0.931595521738202 1.9324640188406137 -0.232841930499528
Ni 4.043266877963107 6.91062624850671 1.3761417240588825 0.09878126923597182 0.45316695947896796 0.43083152920656126
Ni 5.407809263599794 7.958425871202118 8.062890000889071 0.9944376538754034 0.6925842292031685 0.4235653345624512
Ni 5.338016634110319 2.864346673574248 4.810134783717018 0.8809633014036312 -1.033696599376026 0.04618112654175273
Ni 1.0343380552704031 7.331129571721858 6.76409176253047 -1.6785691243255283 0.31436389843441986 0.5459979246687757
Ni 5.07451032003236 4.601198332719933 7.019583938597804 -0.2238890921816144 0.7185017203998788 0.24684930052221357
Ni 8.03784820882929 7.313635905331825 9.14765204773116 0.06659465720109821 0.4648413104931027 0.3263820059412186
Ni 4.8852201119608125 0.5481588483036635 10.486693910410015 -0.5797577947280403 -0.5219424263814688 0.1823045838716086
Ni 8.244222502131894 7.167406329773934 4.819792707445666 -0.17464655310571855 0.6670351770894706 0.3172964987001826
Ni 7.160570875320805 6.075135295017288 7.112380466336067 0.7057760453030942 -0.4197575307805867 -0.21181724861874487
Ni 2.307370908188366 5.523247437806239 2.601617653517989 -0.6274337606477646 -1.2662274263930386 -0.9608225369241195
Ni 2.215588321363657 5.412442081597987 11.440333555197947 0.526121497459823 0.08982791669742593 0.1742421185784483
Ni 1.2726869843837167 3.33210656073167 3.875397764505994 -1.6975312672503282 1.7043706587696648 -0.14758209278875875
Ni 3.745455866370041 2.401183197200888 2.6829986992654193 0.4620004986101979 -1.2170463366826973 0.034459210119134207
Ni 1.236398093698461 3.733778252437464 8.527966676365024 0.2626962948567992 -0.5250750584731796 -0.40109749247723825
Ni 3.9616237002739316 2.585904299898971 7.057056973922675 -1.0954030752468877 -0.00964960727462209 -0.5757229625370343
Ni 4.216101025247359 6.945568072269112 5.886850836236117 -0.42882889695423565 -0.5835555712075756 0.5777693035431016
Ni 0.8328241250543128 7.547488543499938 11.570976292205927 0.008661018109107665 -0.593093849715314 -0.8282479732877865
P 0.16997163007318788 5.828276179600811 8.113724483800086 0.14287825955518618 -0.7160424602261087 0.006467610002214669
P 8.60963260856303 1.595118374532994 8.17606819727832 0.3845038497846152 1.2788880525798425 -0.7211059907919452
P 2.038840398560303 3.357027298804464 10.6422746789175 -0.3084411051920817 -0.3376922887477152 -1.6734500579314082
P 4.03390112212786 6.117677124729575 3.745261087774439 0.1071016161762091 -0.03656005851222091 0.3576275942190615
P 6.782618483621476 3.862541467015921 10.243430917569347 0.7299446721294977 1.2503511214824143 0.8679190666251633
P 6.384096015938028 7.95716072051106 10.41273265490252 -0.15226689985893774 -0.7813893610630348 -0.40415067748126526
P 2.370592035527163 8.612536083889992 5.7521714493613425 0.06500674388868803 0.6667253591585356 -0.787370004126502
P 6.70566273475169 3.9718905346589253 1.727054477822983 1.005227802512372 -0.5096664372275932 0.06575082114356419
Ni 5.225682174908559 2.788737991627317 0.4827915156918333 -0.18898430988462936 0.5997692048529606 0.02150213573783394
Ni 1.5203197531004813 1.2584699672654902 6.968842294082823 0.1036995324731956 0.41999072983731534 0.44923754251757475
Ni 7.069762181474105 0.8367242478681156 9.44695757546431 -0.3007589060564756 -0.4629554063242995 -0.2374408627241201
Ni 2.9053958075071558 1.5714900925618571 9.240968288451144 -1.4298619446589698 0.45823846046460437 0.8548005269653343
Ni 6.339032986647159 1.7337115369268699 2.4361259311436427 1.2392704381882205 2.1516757601512166 1.4028964718137196
Ni 4.125483469274847 7.296706550760826 10.453882818854641 -0.026274360315496684 -0.8165209146588454 -0.5266472880563059
Ni 7.979460139166408 6.985798043884068 0.2783158586061713 -0.07098815828310354 0.6517324852941292 0.49864823174021866
Ni 7.912725715663951 4.0162163178636385 8.34349223254268 -0.8779520253811331 -0.7548830872423902 -0.8178062091291721
Ni 3.212172095580025 8.437353671294279 12.477791708719394 0.267262574071243 -0.3239739107203582 0.4748017641399242
Ni 9.111360426504845 5.121220775762666 10.309958730131607 -0.13684593731817724 0.3589164882338141 0.39610312458644037
Ni 8.685696380686602 2.189384228992739 5.909976698652243 -0.0466539524131132 1.3824194349062902 -0.5327711415658567
Ni 3.819480834502266 2.605709824386334 11.616669166301266 -0.9938658405323334 -0.9172019720206913 0.08197679608412334
Ni 1.4376207662015021 3.4495289281082635 12.700871452226089 -1.322638715303232 -0.7795551360677736 0.3668408852872134
Ni 2.901645864451644 8.559099395348952 7.879293881107641 0.4918821166609787 -0.6183837346303545 1.2877156781738015
Ni 5.548204583093163 7.757276013127339 3.983620939051992 -0.08181481658496233 0.3864260065079926 -1.3476956582718596
Ni 2.937343137907267 8.46063608473117 3.5694979801133333 0.7903748523910968 -0.020090857212604108 -0.3040198361959345
Ni 3.6112770786895707 4.322355479689212 9.154033322188003 -1.4878061252739216 1.3056871750505579 0.29721926833433326
Ni 7.017299385911072 5.974168988427988 11.53125147068704 0.8902048746065572 -0.3506401071576349 -1.0054008377551265
Ni 0.17885134959978308 8.84230201227188 0.26231215745445713 1.6743761692901034 1.6720580626798878 0.7980282551712966
Ni 4.818367365012431 0.298935084329366 1.624998685350808 -2.018575920139033 -1.8782931892251653 -0.21761174381333492
Ni 5.93438500518614 5.498954724177207 0.3697543972573406 -0.39098431530263633 -0.5336463450819584 0.4600042941157755
Ni 8.060093016663442 8.905614157646005 11.506260648727045 -0.6123372713259583 0.34109025868567067 -0.28816847098597465
Ni 0.21856615913478258 4.947312615661543 5.908471260347918 -0.36779322189815367 -0.5824214576031325 0.9465248893545248
Ni 8.015448670335081 9.026404192329734 2.3940837904453076 -0.625533201190942 -0.4320494607740624 0.4387081037411606
P 8.371656853394562 1.6713004701024916 3.563517185011934 0.8933423917942742 0.9827278216376429 0.22218907877137217
P 1.9388843921631438 3.2029883758154347 1.7347009029708846 -0.29557787607616837 1.6412516188219928 -1.224949393579858
P 4.714006085705399 0.9835955005750687 8.284704593704708 0.8731234936442381 -0.8541739491249289 -0.9607562024625582
P 8.638630954618517 1.7284142872707828 12.497507125351781 -0.37977559107101044 -0.4467065485656049 0.46144539743767626
P 6.268494009267994 7.4984116188511045 1.3933796297696437 -0.8087685244069361 0.7997976883668936 1.415606206070904
P 1.8967157363957026 3.388182772297222 6.195241784255703 -0.5813202541191537 -0.6336638007178764 0.49542124016248873
P 6.912856190372245 3.841534504462229 6.218873706948253 0.42781382542616003 -0.18489702718913317 -0.401094921374077
P 2.3528435186382115 8.678633381145152 10.295758096259739 0.7918735484238104 -0.4893349247590927 -0.2392599182107299
