# total energy = -340874.21769928123 ev
CRYSTAL
PRIMVEC
9.18676511049780 0.00000000000000 0.00000000000000
0.00000000000000 9.18676511049780 0.00000000000000
0.00000000000000 0.00000000000000 13.44575935166104
PRIMCOORD
 96 1
Ni 4.848884834731796 2.5635024799323705 5.30605960407772 -1.2844565478065557 1.0272269324912824 2.6170132935544475
Ni 7.22209266341214 0.9566362182184023 0.6011681247444102 1.023336339187625 0.5093388786848454 -1.185477560737481
Ni 6.102005521418704 2.6062117506512408 3.5174377892259834 0.6210592245799885 0.2599359585028427 -3.382411164285233
Ni 2.152247755690399 7.33611879121653 6.041502405473898 0.6615430436266478 -0.11229781566516787 1.4792566930420135
Ni 5.454586628028532 3.936721746121922 9.321474260944052 -0.3078083567040892 1.5823324758882813 -0.08106071202775716
Ni 2.8041038565998693 0.8476784286922651 9.531577414997546 1.2572951569004154 -2.1186437693969125 -0.7655462233831913
Ni 9.040364762463737 7.351084031483478 6.79434402119885 -0.4309559705995674 0.9646074578878484 -0.6925374351256331
Ni 7.810532525179353 0.5530919458831519 2.9497976822091676 -2.2791235440839457 -1.4122578584239613 0.22275163614306154
Ni 0.3202873767138476 3.6736219818462255 0.40577114418344445 -0.2964911319190571 1.0979811203867091 0.8386758534893297
Ni 0.32398964302912064 1.5428896299036416 1.7322169147958706 -0.25746615680611146 -0.19619574003140405 -0.8316672833819806
Ni 5.328645265953894 4.5364797024311105 6.862352724189756 -0.017443135177111893 0.07156974181818641 0.6839070131441447
Ni 7.256579779410987 3.1653550186730284 7.994633459434462 0.010716615086555737 -2.0775835090214927 -0.12816383616314703
Ni 7.835584833471535 0.39963622248285047 11.501556077383865 0.055192586011743656 0.5700282261451022 -1.3906348808375468
Ni 3.7361654783087044 2.3516464911072776 10.830599773258305 1.1321420825391342 1.1269304564312075 2.1854577416976686
Ni 3.757212357038954 4.912053031217696 10.8298868802904 -1.2914653750242209 -0.9699545811323746 -0.41742965397835846
Ni 4.87908173145215 8.914643882750307 8.196601733035912 -0.1130794310261988 -0.3523828008803544 0.8331274128672749
Ni 0.769977688573287 5.414431277993647 5.224403961604585 0.7581640719865071 -2.006094499842571 0.6472271412246079
Ni 0.03369246082199507 2.0361729792797902 12.402355137626513 -0.2885867894703159 -0.2001575528926295 -0.044374155240001
Ni 4.0405321911903735 5.848423245735124 13.141978835797085 1.602406878040653 -0.3026502095419175 0.640593180847858
Ni 0.9387128396052564 8.37807249645712 12.52034167984409 -1.030966859149689 -2.1701486221444237 0.2606633235871705
Ni 2.192191810129127 2.1737080388479124 7.6323772652648 -0.04448265579340726 1.5467082989267686 -0.5516996030392434
Ni 6.631291803027 8.295584533070429 5.649504978130377 0.23412928185238388 0.06458791118371457 -1.5539649804891817
Ni 1.068678004771927 2.461878484945893 10.038052958985933 0.6790142038282176 -0.8303490787911894 0.43238087597155206
Ni 4.067173809836258 7.16312281855423 10.820232508899037 -0.3921791069416859 1.7727442622480567 1.825608971457572
P 2.881401297733139 7.938935940287471 7.992966061577833 0.21926496314604174 0.591170407440356 -0.41078232386516994
P 8.801453750565495 8.863776764666767 4.837972795205043 -1.222887883065139 -0.35355059593621047 -0.6899586186548634
P 0.9983257580166882 0.14844985512439005 10.530571050833393 -1.3924009715990342 -0.6426338654269707 -0.7644753589165156
P 8.402068326768516 4.848866461201695 12.17513520293129 -0.08591341213436816 0.10102558518545827 0.13935276290043097
P 6.84726346259463 2.214625890381973 12.251224584460443 -0.29719355730272046 0.8079671115515634 0.11410478696691963
P 0.3126081598082973 6.129179972437507 8.462774470220936 0.08458312335871886 0.26698052405444983 0.21109348307884293
P 1.0317012754444477 6.042438536832524 2.5108209757513946 -0.585503696072882 -1.1140916527953264 -0.7012287922520439
P 6.499976183397934 5.905399562577119 5.630815423312035 -0.9377407154039915 0.664078922674624 -1.4184444468506474
Ni 4.764265541853432 2.2464488445162307 7.82777148979625 -0.3462419780899392 0.15227512738905388 0.45896248311482246
Ni 7.09423126744199 3.731287306066992 0.5945986690569368 -0.243585027948645 -1.0317934688160424 -0.37028462086143965
Ni 2.3928215720627466 4.724027510933095 1.103631808435329 1.0631899808494527 -0.45155796312063523 -0.9844018669059562
Ni 6.587581174917647 6.964854055238539 7.509778966991969 -0.9881536206389046 1.0882991172122547 2.358177252984003
Ni 9.00347990078676 2.1287388239266676 3.9651272236574666 1.5511187692896384 0.9852084219676517 0.8746664126513258
Ni 4.817365043844198 4.489195422717188 1.7757952534884993 -1.6716495143875598 -0.6220961504849349 -0.36669921750302653
Ni 1.0039021244022235 0.13028027120789604 8.241120796469692 -0.5804805318266777 -0.775860717935322 0.5393017435955229
Ni 6.15061269529987 8.215586183012368 10.092628774120284 0.5674712640512033 0.26617525454433516 -0.2042803168117514
Ni 1.1264995039985493 7.374363294120952 4.121582425846692 0.778774292037691 1.9108646954032833 -1.274250039587199
Ni 5.90393886693412 1.7585030056343094 10.194292272196478 1.0471473255642936 -1.1105887818483906 -0.22009620079808545
Ni 8.243890606132359 8.004226279499992 9.184220316386469 1.3861148814800064 0.052132459029181184 0.10097827688729061
Ni 3.269532934343492 0.3781511350597012 6.387165464609699 -0.08417071841164858 -0.2327041193700831 -0.16898395550330253
Ni 4.514312038364723 7.215276083744813 6.124368863580663 -0.0002604527502382611 -0.4384674484852642 0.19477314865226455
Ni 8.67049641477339 5.983872909636827 0.8228364973197343 1.24867116267683 0.3360385551943761 0.06013938849405771
Ni 0.9089284286356613 0.8338716394981611 6.054329885513639 -0.8114771815873509 0.3632184580432777 -1.0391231697082361
Ni 8.167272985612811 6.7032425469009915 4.546925972969813 -1.3992745587904158 -0.046243090127939715 -1.4062193655393653
Ni 7.057971105788434 7.434683593441258 2.041496709626442 0.3700398518404853 1.3736388605001828 -0.16176146961293433
Ni 7.829686930309239 5.17055022620319 7.16115776950997 1.7011999743511672 -0.6853684281810197 -0.8805483253533997
Ni 0.3930410438532362 3.889345598757497 8.307072582765834 0.13818008274856847 0.13531561671657985 -0.20488195495149233
Ni 6.820300307171983 5.112985956397976 2.6278530130802453 1.2123900688576086 0.0845844089102995 0.94573556068401
Ni 3.126265333383979 6.025130671477749 3.099718338418112 0.40366859563852414 0.6783094644517093 0.0409504742704327
Ni 7.871422403932776 7.30719885483817 11.647120369605956 0.09133921113562979 -3.732300509319772 -1.715473710661362
Ni 7.83964538362377 5.474246305236185 9.582201083807254 -0.9558235410476313 -0.6527069333922566 0.9236670109197447
Ni 0.993447585774976 4.971987486405888 10.616637259207177 -0.5513327066181279 0.25108390742885145 0.3124237439889136
P 8.116580416065226 8.323549045883556 13.348640627662736 -0.4306140138791165 -0.7426436077534049 3.0069534838632856
P 5.421183550305621 0.764652120873625 6.443651208198007 1.3657368320442866 -0.010306524132330637 -1.2001683299804362
P 5.576099969348921 0.9901036032966648 1.79311322428483 -1.0492080647480642 0.010002876848982774 1.9216427598553936
P 3.2171040662013985 4.480045404727084 6.432545327928692 -0.48413589705665644 -0.6329698599746454 -1.492486047248094
P 5.863590594833179 6.120764895651428 10.265245333386005 0.13147490281425098 -1.650187487859042 0.13056087564041385
P 5.018408210205082 6.756966748915178 1.6632004236789464 -0.5427323665436266 -0.8052666819012649 -0.4651524139756183
P 8.186087480435837 1.3055587415940517 9.0303870169426 0.3855808848988779 0.6567440795761077 1.6346819360242753
P 3.8897038825944588 3.403742384963403 13.173455448888946 1.1406784021449194 1.3075481395186965 0.04721933799827997
Ni 3.9212236734820567 8.654979968603426 2.120840043336415 0.34647980513235815 0.3097050595061699 -1.0504113410275457
Ni 4.666637789663837 1.3725302588107784 13.032100532412908 1.128705031833127 0.24116407721197822 0.2509422396446646
Ni 0.2025011059743669 8.157452333774035 2.011835401308521 0.3127716142466355 0.17979235897271617 -1.3466438199685775
Ni 2.3987102884599922 2.350369530765285 0.9509624721233337 1.0126528913318495 -1.0159801559328696 -0.13672638102117746
Ni 4.397235904563631 6.3977826089783365 8.644668743510962 1.3280002367254613 0.17682016371826967 -0.8345582317765304
Ni 6.467510155710156 6.009586665012632 0.20738479027510925 -0.36244044222667254 -0.20467241004384754 -0.9591952857333416
Ni 7.282440523027597 1.4123548853038523 5.176617165842411 -0.7665669513382218 0.18243056792651163 1.7047506678169027
Ni 1.9037273875495373 7.041186886041527 9.752612819460905 -0.8001928669227831 1.960601143396462 1.4230338659935429
Ni 2.4056922298982246 5.468780180031253 8.212831072173781 -0.5533451090624664 -1.7637947663642526 -1.177427693849811
Ni 1.360642584835683 3.7158351672523784 2.7770874179399314 -0.3170116204699121 0.31631202329972624 0.7810983121851773
Ni 8.038226496951172 3.016318129261924 10.503262473044854 -0.8601720756898927 0.964534695668384 -0.06324348134067818
Ni 2.042989558947117 3.5052928858294794 12.197334101998848 -0.7195751559697156 0.2622972596461676 -0.11487817479783442
Ni 2.1154088278386745 6.889495021530883 0.7090584121717018 -1.1997284142295401 1.553305492528312 0.9308853830450547
Ni 5.827229378764069 8.168154915057642 12.694168136066939 -0.1409267922557702 0.5419839184133762 0.15556742498708048
Ni 2.07467471160562 0.9886061605934651 12.083071874332663 2.539039190871814 2.583588695347415 0.3888351301701174
Ni 4.845889949325397 0.5074153500530334 4.23597878028261 0.22277888983657118 -0.5222327039283781 -0.8664964752460238
Ni 1.7954154276064365 3.011789054092124 4.9478777402078675 1.2791492766610293 0.36382986637503145 2.0941193018929867
Ni 5.870728711277266 4.359799836983637 11.74122683475177 0.975343870468746 -0.5484535852981199 0.7015416955067725
Ni 7.596572767157739 0.3552099453760786 7.329835043922123 -0.14355394546597214 -0.2518989471309791 0.25175445113331485
Ni 3.4564192957618545 8.55737058994393 13.164446907080617 0.35345366534703 -1.1550210440198367 -1.0730761296149132
Ni 7.642534152704417 4.151269457106754 4.784417629667782 0.44576681036015486 -0.3514312356003625 0.4304193813698071
Ni 5.368975164524735 7.11018867833437 3.8148978921428323 -0.11465088927837674 0.09570391586222873 -0.06560375404273863
Ni 4.905907085399042 4.819404505685366 4.4301759693280065 -0.21970205068346033 -0.2989740462419109 -0.10912044637845077
Ni 2.196656577943575 0.9346339159229208 3.5274412576892606 0.23033021982126783 0.04780374974684025 -0.4657507096812495
P 2.294697734560435 6.377599286162817 12.068846168652264 -0.6537628854605967 -0.06213739276069298 -1.8857565874817457
P 3.2517106101458992 8.202926820773047 4.071523743087578 -0.24535883201961617 -1.1979013883231304 2.3669323734688144
P 8.405651165138137 3.4688122418147165 2.4354977704274354 -1.401282076138748 0.5598589989215842 -0.11628045446199974
P 4.515579811941666 0.08947449820744947 10.891239772002363 -0.7984766555626249 1.5882357287465938 1.1769016461430117
P 9.101318948572514 2.9693553863247626 6.319184321913943 -0.3791852657851792 0.34706524532218297 -0.7092092393543592
P 1.9405755021663122 0.1449019264619621 1.0721313097543368 -0.1935199929714538 -0.09651072803424025 0.1874871565138126
P 3.0562529969356014 3.464301540175017 9.217014311586544 -0.4291633974755189 0.5962380517712506 -0.8118142532117955
P 3.598621231975532 2.8303963781738433 3.5669314859345036 -0.10219440868257883 0.40113811590718657 -0.5754558249185766
