# total energy = -381170.1524302339 ev
CRYSTAL
PRIMVEC
9.24776215236161 0.00000000000000 0.00000000000000

0.00000000000000 9.24776215236161 0.00000000000000

0.00000000000000 0.00000000000000 13.53503468810297

PRIMCOORD
 96 1
Ni 6.001279824757946 4.3785657352061484 4.282593383364764 -0.16605264078912046 -0.605486309842396 -0.8094892046230445
Ni 6.038881226061395 5.803636649977492 10.786529776496598 -1.3479656241037945 -0.5165611074648975 2.046657765976914
Ni 7.455360969703643 6.91031635828635 8.161855788788426 0.2364085648048638 0.1384179097909874 -0.06461053689153388
Ni 3.1145353522346753 7.576663867120601 4.285909630907169 -1.2950199251446988 -1.0088121774295207 0.9765453469760149
Ni 7.088197065141208 1.6843226816530223 11.48274478306566 0.4365298651429192 0.0930847330718268 0.9782322477601345
Ni 3.6386800209697756 8.192999477713569 10.486132865817744 0.21996995963286634 3.2199184729332293 -1.6266616368229598
Ni 3.6331221158582725 4.800809311722186 4.630632915596768 -0.625267092013749 0.21029952642263783 0.16219161517181743
Ni 4.509846968089517 9.212703982072858 8.177678709996052 -0.6497439941091907 0.1743526760143836 1.4518219938698285
Ni 7.334437230538885 3.861921001654791 2.048175887330402 -0.23394750485888097 -0.4020097198788625 0.0899022215787871
Ni 9.265240519408051 2.9061370299589164 10.914097108060863 -0.2410424640324494 -0.5258625873714815 0.015865763387663
Ni 7.59185794049531 7.447010240393015 4.4561128455431085 0.746316685729618 0.2560926734973525 0.7526981637759295
Ni 2.071360027288038 4.6509123334320694 6.927393276054906 -1.7885151519290683 0.14810839760587396 -1.898283516304163
Ni 1.0830424280010327 2.4802868261658637 8.653218065127906 0.4364401336425903 -1.1854207393576166 0.955706812964109
Ni 6.618272026470576 5.659103373791655 6.088681350547182 0.45878019190068725 0.6269758471747396 0.5597728669656812
Ni 0.47918852211521346 2.9709453477982115 6.462599820656109 -0.47537640569647166 -0.29380407200519726 -1.398939029827868
Ni 3.088114495489974 3.9645526670915063 12.280945961266477 -0.18050455454839234 0.13941935447230827 -1.0683607264171149
Ni 5.7292014116372405 1.1906863805765746 6.669293780349423 1.228324480699678 1.2560222037252626 1.8077264347501962
Ni 8.414233693990603 1.0686066711307216 7.34687084688234 -0.13186211095034064 -0.3494422301947917 -0.523282485349131
Ni 5.254023644009313 3.7639317128669525 6.650804729285481 -0.095240603072565 -0.2808572820365421 -0.08125457320611812
Ni 0.23710800017702816 2.888039159238097 3.7573667264465596 0.14339685106281755 -0.9787683227692627 0.4914915660907794
Ni 7.784192899744976 5.615084025487568 0.34251584384082046 1.4180053024306998 -1.4574722501770705 -1.852221431838778
Ni 7.213263801793411 6.4999746517844645 2.3576947906914296 -0.622503927446315 -0.15510874018310705 0.21075718278534672
Ni 2.003046807556464 5.397835594739747 2.6699482573494144 -0.23719120860715925 -1.4106344638879253 0.27222763138600214
Ni 7.47198844622691 7.941543574407592 0.1521617552648376 -0.21254744191655006 0.3240656991032161 -0.2572283297636925
P 5.817295594818908 0.03404748627125196 12.293195547141181 0.0293537705717688 -0.10825604149562647 1.2865702517154487
Ni 0.5343458752717051 6.591037366647984 1.130554656106476 -0.19163434591296674 -0.18879430536101036 0.519947250328311
P 0.23464162198528443 4.383910941785931 1.397208331892061 -0.3087061859280103 0.5162865136472722 1.4268702090204974
Ni 7.282917947051055 2.4070630446801986 5.32871597014008 0.0045719356413985775 0.7298338575832463 -0.23830038251093794
P 3.895971262254718 5.050202964046689 10.306373938450164 2.045739882148335 -0.17882819528723395 0.9547323648659815
P 0.5505183618923328 6.486352697992045 8.297464049627989 -0.874232667548017 0.10491129339310963 0.293591698884075
P 2.1642445513145625 1.7243192533789005 4.993791614329266 -0.7171734885067584 -0.8543189593432255 0.408950927083386
Ni 5.849348338773103 0.0669954136111266 4.679061596941064 0.39231948917429205 0.42261685460625276 -1.997874940146256
Ni 4.476203609028535 5.928194759706012 2.4194550460935345 -0.18953606862304131 0.976253783877525 0.23167670654683323
Ni 9.034212922909582 5.603700030159347 6.44093046415482 0.0028323272424725415 -0.9068553386790447 -0.29968032828031615
Ni 8.989361276003105 7.995189843212637 6.675560064049181 -0.6370679413034189 -0.6368206011793032 1.0024571817457704
Ni 0.6833818868964625 5.045745542642788 11.585638160174017 -0.7820727602833047 -0.6967316757126388 1.5940173684253776
Ni 5.539779497495932 1.52464157090372 0.9765082068953416 0.07153091816045101 1.2459702188058994 1.6050471438769778
Ni 6.123535241686525 8.135191715896582 6.654378064618402 0.267238662811843 -0.9778496676097354 0.12116220803433327
Ni 8.639167015167141 3.0462776190765934 13.56738367216669 -0.6294723883443482 2.1038079899356608 -3.1323672680851216
Ni 4.678026772345428 7.329387952351063 12.311819615533954 1.235818217973562 -0.4586639780377972 0.17414981597495816
Ni 8.892611187356602 0.22718792561278556 9.638703999614341 -2.4183274401113386 2.2618724703129818 -1.7182569298334536
Ni 4.43930503765599 8.86612559627616 0.5822659296923187 -0.4765483145173857 -1.5953574273930395 0.18212872041537667
Ni 5.240290717069907 7.169355426636307 9.091943003523678 -0.024514954422228747 -0.34061923258652305 -0.291726106430246
Ni 3.8619487449415377 9.07152764358332 5.983703527827958 -1.1388647459749484 -0.15700724275740055 -0.08442654317619654
Ni 3.3695146529574282 5.796488129759203 0.39152805898301246 -1.6739377962011042 0.048349594947981245 -0.4834393852102642
Ni 1.3753087061107772 8.792448674440305 5.446186594881152 1.6251053480794337 2.598056807056603 -1.1486827605066345
Ni 4.17373704915841 1.7788163163108306 12.47575562169391 -0.27275136509995607 -0.2778840583408311 1.0830674364996702
Ni 2.530539166225614 2.9135444875201713 2.822988550027884 -0.24894166427486805 -0.05406669993741656 1.3186972141569806
Ni 8.179423762732393 6.216318040328314 10.247646024289427 2.3647353658174954 -0.842489056587833 0.055379762321885274
Ni 8.933680499503335 0.14785044850446669 11.87764272661212 0.7869411441191996 0.3884085841556601 1.0694979253453516
Ni 4.325844242625981 6.2848532063538585 6.977148086505674 2.5303696881222746 2.1336039902511708 -2.5387612546200793
Ni 5.321735759194719 2.5155392958581286 8.872796931962412 -0.703756186659588 0.6213189059992783 -1.7318806912644755
Ni 7.8393465537965685 1.4358815488401415 3.0652114875047003 -0.16315037954066097 0.2369011881705662 -0.6867853631332043
Ni 4.675169213810562 3.753028601175667 2.3003873328121016 1.1517914813389454 -1.8212962030148312 -0.5987811299080785
Ni 2.61492499674553 6.586885121398292 8.773450071676455 0.49873822035086374 2.121599509591127 0.7472744216571968
Ni 6.99958500727361 8.09590722186386 10.771139650562215 -0.6298963632556442 1.2914795160916082 0.01737680071555072
P 1.3329816982982123 4.4136887362269315 4.620969004046816 0.6839802895842414 2.105816792835573 1.451774685571661
Ni 3.11666233755189 2.2063126217841624 10.158341309029396 0.294887277767047 1.965087975523222 -0.3327236318885302
P 3.073817455053394 3.5551634801012435 0.8365387013792664 0.30219332451015696 -0.692029642251279 -0.36415202560114057
Ni 2.6087659870878572 6.566632522073512 11.289301941898593 -1.7264170970467427 -2.7093395511936955 1.3648348890553075
P 2.5344787129435846 7.6889501963450195 13.134871380449631 -0.13491683861626444 0.2611276648180986 1.0892679088834272
P 4.628708456272801 8.085734683390227 2.826751464486904 0.10174909361504411 0.6322345244705175 -1.397347259860716
P 1.7816923703701943 0.8185850957495279 10.74009028881201 -1.8059832268068445 -1.260447843596784 0.16856589412927744
Ni 2.7558423978921027 1.1709054171264814 1.1789241517723792 0.9175632120148521 0.40748051318544665 -0.6806049453541052
Ni 1.4940499733848287 1.891148884346493 12.687809584386605 0.24873160514659096 -0.1253273951556164 -0.1736420231006042
Ni 6.552021057720474 4.678489160457866 8.887956788616801 -0.5567309948155638 -0.42577828305336995 -1.0394260456606357
Ni 7.600190174281441 2.1809737532225655 9.232599617774836 0.38610744682630926 2.4013183071478514 -0.040549125066955974
Ni 9.050960620342083 4.313923877087331 8.752863628134495 -1.0859637842108587 0.9912553994926802 -0.788399730942597
Ni 3.2469170688256446 2.1845896282618296 7.57469316898539 0.008566658623088473 -0.0013631988961137812 -0.805998932081599
Ni 7.722260635965045 1.0969418146609158 0.2946142849447043 -0.22288867594155806 -1.4297354463834344 0.7272480991339411
Ni 6.58116075656631 8.889707390010491 2.3018355323802573 -1.2925064146942258 -0.11850908668220236 -0.786582218117884
Ni 4.325687030667751 2.096495445080162 5.135544088406902 -0.4175353263182874 1.3831131185392052 -0.8105706106126814
Ni 6.104910248517528 3.4364776994006845 13.2609368754247 0.6677298891636501 0.3402353668845431 0.24762217413249613
Ni 8.324484161366408 4.920817522424318 3.9537050419737136 0.21864172773974605 0.9899212540622886 0.6539793723467769
Ni 3.7283000849224885 4.750085335787748 8.171249665680715 2.628642907373576 -4.251909659582374 3.192361646360882
Ni 0.7650368532243201 6.7459188887901815 4.423100183867493 -0.099789398785512 -0.29232414502556103 -0.32282797004137304
Ni 8.586870919650416 0.42887329727217144 5.064471336420298 -0.5830027840278991 0.019304356755566753 -0.7356998294457201
Ni 5.4425207819257455 3.3738703489765935 11.089876723332804 -0.6226399388035471 1.1223104411606928 -1.0500765833959465
Ni 0.6491808877718812 2.022550338139094 1.5449838735223127 -0.8181383956576103 0.5681032412082474 -0.47228131171091564
Ni 3.4856572990395787 0.6055906356361359 3.4449504991729962 1.5516630718288824 0.16915493386352803 -0.15621457165277614
Ni 9.281978969078304 7.055145562864148 12.323730733310356 0.18161989909975818 0.9803539220888279 -0.17735983827182358
Ni 0.9252293652259791 -0.3925934011940693 0.5433467222684211 -0.6255257449917743 0.8110889450099966 -0.09328553622872321
Ni 5.578176206352774 5.621159805285002 0.3955600833234709 0.30446797947694665 0.10802695620395589 0.08462837477435747
Ni 1.4394974238794058 0.21023400308213772 7.935239374882614 0.7698875310710225 -0.3902235258772118 -0.2836566991585502
Ni 1.2619218931787566 0.5461589667682684 3.1106355708943743 -1.5233081748352733 -1.318941983177935 0.9473417288288652
Ni 5.024910334296336 1.0053519773492177 10.466182668318499 0.8520833851444874 -2.0296856568989496 -0.3427838443380097
Ni 2.545853460509557 7.558852677029493 2.040582549747947 0.3604684061019663 1.562901106636547 -1.1749735758823636
Ni 2.3582071167200103 7.200224457022662 6.601361568422496 -1.2366124317400833 -0.4245816916421075 -0.07064440179043963
P 6.716492509314634 0.347835156686306 8.71851189048526 -0.8350634535477232 -1.397387369070032 -0.17626351988385128
Ni 1.8848141672060936 4.6825396803228205 9.784841762550338 -0.3429879899290158 -1.764915253121941 -0.47977967697048984
P 8.661407883375404 8.57164910298896 2.465054836965934 0.8795589648569369 -0.6372466329731283 -0.16127810221861258
Ni 1.0576388251036946 8.036656809136067 10.055407241767147 1.8933431415797524 -2.352925774777077 0.6375770197293534
P 7.397645685509145 3.644866773914195 7.175977749182643 0.8139685805506369 -0.07667312448302278 -0.06832243852548232
P 5.737394928989639 1.9681827438786461 3.3388222548300255 0.016049340153378812 0.699331575229331 -0.25266076499766804
P 7.711237303364525 4.578770540129509 11.868113832391002 -0.17464886709856373 -0.4416265629395362 -0.2680614158234545
Ni 5.240105761824933 6.815647016145816 4.34963226145846 2.0748635389871684 -0.49914342620908236 2.6080666258841214
