# total energy = -340864.0104180314 ev
CRYSTAL
PRIMVEC
9.31873907552689 0.00000000000000 0.00000000000000

0.00000000000000 9.31873907552689 0.00000000000000

0.00000000000000 0.00000000000000 13.63891658961496

PRIMCOORD
 96 1
Ni 1.184681995780031 6.409484734320887 7.98543542852075 0.9250255818301683 3.253041480739443 0.001393537913416955
Ni 2.1826257767276003 0.71292268751862 7.226443690018186 -1.0081717156320444 -2.2642589682672876 -2.0086843720569343
Ni 4.79006491737393 8.803673847110234 2.446003166490205 0.682164062311109 -0.33297148623327816 0.9595889216273343
Ni 4.239113099641527 3.714654457455242 1.9698277077218271 0.11859316175557641 0.4110777436184017 1.5303686812264805
Ni 5.434008433584958 -0.03169489576766152 9.40321450290631 1.6218369617408068 0.9603404550813782 -0.9319241087222143
Ni 3.76298143894739 3.3622476971219317 10.114170936453693 0.5953314807965812 -0.5220002762025978 0.7174606807298741
Ni 6.095135704881122 7.871110340391148 11.44195987825701 -0.5258461323112492 -0.9019036511007241 -0.23302704992714063
Ni 0.5233375978605024 5.740753371837373 11.16448975920197 -2.317416269016557 -1.0882921752337193 -1.0039813316997805
Ni 2.2156886634098485 5.368134266178866 12.978779322807467 -2.1216249635124234 1.9806050973222145 -0.11383559246593299
Ni -0.2473873651690111 2.172664044522605 6.505313057012045 -0.4560712776099565 -1.1482436160866871 -0.11345866874248849
Ni 9.125431274214145 6.576970433965771 13.190046322962651 0.38944473872965835 1.055288466614189 1.9090775215958737
Ni 6.0858449218985395 0.8240393337415989 12.491202386627664 -0.8756678573326468 -0.4539262062424957 0.7826224621391877
Ni 6.062976735901292 1.4160196964245675 3.9640826265090934 0.6094303820918084 0.17355871935817851 -1.129906765450712
Ni 5.0609606659232425 3.265220984569629 5.655595005530423 0.4996296218168814 0.2389516429416917 0.03587305974752532
Ni 8.4806117965183 2.007852823028173 12.614033619899194 -1.061248540852366 1.1957396047851214 -0.6732770442341244
Ni 1.403346211112319 7.912112792871952 9.966174447972072 -0.10021440213807258 1.0331499828439368 0.5661222062224767
Ni -0.0798699818108462 1.4646169213535203 9.889073995451518 3.1636375389533127 -0.4116315592393427 -0.8520299061987325
Ni 7.213757158471058 1.425795053845559 10.539786643817559 -2.017598900937745 0.6957615984898856 -0.08411826790715835
Ni 5.67225131997683 2.4992578972714092 8.807385500933668 -1.8585941681343408 -2.406452543050623 0.19611526450245578
Ni 5.532311813407685 4.646565652430317 8.593021883742264 -0.87551024870886 0.902533057154607 -0.24115713523344276
Ni 6.476505106648601 3.1744098710638484 13.213096224374302 0.1607775084331102 -0.5570210152521569 1.0692912086511843
Ni 5.2168724914815 5.780646894353356 4.849548293436537 -1.098618753970708 -0.46096177293303836 1.260009984728417
Ni 2.714194616923624 2.546475948798735 5.61360103919872 -0.7562838242446588 0.25445385234234885 -0.5606827803744602
Ni 4.150352108759786 1.4440038702427163 1.27335818613505 1.5275450957347563 0.31003596048302734 -0.3284671706050214
P 9.324889568054857 4.204959920472857 13.368443334337028 -0.2170124196664392 -0.11574515078382003 -0.6421129599264942
P 9.295675320662284 5.024822595304934 8.756020610462262 -2.3398522294225703 -2.013828121041403 1.6615677046715251
P 4.149513422231769 8.781998459730609 13.820041550338843 1.3605082366554955 3.6291316525390656 -1.7528994596079877
P 5.602230313626657 5.695277924540481 11.613701446094618 -1.4137339287488557 -0.11082277378153818 -0.8311425212267621
P 2.4032842022487273 6.393447184157371 11.077173172896257 2.6080617407881146 1.3986603222451848 0.6714096520080823
P 6.187381904223731 5.609815767335605 6.762720862443014 -0.37548339145355986 0.6188915275047083 0.5993966520048902
P 6.2295864740613585 2.6410611516805895 1.62829591603513 -0.38078809149592485 -0.07948616845178569 1.1857117882354742
P 1.1101600383961696 7.8600210407429305 6.337622345104757 -0.1609266324164648 1.5281338783586909 0.38231506966341255
Ni 4.623613597780267 1.2494379144821008 7.0312021256655575 0.3604624925646953 -0.7455792933429611 0.368011765666863
Ni 2.148817390909337 6.450804023934496 5.094885535981509 0.5208386517943288 -1.4597237652154087 -0.015673187760882685
Ni 6.160189823237598 7.276295217243484 0.4954605895431557 0.8132756682486704 1.5720269801972153 0.3145454183176067
Ni 5.882090689286544 8.252684754421031 4.925081334023618 -0.215216504108281 0.5839759465744458 -0.4974066460236336
Ni 2.2075534040880886 5.469084167934446 2.618944987936796 0.7688670602263081 -0.3840479931941192 0.3513111650827304
Ni 2.154837296432655 9.335606118135066 1.1709881085253624 0.11091713326755737 -0.669283349693699 1.054412491767139
Ni 8.633746637794903 2.7865825830306434 4.261916054464374 -1.2450690471478687 -0.17608817064825155 0.43124393415363155
Ni 1.6096630970043646 4.634740172385285 6.8389621272093075 0.11534714401445298 -2.008026426757961 -0.6728589828600993
Ni 9.393848238136208 8.735264982641693 8.139692245997054 -0.12217496556956378 -0.3709793329356192 -0.34528861303773434
Ni 1.8369844210536221 7.969208707951472 12.85136513359729 1.8148825861790037 -1.1423586180608198 -1.5731569800366005
Ni 9.038906780740447 4.835708101976426 3.0314399105068044 1.0840457412525395 0.35290807725620515 -0.2908205638968411
Ni 7.343529920572803 5.240197295699557 12.559055854239876 1.3600665211323866 -0.12830318995448872 -0.5920525529349933
Ni 2.9278733067838143 5.487954614814815 9.319321621382747 1.6717063357674242 0.4999456103954035 -1.1773991546047207
Ni 5.32602288373324 6.93137140448792 8.931717051216426 -0.910607092411993 0.054025819397152126 0.7381135810935352
Ni 3.065799965685718 1.2113801835885545 12.754255484266103 0.7189922868830521 -0.7073526457615947 -0.8099622876047212
Ni 7.499190140172654 5.2423871994116 1.245984389734513 0.18699041938305216 -0.23709890600366904 0.5059751044189351
Ni 8.542851655636321 3.637234372180124 10.720488179396142 -0.269264177882304 0.3598202309950061 0.6937175714766634
Ni 5.307217668027272 5.233515759693026 0.32981627276422754 -1.710751622595344 -2.1348224360393044 -2.343962652046518
Ni 7.48261210313553 0.8181359124582832 7.982298740905969 -0.7489875476935617 -0.9756300342505971 0.016799588055842037
Ni 6.268557441396523 8.140897158975639 7.2176878026656945 -0.9645066706439259 0.812464999421917 0.10743046027053756
Ni 8.54331759259633 3.0387103908307873 1.6408575764769764 -0.5066322783869598 -0.34444606253178095 -1.2015032467417759
Ni 9.150638463750639 7.303757541666423 4.694760307825821 -0.5732241073745805 0.3154612452636567 0.610107096443859
Ni 7.9358848965716176 4.328200246395274 6.278061623506789 0.07811062826049775 -0.29111624076038894 0.10776547501245311
Ni 3.057142856968749 0.8838702987763721 9.279332115853002 -0.3312884421039004 1.7696787359488555 0.20844036172671196
P 3.825351760414213 4.174906986552267 4.195330867257308 -1.1963517844478235 0.02054594247215171 -1.2965096223163477
P 3.9971893112655827 7.156502824825135 3.7423963440541863 -1.4136087160249011 0.7357209124916426 -0.0949644665930429
P 6.709650642697973 2.315986253421415 6.5664150980737235 1.2264447471784619 0.1295100657783963 1.0981842375364506
P 0.5379428578089488 4.7381222650721115 5.004800352259421 -0.7825682118624845 0.04950633426024377 -0.46214473749754603
P 0.6434486911594977 1.1427383506400084 2.303230763204205 -1.282055908784863 -1.910000547630775 -0.3235687048621395
P 6.842983163174187 7.652371575145259 3.1181563700080255 -0.9744936066533088 -2.206091615897936 -1.3041074892682638
P 4.586469103328338 1.4540681085789136 10.989175386755011 0.25392960440776263 0.27856437223730734 -0.5814025294203149
P 7.725980296087503 0.4194243370392647 4.9767723803670325 0.8202099334746584 0.363315131522142 1.948090669634277
Ni 2.7143903104468277 1.5490912922031768 3.379805133648996 1.9895126842244895 -1.7642457378587422 -0.5057853570056321
Ni 0.16148536347388665 9.422643142264773 13.365919819761618 -0.11634678892356091 -0.040666881591742865 0.23745474668119107
Ni 1.597036205388117 7.998078161993638 3.4057466398344647 1.1362355358822174 0.5096926624798384 -1.6887244675919755
Ni 6.548902391494821 3.8093048915114984 3.5920133264633973 -1.088395790691119 -1.0551416566236795 -1.4875341025594575
Ni 7.529336261485246 1.0370358918923357 0.8175041019405107 -0.8810561182277536 -1.345824666501392 0.863749508628506
Ni 1.557673851006545 3.8231339004845695 9.885978310289218 -1.8559798704399455 -1.426607442277414 -0.8043421132044664
Ni 1.1427849443360094 3.009691836961418 2.9639004844056407 0.5241977980745488 3.115489004272544 3.404380469467472
Ni 8.201869669562434 9.1843350246985 3.009331201754371 0.8896598007363646 2.3922821650875123 -0.9696077393159171
Ni 3.8080841366762743 6.032364677628692 6.978651891567888 0.4177767529051321 0.3917682446565124 0.5400018549863409
Ni 5.937108525524423 3.4986926764910073 11.023654721795689 0.35090981587925374 0.9514770911534777 -0.6354535456284476
Ni 1.2627450740599615 2.488299059971994 12.02128632498005 0.5196441172655955 1.1088517445526258 -0.330761623066153
Ni 3.860436813502901 7.082129967268476 1.042460329980762 -1.295692782842007 -3.2549304702320394 1.46609264485623
Ni 1.9198746062392478 2.487348548573576 1.0773273245721657 0.924587208741169 -0.2185615093211139 -3.1028350629539596
Ni 8.050011495556255 6.781889508977789 6.912748836070275 1.3211950408781696 -0.5871114068796341 0.6604585523132174
Ni 8.28834756934013 8.668365753923583 11.035547296762962 1.6963498453477173 0.15283691342979486 -0.652507930007573
Ni 7.775164601586067 2.9674127172101894 8.569740877598447 2.015108787526039 2.535151168671318 -0.3154252498193987
Ni 8.780712473720985 7.079082739550017 2.3383242031581735 0.9016372848132149 -1.0216507239550856 -1.4791944723455106
Ni 3.5112822931504546 8.461527018636327 5.6749490949752825 -0.4738368291234936 -0.7434571047936358 0.3414841516899796
Ni 7.243092549473233 5.688326145097145 9.848007243670233 1.1503956294326834 0.18288771006858826 0.4470582754780687
Ni 0.6562470475770286 0.7166893219033339 4.500323882540089 -0.10189744626745031 -0.29264039071439923 0.7664543370197574
Ni 3.5268632250931593 3.5208153633522414 7.748718951609868 -0.04878513982350308 -0.5420991038350019 0.1304667732647108
Ni 5.442563036170726 5.842849478514575 2.5009678859146427 0.5390340917564329 0.7450882126391556 1.0257467484013303
Ni 7.44640880134282 5.688717532143553 4.349873770027059 0.13853798030861947 2.266307880376516 0.46857660916581884
Ni 3.688990649697939 8.62900339954201 10.65614042147104 -0.747298590026913 -2.0385389935245213 2.6722153926478884
P 1.4116864826964826 2.5222285893998597 7.7002736221298775 0.9489152439635722 1.62816187551757 1.6374620698725735
P 1.2409951367667353 0.35418011640310526 11.395696997497703 0.11091661904692511 0.2690127239931303 -0.1277876837706509
P 1.7415884878613517 7.013106066012724 1.1968615879146698 -2.584673957991794 0.42102251353593945 0.09980842494890553
P 7.646351669621941 8.314775513711847 13.0395952785757 0.0019992898182159117 0.5061936481876442 0.47786369089469954
P 3.238634621631508 3.903824863218952 0.12227956391087784 1.838177809261518 -2.1702977461277784 0.4728045312042374
P 4.2467265095680755 0.9851398332865181 4.9275498680377465 -1.1374948622106151 0.8003666734964862 -0.8169914265373606
P 7.558289584180213 7.865789340307844 9.120957347524136 -0.7199389670670374 0.32231169252658687 -0.5834097896583307
P 3.8758593268792034 8.570164880232056 7.904789195734528 0.676997173398189 -0.5754599386836348 0.7892960175046213
