# total energy = -340864.8592492595 ev
CRYSTAL
PRIMVEC
9.26075959517587 0.00000000000000 0.00000000000000
0.00000000000000 9.26075959517587 0.00000000000000
0.00000000000000 0.00000000000000 13.55405775946688
PRIMCOORD
 96 1
Ni 1.8026623759602534 3.7038221885816593 11.931392900633478 0.10411090897900134 -0.9478446366072129 1.194717334168194
Ni 6.087402739073448 5.816710742683313 10.008899076651007 -1.1809678457925856 -1.9140104401211167 -0.6037590427386441
Ni 3.8201836300678735 0.9475423772372864 6.405999717609548 -0.6053117319377446 -0.9001835830858238 1.3637532259553546
Ni 3.58883133948223 0.5168040852599597 12.605463201517702 0.24368452964098677 -0.9488900471525916 0.8206629618516771
Ni 8.446581188624835 1.418757596269762 2.5664472093189596 0.948865107451927 -0.38016048521425494 0.41293202321832106
Ni 5.9929152112195805 3.6798090395348027 10.920653249302262 -0.11736545999606239 -0.5843752388953937 -0.13687601922516426
Ni 3.085518328472737 2.3211630323368286 8.189849786985233 -0.1298831328470989 1.429228424840029 0.6129201404126218
Ni 5.783510920341246 0.005155464741374903 7.98926266510324 -0.014270136765768974 -0.0323619612704733 0.02814895163039023
Ni 3.6905793026823126 5.847502767589136 7.2061635920021025 0.11357385416411407 0.588535283810354 -0.907267743626115
Ni 6.446210860870773 6.123769741120115 0.8714883909097465 0.2836636411370857 -2.069030477245159 -1.7512878921464936
Ni 5.229235950517695 4.044618133403999 13.288682206583722 1.9475548517354653 1.5748276828708039 0.9851300033212326
Ni 7.707498504810125 8.671376861576396 3.647843676416779 -0.7368375425945891 0.46390954270745266 1.0093256267308295
Ni 7.363461294208226 3.1364339834899444 1.4981436038186897 -0.4760433498565092 -0.5436294244365992 -0.41762737181146137
Ni 4.389924068039612 6.566258084586317 4.205607174295073 -0.8858517398441841 -0.700245345292852 1.456589076241169
Ni 4.758678245400502 1.6353297149006105 9.45463244151089 0.47138271115604624 -0.4276842418268312 1.3368137212520332
Ni 8.923528817707448 6.64279826078079 13.00288128128115 1.9408596991034766 2.244130058727896 0.7828795724553163
Ni 5.7087580707052155 1.1710971084332449 11.59746103065631 1.2765491200340209 -0.46801996533140044 0.49678521038955087
Ni 3.8215079186578085 0.878663627269756 4.020472555498149 -1.7118564256237483 -0.05166528958477553 1.0868801253775409
Ni 1.2073622421268395 9.17152269288129 12.710737661885949 -1.2401453845940063 -0.08753937777356537 -0.5541935731056907
Ni 0.8102349502076162 5.437936423683897 10.91558390962303 -2.2105177699900898 -0.47637090839925705 0.1623710781724752
Ni 5.930969991792499 7.304081305126681 2.7277270380542573 -0.11573306659896196 0.242267337578486 3.098959639158953
Ni 5.257184922296875 4.604458819609023 5.553761667202579 0.03328447308474267 -1.0726526689242495 -0.3582996805854216
Ni 1.8872686735661472 5.823591486895351 5.665000056605214 -0.06100302204593365 -0.035328757208281096 -1.3668763449653685
Ni 3.0062462282640627 4.643437355798078 0.4969971731190352 1.4904556470816268 1.133261540855558 1.6566165313138375
P 8.205171713363184 8.98818743962999 11.563901890850682 0.13172147160741832 -0.722095351288408 0.378301063408013
P 0.8633583702586722 1.9718194066158201 13.08697082851419 0.1717715455507687 0.543486728211148 0.28184792808458553
P 1.4780820207950855 0.687017768559663 3.2324393498045834 -0.42720344553567074 0.3677572264538957 -0.981847990135851
P 6.946949380775358 1.245988869459828 9.60277866130741 -1.0478371525424663 -1.2410673821876432 0.6526187445538244
P 5.629874922390088 2.01427072756869 0.6720357120505983 0.3617552432341899 -1.7665774713157125 -1.3715678369037667
P 8.591845460105356 1.1827749259990321 5.784343462608624 0.4016420521267986 -2.393345830465336 -0.9928677382851222
P 2.486587976966216 8.403194530975577 0.6728163940655039 0.18372666103011584 0.3699249235291758 1.4792708341094007
P 8.46141692513585 4.878660643800454 1.5163734086388738 -0.09684805676900095 1.7907299001922 0.2832682054708799
Ni 8.29103747424342 5.245840492068414 8.996736046604596 0.03712107322201349 -0.5287998156229345 -0.5142525139363788
Ni 5.659685306802672 8.101071517283078 10.759278960821389 -0.6472399967404143 0.7905309183529869 -0.5642730688288798
Ni 3.7553027499204465 5.669418364900723 11.273153867892564 0.1587684484228814 -1.9622553911704337 -0.7242440222002946
Ni 0.6378588795949776 8.10611863113982 4.932958328139647 0.2933687842399915 -1.5437265905906254 -0.691165494478771
Ni 9.13822100218615 1.6523139475855064 11.128843454627168 0.20934436159822012 0.4417731158197295 -0.9100154815745811
Ni 5.13275735939924 7.814478797054356 6.161606425678828 0.0031629711090139074 0.35407047299542244 0.1445168235998737
Ni 1.8191928314360108 4.368077936685375 7.765309721254363 -1.6680479130792307 -1.5022161300516645 -1.7119093903488711
Ni 7.605694977053822 7.821507713416317 8.415144614866847 0.06995920279795693 -1.4518034819270675 0.6485006086203928
Ni 4.788470108294345 3.276614098076242 2.110936386026422 1.3730019982471322 -0.4339793308069235 0.660539799173114
Ni 7.831648244926655 6.896468981448549 10.643228680850012 2.6066959707888397 2.2699897001034772 1.613427397520873
Ni 7.7463010865711475 0.7513300380817612 0.2132975141175558 0.4497036835207158 -0.3728981472248868 1.094841803426779
Ni 4.00814000224489 2.7865902767629462 12.074889293150235 -0.4680934988818132 -0.5208738759076383 -1.4454376876100397
Ni 0.6321885166326211 8.869807152601076 9.90316343046613 -0.7869781680047221 -0.8660221067127667 0.3659291721062214
Ni 7.588192141844197 5.111670610313358 12.441920043192335 -1.7313690417353795 -1.8044019983626536 -0.6129350528109574
Ni 5.752200292910694 0.8580834417214223 3.049473600852153 1.8516313636632626 0.45472042000901686 -1.5781739736352174
Ni 6.828207924131009 4.804565308079705 3.3467680546090453 -0.5981820628714988 -0.02831118823986737 -0.5682742195684729
Ni 3.6702982396616357 7.193730096471708 12.9610133881686 0.6262474536491472 -0.01921925324092819 0.2608857240106217
Ni 0.9050280831206995 3.601555622856847 0.966335236227177 -0.6661867130462462 -0.6202765807776931 -0.40612374204723606
Ni 3.6054080987548383 0.7820729809629222 1.6677858982652534 1.1802898458889541 -3.7829486704939432 1.8549964234807537
Ni 1.062403575705533 8.877289846172177 7.300500169478236 0.5266987101195316 -2.8526438425427063 0.7180481778022278
Ni 7.449327055088464 2.9112400978854653 8.438214092533885 -0.12456969105398547 1.8858195795091974 0.39577145227863453
Ni 2.3284512499611543 2.697436946306298 2.762276153036559 -1.0758277242181213 -1.6083677236097784 1.283871364727047
Ni 7.819192523573774 8.277377854172418 6.11384220707529 -0.803655628660403 0.3849201113864274 -0.44104703628698233
Ni 9.487184936772982 2.7101982727183955 4.473787652744018 -0.05509462698129866 -1.8302886363214286 1.2983199360522093
P 0.9557381492798888 1.4505312616688228 9.015643739010676 0.2578474514049301 0.4004436609433233 2.192821381151591
P 4.871937332497708 5.4411313856666075 2.23685307903078 -0.10915541338144429 -0.0471162367615124 -0.5926685892524374
P 3.535563451584999 9.041316416136667 10.566132859093328 0.4415409452042654 0.4369492120685249 0.705717681261333
P 2.1203064223571624 6.150144383806366 3.382509955398225 -0.8634306918365064 -0.6525464965549922 0.6097805663423757
P 2.9112678801635754 7.876859272171836 5.802654762111265 -0.17694126267716623 0.27991522983824696 0.43916241766975983
P 6.689963308253078 6.532873047056845 5.142138508641225 -0.6082651581391137 0.3359367395091892 -0.694231020777972
P 7.3657672232913995 7.942462491550137 1.4174425684391974 2.3861403138558326 2.292211744726472 -0.160603187638775
P 5.027758869660227 7.101594801497865 8.840742259317793 -0.3945239530247786 0.8760077571705688 -2.464353529132466
Ni 8.283925211047128 5.064607431194142 5.22072438658057 0.32964782117668384 -0.4703542698915319 0.18414292263192802
Ni 8.286388573039595 0.7335604930022748 7.867045645467265 -0.39110001494489416 0.32612643828698673 0.6977914844357208
Ni 5.922181531150205 1.0036718397799005 5.55457476187528 1.3839178738286877 -0.30461170414366245 -0.45063750818889486
Ni 2.528900386528533 3.000347124545263 5.815666129026359 1.4908832215373484 1.4173226745413785 -1.525327262147831
Ni 3.1240430874526535 2.4286711878651586 0.7086796108024329 -1.7853820056167253 2.4568554209832074 -4.484129640227187
Ni 5.962558442004156 5.6948576708905865 7.45290170820535 2.426485036221466 1.4159396781509228 0.21426956681397938
Ni 2.390905811153596 1.6554718665307353 10.730652101456313 -0.4549736736704035 -0.14932092985673637 -0.7762409840928761
Ni 3.3646283551303595 8.441867462105417 8.542457830384228 -0.26271532102019274 -0.02975717665777456 -0.8471414677581798
Ni 1.7031555165277523 0.7622049478101546 5.347455100333566 0.99796572163332 -0.253532368969344 -2.11903843373217
Ni 7.498964725312586 2.5718610492467624 12.523908324124282 -0.18007003811413505 1.7056217575679464 0.03970940277448
Ni 9.285578205284331 6.541439249474255 7.0245526921455275 0.2924714692367027 -0.3644078503656885 0.7514979728202412
Ni 1.0000508828661632 6.173240717675576 1.4457703052766175 0.8070422857444488 -0.04035937765365308 -0.1908995246294712
Ni 2.991623489218561 8.136484661114617 3.0987556579164615 -1.0738528598799377 -0.048216668914542765 -0.7829417931518193
Ni 5.034639613872265 8.277720502269114 0.9601786833978864 -0.819415462597821 1.3409436842600067 -0.22540270061266343
Ni 2.505442883043887 5.901261475732986 9.11042761116439 0.9344414758274294 1.0698080003866026 1.7392736412944367
Ni 2.0934502201836627 7.387131795158386 11.067443693926988 0.37283644074901595 1.024526502840984 0.22895236563713475
Ni 0.6620831739554741 4.365197840521252 3.2565386239135825 0.4368044589605445 2.222045053903399 -0.9628182271979095
Ni 1.1638181515682895 1.7930126646965339 7.121058139466156 -2.0433366720234813 3.644303218073182 -0.8382428797169692
Ni 8.742379103667506 6.471501994710714 3.4861304441429564 -0.28540736330106975 0.08532977171675626 -0.5463907892318204
Ni 0.21588589636151895 8.345694476046178 2.217173039293227 0.9367567542241674 0.8183129735622616 -1.2170975016356071
Ni 7.461319738472836 2.8517397189321083 5.988371882672574 -1.2035830120889401 1.7812420153064223 0.03221849371407355
Ni 3.5453150312017905 4.370198650581146 3.6154495401399163 -1.3712688176061094 2.1274048034189943 1.7602175905359556
Ni 5.075998165219454 3.9463985195239517 8.611502347944485 -1.1662161414047076 0.5256607557733205 1.1961905762796108
Ni 6.740101059483191 8.116592549987486 12.892469877690273 -0.1324804612606299 -1.1993291219085924 -1.0252515539324667
P 8.822003112732247 4.273358889847254 7.078118776494478 1.048416422084704 -0.19542415197270213 1.0714265098266322
P 8.271460228934878 3.8804804343270654 10.716962846955324 0.1489370641547564 -0.557143399762634 0.13934402114968258
P 1.934396678000954 5.818590676835458 12.812894024574254 -1.9992353108288925 1.1092608070655865 -1.0064578182647312
P 5.303359068516554 2.6544577620693284 7.035748950224066 0.28850734238263215 -0.9096285305488075 -0.5909207533233952
P 5.638552253919939 6.204856950165343 12.072178668882584 1.0408923457935173 0.14529792474027234 1.783798206069373
P 4.663107208700324 2.7453058114907187 4.472717108960826 0.46440268029378734 -0.2158273982194025 -0.25090341598692917
P 0.5794438616398049 6.780746532358877 9.29683651045065 -0.7235120291302766 1.2306521003915902 -1.4386430332857094
P 3.343541606044477 3.854679958721765 10.16645144973981 -0.2487462604346103 -1.4683135637669487 -0.9060891499369815
