# total energy = -381164.68086462386 ev
CRYSTAL
PRIMVEC
9.26035496438161 0.00000000000000 0.00000000000000
0.00000000000000 9.26035496438161 0.00000000000000
0.00000000000000 0.00000000000000 13.55346554140224
PRIMCOORD
 96 1
Ni 1.774635926588217 1.093481248413101 3.431384754916976 0.040233136488433935 0.6219146306017482 1.1619725356370052
Ni 1.2964867524502275 0.3151178448694542 10.802925581063445 0.31643800735462924 -1.009092941894733 0.1184916031807056
Ni 5.419632070214052 1.7354461038947984 9.928252632629418 2.3317349996320744 0.6400015700104462 -0.14031666947559704
Ni 6.246674382300348 3.9239828610843936 10.6615088465843 -1.1875015331460452 0.04319299044770626 -0.8698396806866439
Ni 4.473927568148204 6.723064088973369 10.00423292001534 1.362778520746911 -1.5832979251253443 0.5780014741585658
Ni 0.10678948873304177 3.817238748091238 8.05104345697553 -1.2499130055037313 -1.3658286204271446 -0.8705734735288749
Ni 3.5378353146541346 2.7541962868221037 3.7666846176451343 -0.38977949636125775 -0.17986383564059993 1.8203032429739423
Ni 3.563662444968866 8.142963593558566 4.11328674374695 1.6892667132486907 -0.06299202745150442 -1.587892486474562
Ni 9.10524413121544 8.685620401175372 8.511305329243337 1.4443981906019319 0.03178140617665494 -2.659008664149627
Ni 9.075249841115253 1.9059848030257047 9.673000205237784 0.350312548614887 -0.3405816944803683 -1.9435655280704143
Ni 8.65789489806949 4.068601826349781 10.507907336892492 -0.7487533201955686 0.21235049541439557 0.6289178013924588
Ni 9.03274481130363 1.4330399484419925 1.8673561578500606 1.6694152257404022 -0.13924117702323116 0.8373687046421321
Ni 6.288799737553742 2.270537201412237 12.245068458547882 -0.5481928754375656 0.1670240035634543 0.6493452160088752
Ni 7.6119470522757915 9.008649367388632 5.4646762893882785 1.0574754469631789 2.10179173083658 -1.0578973649919459
Ni 1.4410686762952993 7.130473410664519 9.674436486310503 2.275264832459488 1.1069794672305773 1.8045500939047439
Ni 3.5656163798904896 2.4375847466784415 7.246794582880153 0.22613777900647508 -0.9970442382603151 0.9494613462750294
Ni 0.3945133512084339 4.156010317938432 1.650378630070063 0.38814093231657026 0.4636398339858337 -0.22440305570355548
Ni 2.862338713432156 0.27226277363585255 12.88303006252902 -0.010969611637626268 0.23531713151289796 -2.0287112088008223
Ni 3.349248183474676 1.7965459267046224 9.750173226357855 -3.1143476915792494 0.1773608667130881 -0.03370947643730324
Ni 7.4497611934259504 0.9416114251210254 0.35907304628641545 -1.5156529722828607 -1.400391960224311 0.0930803621964526
Ni 5.867935119933117 7.763502023495188 4.651006856071256 -1.4492588611283428 1.2661852603011936 -1.6262248063958575
Ni 5.676329112997975 8.793160904705303 10.810529258618635 -0.9663704633255422 -0.3838962981076034 1.8143745361943333
Ni 4.69447218470455 8.822877384153124 8.630779652363298 1.3028360787550077 0.3954420939636738 -0.9564025534795528
Ni 4.941056919742439 4.062369607381759 2.6076863570496287 0.10829743625652316 1.2170535357715493 -0.8046822701527043
P 5.515337839953296 5.198041033533804 12.358307784593299 -0.14261652125336727 -0.4430424694504564 -0.146812818722902
Ni 2.8077396598876394 2.6091976469984868 1.5810796888734826 -1.0086723094175467 0.13570950972088885 -0.5897370174279392
P 7.8479379411035515 0.9848665436940306 7.510395220375311 -1.5307366060888605 0.7857671784157564 0.10360465876654415
Ni 2.20100119512564 4.436006414100579 8.525753335237257 0.9330541085615995 -0.23618436460919973 0.30394321732172813
P 3.3508594852583844 8.322845990963966 10.582139269239542 -0.8878021787023356 1.211920328310042 1.1296349998465642
P 4.878966238939184 6.388894915600329 3.0588953061924165 -0.49963013603751366 -0.1304768005670398 0.03540100520711322
P 1.2459066930099034 6.166109293114919 0.3880264724757449 -0.13688090432117073 -1.2716180012809908 -1.4283629915159402
Ni 3.198258093915085 6.601077431520533 8.17657590438803 -0.37543248361096637 -0.8065905429190108 -0.570098160151089
Ni 3.219288360299006 5.165805737504553 4.447353127178614 1.5390081020690332 0.28079943221541315 0.8640040478414733
Ni 0.9831996797798493 5.277550442240252 3.590285965820373 -0.22026229406230452 1.0041816206360448 1.9622569338323304
Ni 7.085829238829696 2.7242205174320766 2.439190492249103 -0.21252198799525335 -0.7951902715018693 -3.889995265062501
Ni 7.8081091539096965 1.6978861036952462 4.2642046025369265 1.8169494960103612 -2.035118912099379 -0.3949224740147779
Ni 1.2398782018536145 2.704023683005246 11.303306089639072 1.1912391458116063 -1.9480333340337805 -0.48006712630392157
Ni 4.9814505885961 7.419368708057378 12.570731069745548 -0.027107911960385575 -2.1851942036236363 -1.107794506932705
Ni 5.187576832294777 0.10783035264389722 13.461451287495603 1.0937727387323162 1.8498745288731562 -0.36364706094026406
Ni 0.29599150748973146 9.112569072082758 13.136358188135281 0.33474194787013967 0.43809026765150355 0.21742970970951586
Ni 8.500154009657463 2.946959838142094 0.11424592664247953 -1.6621454315518664 0.2966816506633084 -1.2474457749101613
Ni 6.873683764329808 7.430582998057786 6.556733295190262 -0.6217665350596582 -3.03013120753133 2.68553833500904
Ni 8.180208741685439 1.3468538237237397 11.759339683777906 1.7022273871744167 -1.0116460473338902 -0.7234431235655541
Ni 6.298180477248551 3.295639987923589 4.334411984566736 -3.602925169347027 -0.33251742941499507 3.118129012998552
Ni 7.20668613296292 9.155074101894382 2.5359213832955683 -1.0672677504632522 0.5512517168685473 -0.32402250457010645
Ni 0.290239900950298 0.7797765337286694 6.315752001010546 1.4915511941386506 0.02063387420026769 -0.29898073111013024
Ni 3.427312976788834 4.174206915668246 10.640080384931991 0.5342873211000669 -1.665851419648544 -1.30873136119352
Ni 2.199241727660671 0.1597401990735349 1.432533407019183 -0.3027389126009818 0.12780696704436054 0.32638174883090243
Ni 0.9313602120488104 4.3146402004380215 12.684213943129537 1.0743979337501302 2.446861285884973 1.7311767232189152
Ni 6.183879914511107 3.751360582060761 0.44730385740606404 -0.3417435759989534 0.5140655947365533 -0.08731594890884961
Ni 2.766901493990197 7.767965514643163 6.1689281452009 -2.662912627189723 -1.129248305931107 1.1004311245890983
Ni 4.976431476143397 1.742872908667984 1.7671146661932275 0.43842759638626433 -0.13330115738971235 -0.028008826508100153
Ni 8.576357471600787 6.85903388259517 1.354320448023764 -0.6514568630352393 0.18000524631447062 -2.059480371662879
Ni 5.788323847320802 1.857710571999998 6.685342032559937 0.53849236032035 -0.8807033628740252 -0.76060919109289
Ni 6.49447222385356 5.582660621376063 4.454495639050881 -1.2327544914465736 0.9157575262646809 -1.3929193059963494
Ni 2.9289669682240147 0.8194275221050114 5.5705425207199655 0.06285730164585303 0.5245999186089739 -0.49399916300398145
P 1.1891221956667932 2.1811377334816457 0.052235810928410925 1.3045690022857144 -1.07898041091449 0.1077276797959822
Ni 0.5000721387515051 6.870840835320622 11.874922805693764 1.002876785781692 -1.492521785582036 1.8562110126141453
P 1.368782344550303 5.018269760389349 10.61339389366595 0.6797690797163712 0.26806475825756415 -0.18689143191134264
Ni 7.117471872133904 5.312749051894715 2.153890064697829 -0.7949123352501343 -0.3834409557377396 -0.8607857980144917
P 1.0602180529701049 3.114887117140783 4.127450456839952 -0.10973622558557874 0.42906235312128044 0.3269085678686499
P 7.232781813574936 5.270790383032739 8.547737418194293 -1.2178652330395672 -0.3292377302224588 0.528588985163709
P 1.5077710139277882 1.6814119320100875 8.159199774118198 0.16421815868354298 -0.06531039117203591 0.724362807166346
Ni 3.2118985969461353 5.850470090254529 12.02699265265554 -1.1291470044665521 1.6957507783111376 0.8195866980683626
Ni 1.5999393280269363 2.9002135657043873 6.362335291198867 -1.3006382997727406 0.4010332148982061 -1.7399251588355067
Ni 6.95811968193817 3.033831229136177 8.356674068066768 0.9148699814534051 -0.12712613892725202 0.6546815406201241
Ni 9.221359723548325 5.851692457124928 8.977775343555962 -1.9517364939169803 0.14595072783292282 -0.8679689460264923
Ni 8.10101418505167 7.2802781747740255 3.5116757375920744 0.6734531648006724 -0.9527194482010107 1.7854282854736283
Ni 4.624158308591334 4.003760820088127 8.429347482654057 1.2306878387255322 1.1637995615434151 0.3622617505569632
Ni 6.606846632734616 4.695046326719434 6.457480809455844 -1.2699876647664192 -0.24735426518309014 2.3667022597358787
Ni 6.846782432825938 6.13956911545912 10.905660886342995 0.5023246521505413 1.1878625160298897 -0.2972529497857462
Ni 5.906282250314367 7.100451339499098 1.206151062621171 1.9122950000919066 0.9522111411060246 0.15888054852071348
Ni 8.263857529112105 3.2040550761944044 5.836244332782499 1.4151518921423047 -0.0886953457548795 1.4382727944304843
Ni 4.43035759750252 5.525431626989172 0.7016978498818929 0.4444372929154539 -0.8441049949247011 -0.2246483389451421
Ni 8.489847234454777 5.806659350376796 5.63141083465282 1.5868218791182027 0.7727792507965207 0.32852759152931166
Ni 4.538092568489105 6.265926660509143 6.313760098633099 1.0956812686089388 -1.027923701447991 -0.31072064525487775
Ni 8.050119273538666 5.2421573651291355 12.899876500488348 -1.1478607788259716 0.2654918553240654 0.5303903000385058
Ni 8.560772294003192 8.001270900498074 10.484161008363964 -0.6035996343426443 -0.840038023944179 2.1707299485691904
Ni 3.5043776517544836 3.736182860086632 13.039301332590044 0.25716585195687325 -1.7142529508803832 -0.07265011936655874
Ni 4.529841592113908 8.664006732421488 1.9700507175672635 -0.5208713048044771 0.7676108192217037 1.5938988405696422
Ni 6.703737727923944 7.6350516381973605 8.898283529524162 0.13598924574483676 -2.788854001780255 -0.532751858292147
Ni 7.3560649207388025 0.29464690393229187 9.696880808914955 -0.4795307941844773 4.175809633994001 -1.3957441770396541
Ni 1.3965448890765004 7.899795929544747 4.208622099283042 -1.025534375280208 -0.9504946726355501 2.0489367918190777
Ni 1.6425925235198204 5.298080649449919 6.263625462272065 -0.1516097258909131 0.7642069357464775 -0.03940446993955149
Ni 2.723368564764828 5.057811476575761 2.227159846152192 0.05328534168670178 -0.12537881721884214 -1.653331175694346
Ni 3.120489631963448 7.4012369328131165 0.5146683104266861 -0.50720871971572 0.2869281708209704 -0.4929529811276543
Ni 8.250568919574048 4.1997191939102985 3.6646271703573516 2.1546147881748827 -0.24254938759527908 1.1715110712550596
Ni 1.4075184098448608 7.253571310726809 2.0861496412610077 0.7693424572008298 0.8825118768376736 1.1200285871050517
P 4.520553455969886 8.812255756877757 6.4026845103481485 2.0214211028973126 0.8570517848933561 -0.3552238698735753
Ni 5.278985797277464 0.9414539990846862 4.134470732025179 0.10389185098965979 -0.36562269660939617 0.26772203020616475
P 9.228619841930094 9.194902889088237 3.578914249783625 -2.1928517201688944 0.8070176031541004 -0.08483791968200229
Ni 7.531326400959888 7.696781165152542 12.88404684951667 -0.3025489080773628 0.7053129896237466 -0.36014856086870234
P 0.8496690636857998 7.092931931175124 7.2401530562176495 0.22785450458726564 0.023813814590146084 0.05904075611324026
P 4.596886562884312 3.7958751089244807 5.9400640256417745 -0.02602239220569067 0.7647386398802314 -0.5889263486011858
P 4.319085170875838 1.6974693877167006 11.95704363453243 -1.2047261245544476 0.1130794310261988 -0.33714901464973546
Ni 2.4743946581166125 8.87450386371735 8.653671250118055 -1.659955365879083 1.7675562902892141 -1.5532622979952024
