# total energy = -340858.42421086115 ev
CRYSTAL
PRIMVEC
9.36469039840044 0.00000000000000 0.00000000000000
0.00000000000000 9.36469039840044 0.00000000000000
0.00000000000000 0.00000000000000 13.70617099546985
PRIMCOORD
 96 1
Ni 2.661688466080406 4.578837229615224 5.859661842339637 1.2411226609056107 0.16487327576903862 -0.34267405823302277
Ni 4.756522863425675 1.1855042395365551 9.388507519917912 -0.6198981143923517 2.4078725633266016 -0.943875881767452
Ni 0.1769851549757827 4.946204665514361 5.304699057351339 -0.07107917533501307 -1.499431882438308 -0.7310875274846893
Ni 2.791220862352472 2.7293202594491786 9.468853753311164 0.08319369921035995 0.43901200813482455 -0.5371517871320556
Ni 1.0307995557298368 8.582195510726182 10.326558246417113 -1.4988664968531413 1.7002047003174332 0.014786157170239053
Ni 2.342708384977232 7.515707120251345 8.758489551557597 1.0782067659732593 1.5779739418092693 1.2409578531929726
Ni 0.09486243983203964 6.5123086483482915 8.75559773519201 -0.25979994714561067 0.8735924628608569 0.2921539379962839
Ni 5.476751829944495 3.2340583374040515 7.945919119836325 -2.257128270759777 2.2555771242225737 1.857868602822226
Ni 6.42921575128915 6.053804046419675 0.8795139203527693 -1.1055882433100057 -1.1618995163072248 -0.48135447765677747
Ni 1.0855923586931 3.878274112732851 7.547440309812328 0.8241974573674966 1.124631890205018 -0.9849153162072651
Ni 5.290806539286734 1.2670051392441741 3.4540377220302596 1.0379805714633608 -0.4725721034784572 0.5682068566656472
Ni 5.148856563672798 1.1573071570340108 6.8982059969501135 2.344540636037175 0.907128132724457 -1.2216041312567092
Ni 4.72850371003889 1.5209568108828295 13.218766056059831 2.1159086298539362 -1.1934814048785638 -3.185683463009759
Ni 9.192117790165138 7.256698515849032 5.6524521494106965 0.911940723621752 1.1177305350994942 -2.094727367790631
Ni 4.208407539986982 8.621976715133624 12.519476537058678 0.16529262269464437 -0.41259726558672166 -0.18897865345767453
Ni 7.071736517673093 5.866669440093426 8.632680556150033 1.0098575879748994 1.2311087283130346 -1.3852458486114918
Ni 0.3057805501209969 4.7489093702092795 0.7868587380251633 -1.8961196758836247 -1.9391337175513055 2.595869312486981
Ni 6.098305054739864 8.122969827644228 0.14750885577783923 0.5574750720704399 2.2305739173100165 -0.01682195665334522
Ni 3.6587845014094937 5.11759722744115 10.697351286029113 -0.9375232000765467 -1.1912787408002903 -1.5080967572021577
Ni 3.2630326892017507 2.4371044632321786 7.2300054026091605 -1.092486930041357 0.3750617305351089 -1.179271689037085
Ni 9.234614754760472 8.568897650495822 3.4656049874926116 0.7323108583688293 1.2150568170564944 1.3254113929523623
Ni 3.3597231165809496 -0.04996062276687906 7.5610781083006895 -0.13310163978439657 0.03999556655633112 1.6183356334557677
Ni 4.494377087771834 4.506317067908248 12.648315009779287 0.3631942896735616 -1.6262667153773862 1.81161265717848
Ni 1.0103096133467193 2.3820213548695204 10.892842005512792 0.8831639085993758 -1.8057754816714127 -0.2084727576265442
P 4.99412378579517 3.798149822499783 5.9587711692241205 -0.1821588023223637 0.37528233118634724 -1.210591067975657
P 2.22740095327553 7.844145538560619 2.224196356253819 -0.7143547881110407 0.9646169709695452 0.7789658392232068
P 8.287413789366141 7.821885669710222 10.214537821011788 0.0022096060568090976 0.12880712617410076 -0.2084809851566603
P 1.7738783665881472 8.63987263830279 13.022082275031542 -0.394302838152908 -0.30097102206728166 -0.6398231354510528
P 5.3596932011561185 5.207048749216076 9.506079333734895 -0.8759064557060141 -0.9001776695485529 -0.6543470400988407
P 8.87742673722077 3.5789036931243055 11.458825158049745 -1.7174292917258356 0.3419649479811401 0.18613912712635042
P 8.172153181115954 0.8851570827293993 4.997283432303425 -0.0567460465417926 -1.9014405738759061 -1.772693097295147
P 6.956813038273817 1.922112049395444 8.374264736643903 0.9805611530036273 -1.6427847676370677 1.0689135135967915
Ni 1.149047500186703 1.242928520474981 3.7980074792071763 0.733218457784763 -0.4556118214750347 0.969563516341543
Ni 8.350719095814894 2.847839779924834 13.666930166955797 2.9806595831637637 0.08426044991197747 0.21162004500627427
Ni 2.0522906092984217 6.655373022108293 10.837620299733649 -1.612827816263661 -0.6176126607922848 -1.030599191397625
Ni 1.1239594948647782 4.581215860952203 12.513295841458651 1.0182818074828526 0.2141572096058312 -2.3044314267211155
Ni 8.43165811410433 8.744719710935964 0.2088138643778574 -0.704482009082019 -0.42783285158955353 -0.497347253540608
Ni 5.706551965291533 2.66240018254344 11.082782273053843 -0.3457804650724884 -1.8538160300194073 0.840418032991417
Ni 7.559412129895772 4.389146062836235 1.8057876123268284 -0.46443739018646457 -2.198339225646027 -0.8407839009712681
Ni 5.158352359640111 6.147628878566135 2.951130441029637 0.8350817083801683 2.4298102439399574 2.209367972656363
Ni 2.2369716667652675 8.35717136743371 4.343814406486163 -0.5126093219060011 -0.026418342092528694 0.20233373460834184
Ni 1.4345019900048863 6.5820662264158605 0.6585896384749816 0.8645858884868722 2.3485163328554712 -0.3143235321147877
Ni 8.398123158129035 0.3107382171674422 8.361737590425488 1.0347209268754824 0.6698063120767045 0.9750692766511208
Ni 0.08246452633980512 6.985365979007878 12.18078378286754 0.19160606377819261 0.8587939643954434 -0.2878915631755042
Ni 2.723214481371577 2.016966997475241 0.1576030554555185 -2.5406232475294828 0.5941649712923057 -0.21546281579113213
Ni 4.716001848484291 2.4558057497674097 1.4487831427170683 0.14094170465410563 2.592851094485947 1.7308000566057868
Ni 8.51682060772045 2.394073711289572 3.1286802868306944 0.727143969455909 1.720789209337004 -0.0012814378155848898
Ni 6.956906685176848 4.342594187339674 10.459110755311919 2.044646649084156 -0.8952876884461034 -0.6710270718576831
Ni 3.394091529993217 0.804469974609117 2.1485109292244062 -1.6581990453096087 -1.9227686459297209 0.7407373918696276
Ni 7.625526843435448 7.997080295900058 7.091188852370631 -0.7798569835789085 -0.8939604849942474 0.32693325045899824
Ni 1.8574956863042602 3.7442373004250085 3.714824681121126 -2.283002824533694 -1.820008080331027 0.2510741372368386
Ni 9.023150683026843 2.8080960342786048 8.829254770301777 -1.0856899617241818 -1.5951270565497884 1.0380749309493797
Ni 6.77776952436942 8.094304510626532 4.763127779496431 0.37805346617358115 0.958196412155182 0.9945818927627516
Ni 6.743204452460788 5.380782483718633 5.441034901128585 0.42324960309424525 -0.05018176306071358 -0.9084766763325515
Ni 2.7414568980819576 5.483391395369372 2.984189670737535 1.7670035031095372 2.4222787114496023 -0.7837601752880566
Ni 0.9960471900151435 4.552110403490261 9.851392923970304 -0.3662215065356596 0.31747261926673065 1.150684878538328
P 2.815803174398031 0.8622744619738475 5.542980792705868 -0.5988274097649817 -1.0545793563623065 0.12707420264339403
P 8.429569788166745 5.809591652696214 6.912981605310298 -0.28184278587826295 -1.0908843614409278 1.3109031720338584
P 2.6218136147699336 5.216216781022781 8.638149535287026 -0.15728209368534204 0.3174327671677307 -0.5345426316439826
P 8.504721427848883 6.556322692772721 0.4000286662691552 -0.33914264804099653 0.13529067701591538 0.10298682267688715
P 6.338846489864524 0.20862282469567478 12.123478433495963 0.08218094167512943 0.6717480091841076 -0.2001452115974553
P 4.465870970489288 4.748675252951703 1.6265390117047935 0.8709894780203709 -0.9554340189186964 -0.06862197204377214
P 1.3615135937827576 2.443800216798874 1.9727843886253562 0.3345784257090818 0.6574930419269903 -0.38188235300136814
P 6.866528059061919 2.200159069183899 1.508308860159503 0.4303964985516716 -0.9024484678606006 1.6307275793622173
Ni 6.2167871164543085 8.886716510001415 9.682094306795282 2.296731744084012 -0.7452501921383164 0.8738955959235724
Ni 4.507234807557949 8.63999437927673 5.485319585102774 -0.8718829363689178 -0.7758746018923929 -1.6646453151555844
Ni 3.6084680204110975 2.568537891635768 4.615182529150468 0.7003826422016647 0.4816563251679124 0.003486158776387544
Ni 1.7670796014281183 6.499600763607025 7.008404053622462 -0.30049073999675346 -1.8785757534625906 -2.9802559199674414
Ni 7.282854095865506 7.594211319061982 2.638191521640973 0.06310001378427843 -2.7075253808030917 -1.9440206133299618
Ni 7.633046689748814 0.41463196432776267 2.5332433103525265 -1.3526555733802963 1.0710249035128394 -0.9854141102205545
Ni 6.351357716109425 3.3462005037833165 13.55673211028345 -3.0254695403896026 1.4268100452065233 -1.1770587405461665
Ni 4.0769085587512714 7.3138793148395775 1.2562413642098254 -0.45955075151812463 0.394802660607462 -0.7982221163496576
Ni 0.5990358269616375 6.481255335303311 3.2243359159314045 0.016675917993784185 -1.011516463734561 -0.023472886310959576
Ni 0.7690461605996936 0.44374491354194706 1.1889804125770547 1.9642346263839912 -1.4567050329937428 3.4058179732449476
Ni 7.719426593104332 5.120163152584191 12.456044807290832 0.5555806832612045 -0.03919183970811315 2.0484022594718465
Ni 4.798542228815551 6.153978138591617 7.061830548270506 -0.3256101607722005 -0.49547291933603055 -1.1889930300899072
Ni 6.615245324159638 6.6021253930450365 11.098270534346089 -0.43509441824797324 1.1496811198641619 -0.7850089600934932
Ni 1.364079518925799 8.77377834494639 6.655209140027989 -1.250486361508698 1.212904546600182 0.11130382718301476
Ni 3.1202117973896284 6.489421345247588 12.665282892139418 -1.0036923397044522 0.0018830759553257889 1.9169147582521053
Ni 4.631560436021508 7.163257636004998 9.170634254140865 0.9167713122411759 -0.7841198726203205 -0.515782320317344
Ni 5.490901876992434 4.027350617667424 3.5220066442499425 0.19181072358983095 -1.8364500279371339 0.6032571634015611
Ni 0.47977649595203964 1.4051062271435493 13.064913559070693 0.4062764655750164 -0.24908024673526136 -3.3295454266344526
Ni 8.32987329520026 0.8410728031276967 10.865635707244314 -0.8130740937608255 -0.43317097597301524 0.6033715774922382
Ni 9.256921447062384 2.36862984773613 5.966501721069304 1.3977203269294187 0.008460986283159621 -0.23575061950589077
Ni 6.907002250551788 2.641582475999715 5.007837438274986 -1.0240657611544817 -0.14235092629680646 -0.520049323123814
Ni 2.6713434617828713 0.6685733348070847 11.527589142476158 -0.28277609632580974 0.8005505073725181 -0.3726919447513517
Ni 2.7014883998684542 4.437205653471591 0.633932408906998 -0.4477840979004997 -0.52598754298512 -0.002511967788576319
Ni 7.533556219968996 3.5125642270173567 7.007869329806156 1.1705672192845518 2.075643611686303 0.6223149513639604
P 5.182260413983848 6.4998723396258145 12.765941138800027 1.2293845465330764 0.8467424325475481 -0.0850387228388987
P 3.8975934688280844 8.812351504304736 10.074940255601982 -1.640606014818194 0.7843870102387782 1.592177487003161
P 3.3090882361122493 6.544869676532065 4.949092736003827 0.45815027162617217 -0.2311524586122471 0.4699992005449583
P 5.580990197707968 8.470212544082068 7.290120159071659 -0.11857310715091839 -1.3959879176193442 1.0052054339148688
P 3.5862081515607005 2.8368456335090295 11.453753241781602 -0.3021311038136539 -0.683211786849333 0.9759146553705513
P 5.316465790717148 8.578917869120108 2.671744270527843 0.43833143712803213 -0.007540531351419272 0.07789157027115617
P 1.2039714088142093 1.0039041651794194 8.783585985100796 0.10129092303170298 0.3016618774867192 0.14453070755694464
P 8.136735922389743 5.280158886412145 3.4762142451369598 0.10175475004199896 1.1869505457385816 2.51828087527854
