# total energy = -340870.95581641054 ev
CRYSTAL
PRIMVEC
9.21705433039753 0.00000000000000 0.00000000000000
0.00000000000000 9.21705433039753 0.00000000000000
0.00000000000000 0.00000000000000 13.49009068666796
PRIMCOORD
 96 1
Ni 4.570700257671226 7.315151850996578 13.486246079461047 -2.0322495609713838 -0.3829946122289404 -0.9557260962378186
Ni 2.4912959855422727 0.20286736063881072 7.682687413281402 0.8534581540048269 0.5265387875028996 1.7692118236147658
Ni 4.828796206449416 5.217000090837669 9.697958501309449 1.5348331447557375 0.4726433230360247 0.9612393127465639
Ni 0.6240249785341933 9.032685362287715 12.437714927278627 0.4712520991154529 -0.590822280072318 -1.3216493548067691
Ni 2.6303352465707355 8.81527349028643 0.3880960448553365 -2.9972830506530572 0.8636551491424866 0.15251423998305347
Ni 4.561215909007103 6.892208889722925 4.331600657383566 -1.6555325542210393 0.38928558744397473 -1.0037866991904714
Ni 2.040148838736827 6.647874002709102 5.029388798137493 -0.43579067298404944 -0.639631331155221 -0.17080583920338968
Ni 0.3735036048115671 4.096916026007583 1.490546963495595 -1.3969896194109812 -1.1331604965013193 0.879155301660615
Ni 8.355591351388684 7.539799110462718 6.536353178387738 -2.2315733051088085 -0.8706236100405199 0.9338033280227981
Ni 1.1629986686980691 3.360832868898266 3.912652367354841 0.687128605405236 0.057915127149229285 0.6015723194999704
Ni 8.364227731076033 3.1298627103227115 9.438449578138442 0.014803640671735795 0.5397038641299479 0.17830728978675742
Ni 8.379998110633188 7.805978415682538 9.67677863270373 1.362372286447428 -0.24176931489614492 0.580263016499233
Ni 3.357302737179744 3.727358242054238 11.130781820122053 0.5348593915534531 -0.4854893257607575 1.5084320290543891
Ni 4.752202486917 3.59577557778892 7.853350386911035 -1.4648384607341547 -1.2663058450394578 0.11624908700343206
Ni 5.02903670667105 0.228114715216813 12.184357466010859 0.8610979299382718 -1.8012925061993945 -0.5307348278621181
Ni 6.639919685024809 4.766571874251661 0.33756538918836 -0.14556429102778157 0.4631945189182991 -0.3020686260068346
Ni 6.406405619518936 7.257453092359643 8.787903448150267 -0.5189748591127127 -2.613770104026802 0.0028708937898918297
Ni 6.65969026605935 2.1768193168627827 4.194986403287593 -1.7483622338592661 0.6673318823942829 1.6360294511911049
Ni 2.5765813870866126 4.80280411390051 9.312654302139599 -1.4378038252138656 1.262694987759748 -1.0919845364836418
Ni 1.116544716057469 8.494308015523808 6.1747515555295065 0.7860093763335495 1.411879649148936 -2.877566573926315
Ni 3.356805016258595 0.8819882017334109 2.4776842400542494 -0.4590933522657319 -0.1125181592060901 0.006290718104718198
Ni 1.5706228860652387 7.119132761550619 10.268913525773396 -0.41462149510560203 -0.27922694552197075 0.9867503125334748
Ni 5.381976142090466 9.093038632504113 8.120616382808695 -0.6391623619386024 1.2815293468574316 -0.320300575633829
Ni 8.823329195565773 6.911583137431366 11.970148520307712 -0.34659679032619667 -0.04535245999287028 0.6491019896498176
P 3.046476021922015 4.80514524564073 4.403030983211765 -0.41546738804566513 0.14293559515568285 -0.9219528564421156
P 0.2694614981831756 8.76105877809754 8.038029734703477 -0.9146128711372764 1.5579368206527362 1.899467252199619
P 3.725339707207355 6.1046392684369435 8.127522721442347 -0.23739818241164273 0.8008014470410595 -0.8306766373339372
P 8.938523937649546 5.942649542711042 5.239214112912889 0.7149525695960396 -0.74579320912598 -1.1785042147434412
P 0.5936188387790197 2.198912595529354 11.778467898224436 0.05364375346738503 -0.0831672168477987 0.1590571833078938
P 1.642064272358352 2.208848579844149 1.9995016301763018 -0.3849882456202015 -0.8042865773761826 0.42944416194073143
P 6.272767552190353 4.1726249083468465 11.624141231273414 -0.8163082844274071 0.1726392928677027 0.35892034488855606
P 5.611038370468282 6.1473050118443515 2.3126740857012993 0.2556303891489533 0.44570381833270334 -0.49294603914911883
Ni 6.635163685111606 2.1904236887075297 6.8766818403938865 0.14246431194621917 0.7453239827990453 1.1461759349243807
Ni 8.928440480469225 4.727030712182579 7.352422852641974 0.8506425389329028 -0.3915203903117644 -2.1484693373987773
Ni 1.3610362929909126 2.996408984076035 9.798877870010333 0.5223926265450101 -0.7880624022078364 0.6869632834719652
Ni 5.627389424433446 4.438435531402851 3.6494474054915935 -0.31019202644491745 0.17079838300422195 0.5061702511488766
Ni 5.868599730108943 8.479634465404 2.417599186112026 -0.37543222650065017 -2.3398743409097573 0.7487090972211945
Ni 1.8496138964776039 3.0464852389761106 13.365900847548788 0.5428208124923748 -0.4289505101337645 -0.17869964012916967
Ni 4.847672733236709 3.285861350886631 1.7725307513727229 0.17219680601364537 1.51429157315896 0.16855226728252262
Ni 8.064691907085116 0.8518530433686408 5.914864733140587 2.483699794869561 -0.9567617365911846 -0.9224241396515791
Ni 9.264337582866327 8.030524287553629 4.132756540857379 -1.2144952881260695 -0.7356926303568685 -0.9651252780645313
Ni 1.0601916473184554 5.876277536170375 2.9292378589453008 0.1459376152068003 -0.09666422289296901 0.6367231563694905
Ni 6.014247618923776 6.4927694163924325 11.788557807342624 -0.30332306723922603 0.46991898212632616 -0.04866635485745167
Ni 7.537845094994502 0.7374528113478869 8.906238440564328 0.2273690803104149 -0.7929097029978086 -0.38316276237568847
Ni 4.544818769771464 5.271712523947709 6.094553046140394 -0.46883783324700545 -0.21501158718632646 0.34782886296108484
Ni 6.2044783983978515 8.70896398835058 5.757597825933147 -0.4013795424940313 -1.8478793528199982 2.7376851922159235
Ni 0.17012285425964493 1.3325371617280684 0.5337918623514659 -0.25441939955998766 1.7868372500060128 0.4904744376801746
Ni 6.6127478095516965 7.345466741916208 0.5470174132728939 2.7451622173192596 -0.2837693134770145 -0.7339872176299875
Ni 4.115396219468774 8.112417813190875 9.956684896587763 0.08797080888402914 -0.6986417482511581 -0.10231267942799797
Ni 0.40861965920946824 0.7582142256976789 10.150524152740172 0.8790406304596217 -0.41671720129236617 -0.9070731111168057
Ni 2.0719108071494277 4.2857918985296415 6.332342903041103 0.2278737878609753 0.549971307494227 0.6013432342082998
Ni 3.6556772123546457 7.636237147462439 6.497165029490509 1.2817445481920313 0.17247294249316747 1.06898267627183
Ni 2.655894137577161 4.162910133330341 1.897934302572514 1.0797607407239405 1.0343812841478768 0.9225642647738691
Ni 4.867904166976017 0.33599572487592066 4.264770563254361 -0.9870241350201516 0.9715201258472818 -1.2368908822124505
Ni 1.8361109122279058 6.804010899084453 13.217806752577046 -0.5387952362727495 -1.3736671426349567 0.01738862779009263
Ni 2.971375465153045 1.432274904093928 11.86410262611899 -1.810269255776708 -1.0889958861689633 -0.6117392327306432
P 7.1999663259669004 -0.03361736140199611 3.998246540211375 1.162563889364101 -0.284304102934562 -1.1159670154411683
P 5.227830129399714 3.118267656270752 5.60169227761559 -0.3656520071854348 0.8772236318555409 -0.009029200081803804
P 9.04353383495795 5.543772309680366 0.13823829902757598 -0.4520523862585505 1.086216009430981 -0.8966164345598558
P 7.480727010765574 3.282358870330395 1.7376985822409585 -0.6455348411238495 -0.8656338701354124 0.7271146588798704
P 2.95034214770744 0.03328278233833465 5.187681563465747 0.014468625929820246 -0.17080943874781548 -0.42218233817199546
P 6.348992589558956 8.558974867056834 10.484687527261936 -0.1663010093545007 0.6156691639126688 0.2753628345808741
P 8.943952782511712 2.8765043273495343 5.7893938974459 0.3801103487026099 0.6277818880158027 -0.8962433674911532
P 6.406838821061418 2.495932163752238 9.045887870573905 -2.024612099030784 0.27950153933959604 0.47141382150429784
Ni 6.755197380595442 6.533407407898863 4.318393540570329 2.129239542634888 1.17824196222099 -0.23476845809827954
Ni 7.614687674987495 1.5031817012495106 11.417553867601717 0.3740471732276655 -1.2427537687511307 -1.0508800531338482
Ni 7.587985869273245 5.603720029516569 10.436001204119439 -0.389414142602039 -0.4451741710814785 -1.75674325883411
Ni 3.813270403277062 2.725409159564345 3.9732498895047668 -0.2296761311770367 0.1584411469904497 0.2197262190531764
Ni 7.9569445447103915 6.0385529905732325 2.1561076746051056 -0.051864807190091324 -0.22608969937735898 -0.5476704272751922
Ni 6.940257392722022 4.72875430129841 5.806000263809505 0.37959432829813977 -0.7034540820381369 0.5060051863259221
Ni 5.131530348211422 2.2136414479737345 11.078372728830441 2.113897255850863 1.7988975236046565 -1.3012939310788685
Ni 3.6084951124405125 6.1508443606169685 11.60302864716259 -0.4533132552488451 -0.07531686756544449 0.26211445421140017
Ni 6.809227751702425 4.582912854347574 8.217326322904231 -0.1944373625794006 0.9234826628230806 0.5804756467306712
Ni 4.61249959799367 2.309508027619544 13.299826551855402 -2.2626718262858256 0.06015944309871575 0.28016694083773686
Ni 8.137469766222056 4.146761854555274 3.7749587962243005 0.3012777546744231 0.4371243041938085 -0.10892067166281887
Ni 1.496407166489423 7.015754282817093 7.951909268058098 0.5378637255974156 -2.0649236541656375 -0.23965509676661956
Ni 8.361840514065335 1.4961398719206576 3.002475649081599 1.661742282576177 0.1960666706527075 -1.841764755281828
Ni 6.790286705536466 2.2633029354395187 13.360639753071158 1.5517407191443535 0.45957363433626014 0.7193555837597417
Ni 2.248758424077045 1.9517941581787335 5.882205945364508 -0.8504602477187675 0.712653746259534 0.1799913623573997
Ni 8.417861768856916 3.9884497334134204 11.900728433977712 -0.7582481470598812 -1.437952434976588 1.2147889081070886
Ni 4.433790136138791 1.2457401633120901 6.457436761223291 -0.17728219095635273 0.2461291345267374 0.08692411278706966
Ni 3.457796277981423 6.895462509818587 1.9617826797018718 -0.3935885856947028 -0.5942639587640152 0.8818621590688167
Ni 1.2642940932060442 4.803652082877282 11.756775561411013 1.1252474123018297 1.2604007924089327 -0.6965599260214649
Ni 3.7857851479647073 1.3134670768047743 9.469908305471305 0.9809717581784847 -1.0009913958335213 1.0400168851670992
Ni 8.644389307358509 8.537001410093502 1.592289415127195 0.3397283453411375 -0.6842926786183375 0.7523703481228654
Ni 0.49534937313055033 1.752549099799398 7.518351025582822 0.1310028482738389 0.41542522195382003 1.3246436615484025
Ni 1.218310210324307 0.9226271149452501 3.92009882535848 1.1302996300137567 -0.7731960266189651 -0.040262189954156466
Ni 6.04030423085135 1.4258414003353688 1.9816002677122995 0.28987954013981043 0.29522434939149156 -0.19843928464994212
P 6.122446616949173 6.705222513290415 6.754757727115092 0.10890138838910923 0.032311824758828225 -0.8883935324294313
P 0.125334423294076 5.216990873783574 9.303575503855672 1.8448459653103133 0.7623086902825 1.2991066936195628
P 7.711964463909894 -0.10632609263322094 13.147307349212479 -0.07129951887593527 0.19485773794627087 0.22366643464784705
P 1.6508481249112272 7.927864739039539 2.54023762108321 -1.1252697808993328 1.0950174097726948 -0.33123290627561663
P 3.4242830692907047 4.677922247962516 13.34642060371825 -0.07732618468598941 0.01988311207717221 -0.34982661011740396
P 2.7251418649955794 8.36042108773465 11.632046698571001 0.01647408639562324 0.08953044006166516 0.4711112026622144
P 2.788960747551832 2.4588150869102345 8.202433406896953 -1.7692830431723334 1.1803646649909478 -2.554047234244872
P 4.4733405152619685 0.08258111787276186 0.8465993225342872 3.7226521875967302 1.6460847785445782 0.3132925197471121
