# total energy = -340894.67443017394 ev
CRYSTAL
PRIMVEC
9.04311195706099 0.00000000000000 0.00000000000000
0.00000000000000 9.04311195706099 0.00000000000000
0.00000000000000 0.00000000000000 13.23550844092737
PRIMCOORD
 96 1
Ni 6.353600031582746 2.0361742181233233 11.37764014457365 0.1058443467303403 -0.14285794784021202 0.7339116271970457
Ni 4.7529149560901605 0.2951382363978419 6.010323501602414 -1.4875924666012188 -0.03721903225245848 0.03458853660814688
Ni 2.7687928904053716 1.4073976004715207 4.760229929354152 -0.03028116748204462 0.720633936251533 1.2067243859313992
Ni 3.30240884090799 4.360814664640814 4.905820414656347 0.39297512048042 0.3054956494105126 -0.09550259848470004
Ni 4.72580370643576 4.525046620936198 2.549674670383364 1.4060334747808043 0.6060779206798078 0.039989395908744035
Ni 7.312811960232475 6.003324132945808 2.528776038645099 -0.4600657434813303 0.06434879858971498 -0.4724972843764637
Ni 5.313063397081775 4.848274571702452 11.26750770126442 -1.8017149384487938 -0.7538114514447662 0.7572557012396249
Ni 5.453276848012887 7.7694167692885046 12.193913932658889 0.6652266631258221 -0.38358236641161036 1.760684502870045
Ni 1.8665525671001129 6.380855971028497 0.5914475557944313 0.580797034625832 0.3982867625013205 -1.2726685540326919
Ni 2.514527711441805 1.4957940198750441 0.5677012481001386 1.2804345711313563 0.8411690522248287 -0.8706282380262103
Ni 0.5163761618631425 -0.08797501038621328 4.861177283846181 -0.2804065676523687 0.1846712843315723 0.10863322232938712
Ni 8.77583374236651 2.3725598967905617 1.4781680903549 -1.0381559206989606 0.2384376794197507 0.042481051982346196
Ni 6.945652571567263 0.6054182594605696 5.000811975611889 -0.042477195327604265 0.8124135773586911 -1.3205188407467516
Ni 0.635046207173282 7.351968635016849 2.4700500695804974 0.43697158066602804 -0.28181347530222434 0.35134716052698844
Ni 7.643753685500131 3.771312282228858 3.7950965709933806 0.5890235363006823 0.16983139110526235 -0.4227968318275428
Ni 7.607174297624197 4.017511005324605 12.571416832783308 -0.47020591723912575 -0.5998386246383154 0.6589318312560458
Ni 8.065723375751507 9.18337062593062 7.081023436044097 -0.23688987531665653 -2.259110077076496 -1.2156864802206935
Ni 6.952968449142451 0.8307943129585099 0.5361109450922278 -0.3581919513629637 -0.8144786874178359 -0.7837020683566116
Ni 1.8115614032747598 6.495133776859936 9.28674786460615 0.11751226998657181 -0.20641921753162515 -0.39146768269695803
Ni 3.43638254458709e-05 4.874210216802124 1.2445004075013497 0.15029357818265082 0.0655531033104613 0.1881150199057986
Ni 6.322437467770516 1.8259037788424313 7.025580116620771 0.10554866986679241 1.3010720448760495 -0.3254741494149685
Ni 3.3324591019492087 4.149431922588911 0.287953483946067 -0.2924745545604963 0.04075224221669756 0.38301003884790813
Ni 6.023047160129345 5.533570639100752 4.643108969122664 -0.9093117706393371 -0.19745275236695672 0.43579195853563013
Ni 5.443890097798989 2.8482004565212122 9.190750709600717 0.28736448702744055 1.015706847666825 0.48367901202489605
P 0.3948285983275093 5.79329785768782 12.271235252845687 -0.34581440363421734 -0.13401309585507243 1.2323942798936776
P 3.963686402942019 5.999589327706559 12.645390392922721 0.1780362955135579 1.3955863113055513 0.22416522866113653
P 2.3508202556400684 8.511268458881142 1.4924751977859296 -0.06781927363681868 -0.8577624378071357 -0.2646757871806732
P 6.314660391485399 7.8297343260579675 5.9139429186499015 0.8117270928146278 -1.168558159274323 -0.004539796851882504
P 4.452701725260681 1.1464947773297258 12.625563369951648 0.4754980188760004 -0.3374490623886576 -0.5958284750376577
P 4.0489539056075765 6.102120131102686 8.26662062948644 -0.8457078206354467 -0.6090909964745187 -0.4716848157774974
P 4.8416550137481424 1.0603139203562653 3.758116573257644 -0.7618985993282749 -0.32002109672019724 0.588357106361277
P 0.19439887348087947 5.5594429824167095 3.6898609728101848 0.6887851671720525 -0.5498808046629498 -0.6676365581188953
Ni 1.4162146346319746 1.02505482682641 2.7221602749641294 -0.5328361904758372 0.017322807549163714 0.053202295054592244
Ni 1.7963418458470228 6.74088034435771 4.896926514044238 0.21429399229401158 -0.8525826933784091 -0.5892842461612368
Ni 6.020668821684013 5.564615642457509 9.064509770958136 0.11868417880748593 -0.7425860150425921 0.28681864182629957
Ni 8.807222383977724 2.1096223734578925 10.278073692446242 -0.7559652645629755 1.1251674509935137 -0.46456723089610963
Ni 2.2140160579176644 5.452553399056132 7.05632579297167 0.9236567265070996 -0.016606241098113338 -0.26839128835904746
Ni 0.5225688849329668 -0.002522123925487735 9.101449979001252 0.12121414431819125 0.6634178920518574 0.7266662584885422
Ni 1.5637168338023957 1.03134883275018 11.44964140199471 0.04329917700826737 0.3638707469152959 0.11305629109774722
Ni 4.027042445329854 6.912229229765175 1.6892614528241012 0.6496378075486295 0.14907564661514972 -0.3973076864175029
Ni 5.7331792493814655 7.700607730389128 8.013994062409923 -1.1963019050464945 0.923677552442706 -0.0019820634270352956
Ni 5.305747519506588 2.956084782197328 4.73771619781993 -0.6801138646502997 -0.40383314624084643 -0.0717664312100248
Ni 0.8639680648705185 7.743463037964913 7.202221031146899 -0.32718496145848813 -1.6183376903382967 -0.5643512303649829
Ni 5.0354941185987325 4.430048729802285 6.983384956218026 0.06480105563578517 0.117392713689572 -0.16175992695103752
Ni 7.981649563864596 7.116657818720268 8.936972954371766 0.6977261784154242 0.8039291940367639 0.4612692768711282
Ni 4.780776784037195 0.25089481113628315 10.519238115114169 -0.7236832646008181 1.3533076051419983 -0.48135242077424845
Ni 7.917877538326626 7.037810925545914 4.5478135596052836 1.1828496361963308 1.174334656746784 1.1846026143316952
Ni 7.1845625464237015 6.002465037309661 6.8488596227094005 0.3491036159084504 -0.4339687892839623 -0.14127080585875024
Ni 2.353732137691008 5.173329231084512 2.677583158871267 -0.7371283343621305 0.3602182377643732 0.03817059753245039
Ni 2.6719502044317323 5.003680450725423 11.131909854677403 -0.8456147467010081 0.9979299832993782 0.8027593420983787
Ni 1.1035219092984683 3.356631340216791 3.8180208598105603 -0.10872526782256113 -0.07173557797208935 0.10011798576952435
Ni 3.354786545377065 2.6836610344192064 2.7912098606416267 0.1349212094916386 -0.36009919568800564 -0.48866566660621
Ni 1.2000842588013654 3.496727230692431 8.080847076192473 -1.4643815757023941 -0.05135778564668575 0.6071073903855867
Ni 3.53128096148945 2.538971243068171 7.265619576160943 1.0161557622787853 -0.21886258550130047 -0.9071409882402636
Ni 4.149142543006208 6.830325764748529 6.142374639678936 0.24735015141803207 0.20973594060968395 -0.4812796585547841
Ni 0.6035363878618103 7.615638650418233 11.116715617963154 0.4093337643441014 -0.6318164630964924 0.6727072877735834
P 0.20236404649475398 5.713401963526171 7.960112488421994 -0.04601580460848204 -1.1398384227421272 -0.5183325975430234
P 8.560408729268737 1.8409424740309794 8.04394665784198 1.0593027299799047 -0.8778764349481913 1.1911378443470517
P 1.7560095665079216 3.162511898895458 10.293122335057946 0.24206010666368638 0.025290142025356448 0.22928815170999867
P 4.054406902119118 6.2624997217033505 3.9176976570722886 -0.6442156080917937 -0.3268322061047597 -0.8823678950606416
P 7.052451723808246 3.9182990240175912 10.415074125698167 0.07676414153493231 -0.09734376545849686 -1.0782571595952204
P 6.312327268599863 7.758546948713258 10.19660881835963 0.502191983227419 -0.9177007660339809 0.5691283400386521
P 2.429386812343681 8.50839274927804 5.941088532129748 0.7742010708447118 0.6822926174691732 -0.9770857928605172
P 6.793782549320433 3.9596260456722305 1.6605133999050425 0.2973848473779201 -0.021694968474930378 -0.3641782508533857
Ni 5.179234383194027 2.719453671554669 0.6892361512790285 0.3852602683346655 0.16165142639763128 0.10276905023912625
Ni 1.5792438570367537 1.1568310542993654 7.109889953729823 -0.8621929627746636 0.319396832872637 -0.3612981010921133
Ni 6.954614295519068 0.5481030158616408 9.161817272886491 -0.2677917071018356 0.8203382315224067 0.7338018410920588
Ni 2.7723830058532695 1.4859098985033763 9.396152337402649 0.4506156538120239 -0.3032189375611939 -0.8586183580495277
Ni 6.5358639531252525 1.8190762293130542 2.6996998977904685 0.15744073075039336 0.9305915059537199 -0.1386271975883161
Ni 3.979249598624215 6.973324494163149 10.302320988543087 1.080229452830243 -0.5947581247916144 0.27352912380624506
Ni 8.229548392008716 7.2409644357147265 0.2810201300067646 -0.28540710619075366 0.020947805896260698 0.14359354045465594
Ni 7.647045378253366 3.6689442548480007 7.930637369301396 -0.09419673518908293 2.058792601567235 0.8506692784057801
Ni 3.030600024743111 8.341122307364284 12.481772463929381 0.1605309396399429 -0.29014282110352607 0.23479262646799565
Ni 0.13425313583864598 4.815683196200632 10.404155472318338 0.442551902967283 -0.8789886941757635 -2.0817569236728923
Ni 8.643315979712881 2.348749383001357 5.830030074155869 0.3055434719293125 0.588998853710334 0.5259057819045911
Ni 3.650496306450744 2.8519804773202577 11.388519912572054 0.9160817423733191 -1.0685972679079532 0.44032944139466745
Ni 0.8924746667002603 3.507506620148083 12.358749064521968 1.2862470640480752 -0.2107394421735338 0.7893600379733373
Ni 3.1370012800578784 8.483497062053702 8.005073936773131 1.3139226755864728 -0.5390605741189942 0.5450052217382033
Ni 5.85689806409856 7.8308104563811405 3.641326590923872 -1.4667984126740028 0.3120974709977464 -0.5585963301590766
Ni 3.2171051657945955 8.46109727373017 3.5848243230900967 0.41224039646793514 -1.0289205181436214 0.1937652762130405
Ni 3.3541716137638233 4.058440130053029 9.004195831433456 0.5882642895371546 1.1302335526625116 0.27486969699453956
Ni 7.373156646337816 6.02944064028467 11.204254750352922 -0.09885608833796523 1.904481931805391 0.674603990575664
Ni 0.5345446781008528 0.26194911119550224 0.2705328330674024 -0.5804396512864133 -1.4754326913102331 0.7852529577834991
Ni 4.609048087927434 0.3917584618172795 1.642632454627642 0.10359643123642803 -0.33361066247917387 -0.4744963170843635
Ni 6.095193107341756 5.732112162170251 0.3888393452767724 -0.8770634521285927 -0.054888681618079666 -0.171706239530472
Ni 7.810897523846454 8.893303766719631 11.523482028388319 -0.5933483889282813 0.45566478620015716 -0.051720568302743186
Ni 0.19165609762358143 4.833362480081336 5.788748268061026 -0.40726016964452444 -0.2183519644134691 0.2262298244996491
Ni 7.966149669966116 8.885662337113905 2.729850537374437 -0.05131947620958258 -0.15719236218501315 -0.6170979259393954
P 8.589111566627999 1.6683456391731133 3.818603236220748 -0.12691402291644593 -0.6618603177567505 -1.3580906283529386
P 1.640492854338039 3.320929134200923 1.4288921732879132 0.8916750313941805 0.4465085736221858 0.7692761227392687
P 4.823279410246561 1.037253984859694 8.342208385110611 -0.6022737164423693 -1.2820425390484245 -0.46523803171088907
P 8.546717457762144 1.8076728651322007 12.453236924141372 -1.3403780415645237 -0.4478715154079835 0.253820332523408
P 6.278732107670544 7.803934327637687 1.330248099411953 0.4796436656132578 -0.07144735730770921 0.10748188233376328
P 1.892696203774853 3.1564439707706744 6.00361351252851 -0.6063815679631557 0.12363278106201289 -0.5954152987596392
P 6.890390114383127 3.847283465800111 5.861557075380063 0.10798504722242692 0.7773002785953258 0.7924463902081449
P 2.4359340254023154 8.442911575579737 10.160370355804567 -0.7270372686747156 0.8759193112218205 0.7637166263736201
