# total energy = -340863.87066145235 ev
CRYSTAL
PRIMVEC
9.37883781810845 0.00000000000000 0.00000000000000
0.00000000000000 9.37883781810845 0.00000000000000
0.00000000000000 0.00000000000000 13.72687717426005
PRIMCOORD
 96 1
Ni 3.231366037139379 7.925718233719219 2.44919065553054 -1.1438683698371266 -0.9052216597303635 -1.1314028903802644
Ni 8.781612218757925 8.00121787845789 7.3788550802594255 -0.9416822165502428 1.2889400374992062 0.8978881021834278
Ni 1.3407423868288049 1.0427579504763784 10.817589098156688 -0.9080753271290748 0.8696463337289151 -0.8404308885072235
Ni 4.869905283563496 6.368221525206512 1.5746234043210652 0.693617298453373 0.34734498134613084 0.8750482214707769
Ni 5.294138256291977 7.764627314709107 3.607835402319956 1.1308393045673104 -2.5654822155546912 -0.022633678239115856
Ni 5.077852876500862 4.401122831020271 2.7703999080651243 -1.079263489372548 -0.5261698341992551 -0.45091647288189435
Ni 0.13404516428552773 5.817871319831956 0.23580743078782845 -0.607387897740483 0.5585011993421091 -0.3979715452537469
Ni 1.9052265008519542 5.254137512837266 5.008937175936918 -0.07130106153783204 0.8029789143083526 0.2457172438002994
Ni 0.38606579207456604 6.717123672277726 2.6553131266211802 0.3033526349255808 -2.225800150070457 -0.21618323889692445
Ni 8.184902417862467 6.712893816404789 11.496630089284931 0.348503006209974 -0.5519754824084494 -0.1748509558070408
Ni 3.5422463755434417 6.707125831123513 11.253554997042693 1.6091328839105774 -0.7551052305555254 0.7696774719427455
Ni 3.7124160095979057 2.3415019013872 9.189320617068384 0.13077324876153607 -0.0171410305556608 0.32074434803946694
Ni 1.9904332427713107 8.618964412663761 5.830024417925419 -0.019320297595166725 0.5674851480082743 -0.40966826486538477
Ni 2.80952466806411 4.562907784031708 12.340283753038115 -0.1852940055172357 2.310419268873434 1.8284058174764188
Ni 8.776022431395905 4.764505903740741 4.2522431588983265 1.1121777236020651 -0.08947130468895557 0.8980606232055501
Ni 0.7483853045821954 3.1442272546217414 12.27027729363155 0.9984483176966933 0.9203816553002536 -1.6654027621468996
Ni 2.9673986456897046 1.2172512287823365 7.068819775146164 -0.2734082819576646 -0.11388418631568129 -0.5490421108117383
Ni 9.146580315076013 8.5967084304321 12.937554408437345 0.7423314758296248 0.30754224752689613 -0.2399088646486384
Ni 7.645347254859863 0.6246005889108424 7.366240543343461 0.19145308314009607 1.2150763574405203 -0.28134322053402516
Ni 6.952241758483158 5.656817916173267 0.37884408692564975 0.1815790185594937 -1.301489334919126 0.2631282401878952
Ni 6.117712766079818 4.614913439941761 7.005209683157211 0.8578002330236066 0.4042913168241876 0.988050005181505
Ni 4.600432514292505 4.875663890006918 8.84366448577904 -0.5805126706161937 -0.5558185103036234 1.2737085652614322
Ni 4.471726722398247 0.32035015098699887 11.815217018755051 0.5246863076751931 -0.14742139884117836 -1.0941617466406188
Ni 6.237208539199743 0.3439660647077407 5.006466790045717 1.1562286911746926 -1.8592719109276559 0.8722794004763882
P 7.283914980413387 7.57988296662683 13.372064711688141 -0.16636065894784252 0.8891844037618428 -0.5080522986629379
P 4.12731703865993 3.195942166558266 7.069904906686073 0.6482789795278899 0.023529707690823992 0.38949204702782597
P 0.8663579544343494 4.496214868039573 1.8452629010213095 -1.455879451768654 1.2551241173910257 1.9847887963862594
P 4.348967113704527 3.6284566531133624 10.942709360338696 0.9714321941191658 2.45843587809645 -1.6216996648319943
P 1.0308468263995942 6.267445912446635 12.04190259184439 0.48621926194824655 0.6667868085240903 -1.3401173317039694
P 8.879227163160419 0.043016977709116194 9.476514700467789 0.19913373961380543 -0.37037023859671053 0.0034205956457747538
P 6.935669351992074 5.965672425600491 2.620968760277263 -1.078821773849439 -0.13112291879147098 -1.2279930655021882
P 0.8805256268992233 0.6706094158959381 0.624698128824542 -1.292223336236168 -0.18760825547270915 0.49094494955868995
Ni 1.0676306284697887 6.782700506565028 6.898894928759735 1.865100601794291 -3.5789267495499004 -0.7084458788257735
Ni 0.7784998150531763 0.8626767605759732 7.7259396085541985 -1.6959405257244407 0.8003774721297635 -0.09973129185406694
Ni 7.446900424670357 9.339840647931299 11.357329962148835 1.8718057817286087 0.8531038559892017 0.36054451075554034
Ni 8.918243128640277 8.482952506079885 1.6783852390542087 -0.9320660336167174 1.1013456659835676 -2.5722812407543953
Ni 6.7141693383531695 0.1557815588999802 0.36317580040385805 0.4031474330277315 0.6030314205440002 -0.6629782334112776
Ni 1.8088026688571381 8.292824705068416 8.360010947931762 2.3722280746501148 1.342567593016675 1.1677289785048084
Ni 8.580905088645185 1.696603631588975 5.073810597385041 -0.3038881957140766 -0.6190005422787469 -0.3788497368226314
Ni 2.169878547465097 1.0369805863572452 2.4758068594813314 1.4791937010145624 -0.963080736830677 -1.47719415408603
Ni 3.132747557086321 2.414037833363458 11.998539535018399 -0.22140823474128965 -1.7441952469657702 0.3787034410527542
Ni 8.499759383517363 5.741912112038355 8.231088504883036 -0.6790905655921079 -0.7202436427916499 -1.3575784646032103
Ni 0.5502235910635036 9.07084619939095 3.544773972345563 -0.16194864592307595 -0.17715363579828847 2.248936993198236
Ni 4.884423724564175 0.4725949501315812 2.184851862101779 -0.6710489262345539 0.5687539874183689 -0.9413891107898562
Ni 2.32505141978824 4.940387250049348 10.164821045513714 -0.978183139689754 -0.5396642691412642 -1.2719018510699964
Ni 8.369487325701197 1.6584411403539876 2.204041902238399 -0.07453190977030388 -1.4417288712998848 -1.13270155458703
Ni 0.5350889604157033 6.913432127436125 9.620097204968813 -0.44785043236206096 -0.32004732197244234 1.1714246821888405
Ni 4.768191787018045 1.9005933549512208 4.121851989841393 -0.4008300977484645 0.956119217911179 -0.38147997535662687
Ni 8.423631356642359 1.8800443212093045 12.693133452962808 -1.0277581224044041 -2.201027314001151 -0.3499947602641521
Ni 2.463239216754646 5.728247145282547 1.0019243662200774 0.9284217519959107 -0.7027917658637897 0.6178443171871166
Ni 3.791113838045382 9.203359799454637 4.189923594998321 -1.5472073500503742 1.4259011602390088 2.333071201944995
Ni 0.7989982030706718 2.687571639425982 3.07517743667646 -0.1446680044657573 1.9139255937167938 0.44667029601103075
Ni 5.2064836376922745 0.796666623979736 7.203316061532552 0.47437778922862817 0.2302633711390744 0.6100006527729818
Ni 6.058222797560888 0.4119007388319749 9.677366264683505 -1.0317626155781068 0.8172390237717926 -1.21153260595332
Ni 4.802274483785787 4.235370629595859 0.318603811378261 -0.61640758474059 0.38911152375995567 -0.9596737680316568
Ni 5.969208247472103 5.4395852737587225 11.513294408387003 -0.7526516268087101 -1.8856172336904042 0.2560265961461075
P 6.776332275660984 2.416579498422362 8.38872801156224 -1.8006664425796215 -1.1367351012264553 -0.23119848135883408
P 7.514081040230991 3.8825950224902255 12.215506756321625 0.433546357034563 -0.29101082553077623 0.6176244878668267
P 4.047559401534756 5.374346077634227 4.485490166951539 0.3236124136158814 -0.34638390298444216 -0.7785668040125753
P 8.636437187588996 8.813959830522355 5.349542803040949 -0.5057203080956516 0.6364045966878072 0.5524303105576809
P 6.776491715904532 1.9376866586706547 3.567780261605682 0.647573211710117 0.4563612980465495 0.17248014158201908
P 7.673099236074985 5.8696518836334715 5.945742395157053 -0.16239344676997838 -0.44132600097998187 1.1093531096690765
P 3.833946990532526 0.15534356717211734 9.435580762646431 -0.448060491490338 -0.2437938015253414 -0.12217393712829927
P 6.854167251025733 6.429615397810156 9.470364996485783 -1.0709716816774006 0.7393741929735137 0.8338192967279768
Ni 6.641080054943424 2.694193098952131 0.5706966562187884 -1.214585790957347 -0.37998487886833915 -0.4921068310772751
Ni 4.0804885012462435 5.833243235077506 6.596341122603994 -0.24230564701558918 0.7186693563259946 0.029629907051290903
Ni 1.7270848546201152 7.819831154327966 0.5163378498907314 0.0736865310508731 1.1652319231145676 -0.4681672895425421
Ni 4.573899781998629 8.392681191718431 0.21947512254585075 -0.7548290940760033 0.12831450280839837 -0.42669282444783935
Ni 6.9042127298239375 4.210863726278822 9.575773755146393 -0.2692973451130846 0.4909153818723352 0.0508852168856414
Ni 1.9304837111974498 3.2662271774491476 0.6437990700015328 -0.30686039096852313 -1.342523627152617 -1.9406912918464125
Ni 2.479455227407213 0.49750701924398577 12.975220759149764 -0.5943506049405507 -0.7354555746453979 0.9371987268575924
Ni 6.305533372978776 8.01729320654262 7.456604708199686 -0.5104189991229016 -1.3504462244338034 0.47067745755890555
Ni 1.2597186065931063 2.992646477197345 5.39724357237522 -0.5767498611396519 -0.4526560812808204 1.1428288728290188
Ni 6.35480978707281 2.6067635724609657 5.866894505303886 -0.15461020328013372 -0.3079736786373599 -0.049807410440430355
Ni 4.26943456868789 7.402341566017758 9.067535469627876 1.2517922248043152 0.8311849444289234 -0.0032555308228201995
Ni 7.420067569565099 3.9039693939634463 2.5253749554326785 0.2800234732813371 -1.0536370470536953 -0.18383567580415436
Ni 8.825955364139842 3.416485538735885 0.5948490394648783 0.34308672029040915 1.2564983720307328 0.0377849320582575
Ni 3.1309937144072983 3.4058405577696256 4.078158797922878 -0.3992180160663383 0.29165025888698803 -0.48994607598053036
Ni 3.644682042603784 2.7720655896683026 1.8090924749468804 2.0499899156739403 -0.9898199525977339 0.5618744866897162
Ni 6.249222830492941 4.819597197305331 4.629897071300084 0.4418049974989295 0.29987573212057383 0.7169521165245717
Ni 6.944945022631396 9.098166754064707 2.7172350277961024 0.871427593999054 0.29387554867308097 0.5316288004312973
Ni 8.177718228064974 2.305768529156848 10.058272758053631 1.430700124289549 -1.0174780806346349 0.6604773213662948
Ni 5.976504983323866 2.341051717170125 11.65945890694971 0.21995221902105344 -0.028806125598414906 0.04438186854948486
Ni 5.909990265250989 7.720828141922822 11.5469119147971 -0.985990551549315 0.27899811734061625 -0.04877768362433535
Ni 1.8549840664587793 3.267812201046767 7.774079307500116 0.012644171126571773 0.4104354820487125 -0.03059972716372794
Ni 7.6408641703648215 7.09369339102336 4.189511864016454 0.9531349384718747 1.7094586148155333 0.2605522519306029
Ni 1.9111445475389233 8.125506237722096 11.101131062095066 -0.6808309453219823 0.9177622153995355 0.491628862999592
Ni 8.412658116351148 3.125863490100211 7.296178748793546 1.1588121356311527 -0.2560152832921978 -0.07326615568400285
P 2.009922467835529 1.119523738325573 4.62551809190524 -0.10834345900311018 0.45926227374342843 0.7969237092532081
P 2.728341447584864 6.1204701444094045 8.388521677129413 -0.9605829101094877 0.5654056397714263 -0.41365090366221663
P 0.4021898901161464 4.633708631004654 6.626978972227325 0.5414540140518351 0.7708085002233951 -0.8605749675552663
P 4.07757168267311 6.350195398847789 13.363183890122544 0.1258873814241445 -0.6049150107199581 -1.33288430429064
P 4.792501734740111 8.006573194873514 5.836064389504512 -0.10320768043844161 0.4943154086928196 0.2590183317845797
P 0.7937301098471051 3.3540130997788316 9.59713218259526 -0.4679466888913038 -1.0620142153737968 1.4236684142537481
P 1.85658784773211 7.20922191573031 4.037198599355525 0.7660180208132873 0.7786735047937686 0.6414347029125469
P 4.636784889821335 1.5761230804941975 0.17554183237822918 0.20317371401113396 -0.3430772072087124 -0.41185293122152944
