# total energy = -340868.7542026628 ev
CRYSTAL
PRIMVEC
9.27834729199995 0.00000000000000 0.00000000000000

0.00000000000000 9.27834729199995 0.00000000000000

0.00000000000000 0.00000000000000 13.57979913155842

PRIMCOORD
 96 1
Ni 6.716929488986588 5.305952688207005 3.481154183917176 -1.1847512240944176 2.0261624742370397 -1.308638801479714
Ni 8.790380272982425 0.21783517763521817 10.548366327612003 -2.6281623681927315 -0.6019541283194213 0.24036009325344412
Ni 1.6720787666295638 -0.04279266467775472 5.799131166661931 1.9580354395518147 1.676391142837603 1.3001837287338254
Ni 4.004200589534168 6.4644934993316205 8.741004621034476 0.6014800168964803 1.5665862687976182 1.4765742611138442
Ni 3.0155834272698105 5.423342335765156 7.082367395854287 -1.2207392121532523 -1.0369647286043369 -2.1073190884127126
Ni 4.216776800030914 0.4646243652427703 11.182231455368187 1.7886997571360486 0.7255288024499892 -1.0110768050939813
Ni 4.417059200615032 7.352626162461076 11.042236970760879 -0.17205873777388433 0.6313462083282934 -0.6799781104033837
Ni 1.787028208899398 4.632957059374962 11.755773409428565 0.17278738840979274 0.538096410433512 0.059637509156974716
Ni 3.492768818821799 4.0688613905010325 0.19925807106385143 -1.3582245828276414 -0.6413974219167083 -2.230832827398358
Ni 9.23928526256182 9.299687302208008 12.768311078361409 0.2741726709275149 0.31698513810735085 -0.20252168224943184
Ni 3.983157298302593 4.9685270390805965 10.749755635005613 -0.27729913237163856 0.5611265527800982 -0.2725240795804984
Ni 1.177143897067874 7.391966354181481 2.178647755624795 -0.40840045389655466 -0.3865825866905149 -0.07646692200948767
Ni 2.9296288196995675 7.589428137246023 4.317792020620157 -0.5213613570670182 -0.08169834561175607 -0.7115535712168197
Ni 4.651235403169584 4.035700577951804 8.568133241299316 0.9775377927962714 0.4163040250143475 0.585861850743249
Ni 7.921286778110109 3.5235636528595404 1.832756542600817 -1.093466777456123 0.9538684742037896 -0.3432296736261766
Ni 5.492029939375099 7.787455899483901 4.600496762032076 1.0087939225970757 0.07408530915118855 -1.2020825162840136
Ni 6.867878918019434 4.025670684732521 5.6064746395624825 -1.1145279690017966 0.3916047224954546 -0.45581596706604083
Ni 6.1333585695416355 7.946728005868919 12.66553853883069 0.49276683325877724 1.6935491426741285 0.4613942324847667
Ni 1.9935827721257322 7.921184716291967 7.708858093332315 0.2166190408827624 -0.7030774154250085 0.4328295334731965
Ni 1.2434191304308109 6.946856208567567 13.046723656403078 1.6198538698725071 1.2221934281012758 -0.25729029334987946
Ni 1.332945901636044 0.8061723839874273 9.683089016903507 1.7640919858896973 0.7624475298532094 -0.9589019228626388
Ni 7.7628590013115435 1.4556056503491934 0.5583635060331599 -1.249082539182636 -0.9580282620084339 -0.0295471175294975
Ni 1.3318881700662029 2.3249589389404175 3.0955154597349326 -0.13021711914774994 0.6861472153285731 0.7943515776506578
Ni 6.180232779110383 7.860207419125339 6.967604448361239 0.4508205707339784 -0.6033841758977286 0.2084267348799572
P 1.1692665803766888 2.5107578396953967 12.132586569845609 -0.4384803040010707 -0.29352202198840416 0.4357274238462819
P 5.117110489601956 5.550613422988929 6.11530940092048 0.18414780772793446 0.7078506684439358 -0.08404653412895847
P 3.3142905339317728 6.1536224796164865 12.486353243891351 -0.4442298048903382 -0.6057701596314018 0.5673115985448874
P 8.738300910688407 3.429035852565322 6.534626669420346 0.726796099198187 1.3742973200197879 -0.8981061317315049
P 7.612122974262086 0.012454325317523506 4.744686915199755 -0.2616156601981107 -0.13388145537321458 -0.590128596439403
P 2.923542223999429 8.454661839723128 9.779356507279703 1.237575824094617 -0.10672237845991944 -1.8707354314825653
P 6.677125379910989 4.090943856608241 13.265303885310738 2.301851324698765 2.6085386804245334 -0.7495166807241543
P 2.5450691672855044 2.2474940189702144 6.33056241455669 -0.09083707468823066 -0.3499410242080812 -0.23497723167497597
Ni 4.28904584562295 2.731155696800703 4.396514156622935 -1.6235662857270876 0.1885143122267463 -2.5064085493209864
Ni 1.3743087730250925 5.119281622824262 3.3928039071247134 -0.223850268523879 0.8186695855707319 -1.3855973184136394
Ni 3.095674119470409 6.159727632010831 1.133962469646467 0.28299721119768034 0.9532706927187904 0.812151581946556
Ni 4.80194359517773 4.543708638582845 1.9308843415713368 0.6969327359798514 -0.46214242350470086 2.020433285062746
Ni 0.07952378519255174 1.742390080982684 5.180938094998892 -0.6466591845362799 0.6701053313743621 0.021764388260285098
Ni 5.995083362652674 6.4221564014966654 0.7280663302323466 -0.7221737699348272 -1.6212996011800984 1.0748622749810586
Ni 0.8554181390759229 3.0697225826208867 9.97520385794817 -1.633682291115167 -0.1290405823411455 1.457979271720476
Ni 3.363400825152552 5.013128053608895 4.6243421140890195 1.455865567811583 0.974188416708064 -0.14243885802492243
Ni 5.203584684610016 1.0692645552911877 2.917443566448056 1.5089526774445496 0.573432880951277 0.41518353825665916
Ni 8.928386407805373 4.157599502202436 12.557714867136628 -1.6175349919313433 -0.48427756484084333 -0.38754649326568097
Ni 5.484802106981185 2.69438560722807 0.4078204686034628 -0.2615256715874657 -2.6212594704253114 5.663583620478407
Ni 5.8163916757792595 2.0446136811970126 9.818547317611735 0.811953349892821 -0.9668857123990638 -0.3512944529121821
Ni 1.3814438219479677 3.932840821958311 5.389536678092209 -0.24526447253359696 -0.7353362754587143 1.5133389794377035
Ni 4.0501098510041125 7.783763117336561 6.507684205100131 -1.5202801866422269 -1.228654096124955 0.3789456389705474
Ni 6.800879973582394 5.383176371152507 7.594271434434243 0.1893550629604868 0.28289796661565475 0.40338474584951817
Ni 8.895633842528717 5.146940375540896 9.997950653708017 0.13131960818330932 0.5465432556492845 -0.41811896673589927
Ni 9.15835024077477 7.966908410819833 5.572932486947286 -0.0013151192669977351 -0.6978935572312238 0.47946265995070325
Ni 3.9529191650910835 8.093975374407322 13.366813641800617 -0.2812727723074059 0.34754449895144657 -0.41932815655265204
Ni 0.882070191131787 9.381336756722057 3.708058945846426 -1.5313971224909948 -1.9163493726669385 -1.7018237239780951
Ni 6.235114202229768 1.6468138274657282 5.245550648560816 0.7752202561378456 -0.42193988314388625 -0.2149233983478944
Ni 6.965440737816618 4.01461089498471 11.013759867829682 0.1252381778759198 0.18004252731030926 -1.4406304960293836
Ni 3.9263552573327063 8.564638087945289 2.090365210766191 -0.10140096624700602 -1.6195319677567142 0.7707771327648274
Ni 7.045290192992515 2.7107154981308796 7.579021543134323 -1.3937027211295931 -0.18444194192958557 0.5394814637064967
Ni 7.510840537276252 6.4608656656140075 5.523868587462026 -0.9011960835107382 -0.9010330755703126 0.10009201762759536
P 6.319853346329404 3.2170256212419126 3.4791992361823905 -0.08266662306229634 -1.0439321610611052 -0.2052946170088787
P 1.4949365637224945 6.2925657274969256 5.537393634035336 0.2818114184196953 -0.32112307153512437 -0.5727895909403232
P 1.8846364204321011 5.448477378069538 8.915843938190363 -0.769988832535577 -0.07270436964326188 1.3084572815965272
P 3.970742869877616 2.894361822357761 10.366818765500017 -2.275454322762475 -1.598995281255943 -2.2285136923468785
P 2.8529525592331932 0.5696905121775633 3.551768900220592 1.6233896509399075 0.3475887219258207 0.1620070099648371
P 5.210905300474969 1.0793501185930934 7.235669813712674 1.4988474706897477 -0.14771116216745528 1.1641327765131178
P 2.5274403077881527 3.737104811455088 2.079053977811864 0.1453182364552465 1.2340523843223907 -0.26098856813707305
P 4.542845752302186 6.513511007081361 2.988872921627192 0.09256562734356315 -0.1546168881483531 -0.2603609618554032
Ni 8.008206333779155 7.573673503863653 3.3596969089886874 0.5011175192163176 -0.022235414359432673 -0.07070996492105242
Ni 6.680391358091551 8.515036044328005 1.6586771220727352 0.04457907216195549 0.869689785372341 -0.6675601963550052
Ni 0.18785776597732748 5.848234963039738 7.3864188304480765 0.36459142713140436 -0.14427925366777086 -0.3668815087171617
Ni 4.02535522093099 0.5509027871269387 5.4908970531937165 -0.6028735548098972 0.3889176625815947 -0.768470853229154
Ni 8.29384952771887 1.378381967403691 3.053118980478513 -1.2133274930702136 -0.12498209600105571 -0.552110722434733
Ni 8.576811279345566 4.162544861208798 4.126221987966572 1.507157790327656 -0.9967470187348705 -0.18833690610861756
Ni 0.37818635578841525 1.5964416810388227 7.499959819627544 1.2008836108799061 0.5990433824305296 1.4065983461453389
Ni 4.742784854043461 3.3024420846801323 6.435453200731221 -0.7731708298079846 -0.14452993622599625 1.3653568229970485
Ni 2.0588466656543476 -0.04237421122337022 0.6536103782279282 -1.319633867038637 -0.20145595998907884 -0.28943011130721763
Ni 3.2358421091685594 1.6777478367100278 1.6581612459737602 0.5909292379638275 1.0681910336084701 -0.184946649480146
Ni 5.155550681653286 8.897916315916268 9.066226460215164 0.0299554087115097 0.1561181552842279 -0.6551541093811685
Ni 3.140729773006797 1.044584151994896 8.137613296506238 0.9887678571841357 -1.2513345684416062 -0.364536662634069
Ni 7.450299322423506 7.9326341966181415 8.909882600176127 0.5282326302655549 -0.7512411196144287 0.8602582076457959
Ni 8.176877405780392 7.132636552628338 -0.005737729849032656 -0.2364018799366445 -0.02067038386515795 1.340024514879847
Ni 7.576392059565087 0.4152051050634323 7.007610825403702 -1.2862576055710364 0.6464406407675706 -1.1379016107307305
Ni 4.961382711810616 3.117905039131279 12.09344957392678 0.011689263412470192 0.923547711733061 -2.716815804966082
Ni 2.3448609934782167 3.1997400605874047 8.386815782195507 1.0584290691257 1.084892405523551 -0.9857789497591409
Ni 2.135522926120722 8.801996763556469 11.65353159135219 -0.8473227305310504 0.12235262879800864 1.6240871912275645
Ni 6.001541092236967 5.822014354124204 11.831087608540093 0.33139488577477766 0.23544105868527196 1.1215895038342685
Ni 0.8524481401679743 5.056235254253472 0.6892049012225013 0.21722659255977425 -0.48431510294699814 1.935281690795067
Ni 7.6671621292822385 1.984313703368967 11.623615416785187 0.4428069564008826 -1.1982795975981557 0.8950334063434521
Ni 0.8138938244472671 7.766375494863911 9.784992175310594 -0.9767008987172727 -2.264933111516177 0.08996727048876763
Ni 3.1353947234220727 1.6631066049801222 12.703956462848973 -1.1667599297233198 0.5459272193318404 1.1784983012061703
Ni 0.4680545701670707 2.4829506334251006 0.8268844382273942 1.9325113271387813 -0.3109708135924709 -1.0974496733632713
P 8.94183073275888 6.498220291054184 11.714912496617837 0.2831836161768736 -0.25371748839695657 -1.165310855981619
P 8.627656621474769 5.717178310197586 2.2260823773586154 0.3869775081360884 -0.28907915572570214 0.4026591805374033
P 7.957583671980446 2.8212762822205835 9.450779617786253 1.2870518193375577 -0.023128358487347265 1.2110325263884498
P -0.10281150858855283 8.657022590058514 7.687565214563646 1.4468757056081467 -1.0050671085647918 1.7148818427136336
P 5.170516655531826 0.6368759513913899 0.6623060451336743 -0.04204987798219855 -1.7260573997144788 0.33471803661073973
P 9.211385272820486 8.916779195578433 1.2726932433782283 -1.3737766716296276 0.6173874321553561 0.8540093985226066
P 6.589120257630791 9.329099662527273 11.21168556824942 0.22230015042793974 0.8549792186350437 -2.22791719641346
P 6.075081271382234 5.532836109937915 9.58602080517225 -0.5077980165602867 0.8822267414970871 1.0279666388707847
