# total energy = -340866.0385892757 ev
CRYSTAL
PRIMVEC
9.34184458159411 0.00000000000000 0.00000000000000

0.00000000000000 9.34184458159411 0.00000000000000

0.00000000000000 0.00000000000000 13.67273383328295

PRIMCOORD
 96 1
Ni 6.985971567881088 1.492826777408046 13.141684822824157 -0.777906287610441 0.4825742089964914 -0.8806439703909995
Ni 6.311070000084816 0.17360977543197037 4.87412426909166 -0.007448228747929108 -0.5515139693909986 0.034297744840605444
Ni 4.743246893709112 4.695986501550743 5.995958369333213 1.5192496884951836 0.5978617034176026 -0.1739634109957649
Ni 8.403876751078792 1.4099646152327683 4.40478065129593 0.11261508979527056 -0.44699965432599154 0.5100194496916377
Ni 7.145651718733627 7.309563725219244 3.226956205056912 -0.24728201718425802 1.207363562177295 1.5318316389252522
Ni 2.189251955311628 8.857516727993277 10.23739126156127 0.7421463564020121 -0.9454365413863524 1.0139865225416085
Ni 7.131283961639424 4.286682919414598 12.388440677301356 -0.6259839155751156 -1.2846529800880777 1.7178540379680802
Ni 0.9462634716144754 8.257676882077316 4.501597661031234 0.7065921134464863 -0.11428707818105478 -1.3775245687078341
Ni 9.189647331354907 6.0538236235548695 0.5499628030670296 0.8066003131110238 -0.6542668216802088 -1.4243093902718567
Ni 3.5609243492640736 5.29351891183454 2.1322489533525157 0.16474857726571626 1.8720598067209435 2.0492643503618257
Ni 6.803151667794258 5.7573882086567965 7.587205217021012 -1.2817669167895345 0.8312759614808327 0.19165054386288283
Ni 6.870562418894235 4.8870272249424485 10.282456320223451 -0.09434508784148912 0.23328261758137242 -1.4916491531690956
Ni 2.755096828492997 3.977103529073388 5.0948029288663745 -0.43508027718058623 -0.6895564981204382 -0.12025229462555419
Ni 2.976825511608016 1.9369474146092718 10.691093828835006 -1.4961313573101653 -0.059548548987594214 -0.714215434319699
Ni 5.834719998790613 1.4803927821594218 7.050728300911844 1.4888031990798682 0.2112760314032942 0.3682382798553723
Ni 7.218676918477048 8.416254695259429 12.798212285855199 0.5075969562930742 3.70927345229698 -0.08017805231248773
Ni 5.18313567527726 1.3829293167733259 10.570705476641905 1.7674061378645947 -1.4452476830864205 -0.28702330163793793
Ni 8.382353140971482 3.0436477264941213 9.414661541238475 0.32246904404005755 -0.8713059808195253 -0.8450131085612672
Ni 0.3289394292241906 0.1814307677851995 2.6269285880631914 0.09413631426479271 0.3655280800130608 -0.2654766858154138
Ni 0.40877296535919494 -0.00020645476708834677 6.5679025328961185 -1.104983519846471 1.0138176010639122 -0.387804632023074
Ni 5.504000013973343 5.249126465988214 0.39514788491583047 -1.8546385259207026 -2.5461020112558668 -0.4753972316320781
Ni 0.7502855833175125 1.1978300065883258 9.63472457344979 -0.07588071048871448 1.1865386550121435 0.4185025753275631
Ni 5.2584029177401925 3.6678137359167824 2.726876049945613 0.339351421617693 1.4718894540436651 -0.47011669995942906
Ni 1.697628037990753 7.063854526850117 6.366571767606322 0.019721389688327325 -0.9092878593799373 1.0269839632425408
P 4.203671287724686 4.973168374595011 8.238136545592306 0.748712182544988 1.631743165110925 0.2577880589219044
P 8.013303567495232 2.04423850058256 7.2532893871439725 -0.9918634653903241 -0.9632154626363283 -0.046658580398803516
P 6.8037215203188 4.94042520904548 4.767504861749759 0.1697663421952818 0.16242172890475254 0.7380948120404579
P 0.8849800364300292 4.853153696188497 5.84360315888221 -0.3099269457089888 0.7527853241730971 0.8266788290284536
P 4.631723952102746 6.032029099952286 4.017076348208878 -0.9388581168378864 -0.10166656120356685 -0.11614804264919353
P 7.095588773175869 2.5689605735502226 10.93387996400857 -1.3977666067863217 -0.7656948331459137 1.8792236714592343
P 7.477819689473914 6.74193455970693 9.329617124149541 0.18008623606405114 1.2515011759264576 0.010081038385085865
P 6.259194736662119 9.116164381222918 1.8166823747657443 0.6486332775435152 -0.6732017109114987 0.7659226328860036
Ni 7.723229948813772 1.5801449994883525 1.799892277350003 -1.7653415420260823 -1.4947195645643032 0.9746458159604569
Ni 3.3051166168124806 0.38902243736923187 12.651626598669072 2.050219258075927 -1.3406912019295683 0.06120871029883651
Ni 6.394539382163295 6.573968192636864 12.284185690844073 -0.7933367632328983 -2.415676889862369 -1.902792717028426
Ni 4.174001589069817 6.916711131537513 7.195905237922543 0.280483186526575 0.08388995394643617 -0.030491226610321682
Ni 3.7158027919589918 3.1316479032349465 7.421751806165731 -0.4368286273302606 -2.3894914897162525 -0.3898070071650835
Ni 7.103426580849494 5.701673447076937 1.707847081869393 1.869050844691291 -1.3037673323200256 0.6550420092833363
Ni 7.622216582455117 3.5432495791585916 3.4129467272229177 1.3420405168686111 0.3242017104604481 -2.17716336289936
Ni 4.841887431522951 6.385094777207353 10.098900282777047 0.5610437632583049 -0.3274148180811071 0.635674403390002
Ni 9.280057704019205 0.6458652462096657 0.11510927577311765 1.19416968919484 -0.2018387972497943 -1.0290909822832148
Ni 0.05468435611335092 7.90523710841478 10.133055001055403 -1.9938766176201403 -0.33192813257042836 -0.5939770236512157
Ni 8.20832391671407 4.172983328001372 6.76220636262918 -0.2633370137645916 -0.3274628977102232 -2.4980447507373236
Ni 0.62418469311199 2.870328482431221 7.533170119111854 1.6083574391971334 -0.6663070406741943 0.12310416225205251
Ni 0.010566560500164208 4.688466316595715 11.06811946928592 -0.33499057354583595 -0.1929612922545064 1.2169900295234655
Ni 6.497075469202286 8.212630507104464 7.522027166795881 -2.1868317392270598 1.3256944714104202 0.9188572482359273
Ni 2.0098324866827233 4.7724027909074245 7.928955117833811 -0.7506528512111266 -0.24207964704771215 -0.35094401155129884
Ni 8.774822719021962 3.0022073035618178 13.563625118238148 1.4902468735049303 1.3478416969314209 0.5901069991728483
Ni 2.926697173137605 0.7148809262230272 4.034919271518323 2.016878477831952 -1.842810422937523 -0.38511011591004646
Ni 2.745203814993152 6.664051600737901 9.06018244288565 -0.8520239926614617 0.39049529148135975 0.6159522423707262
Ni 1.538022621895531 1.456178720788698 5.368202289005934 -0.9223084400093213 1.8655826836370324 1.0384276863031083
Ni 2.0943481553636407 0.8516903729676164 7.762640388900452 1.8479377168617592 0.25411395250442687 0.371562716242915
Ni 8.204932827100809 8.224419915071229 1.1613865363671334 -0.12663402978218188 -0.23859168849911166 1.0636892890833745
Ni 5.578435832261124 7.457510519173006 0.7040313078295247 0.29740387354131365 0.7642976956880709 -0.43140925608690217
Ni 1.8671918604984716 7.449467190916758 1.8017793299722584 -2.1595682755254164 -1.154665717562947 1.6687066297091522
Ni 8.1361301411458 0.32569967749449663 8.783254668016259 0.34677368222369315 0.9814908639067483 -1.685068616006943
P 3.9573081602290348 1.7005800609047763 0.8416871257007295 -1.4445066911553381 0.8279666946019418 -1.6864973780336698
P 1.2999924198407313 4.451940151531921 13.131362084469737 -0.7618903717981589 -0.403714361274795 -0.013411645420215614
P 4.131253307884465 1.179136975414399 8.426109407196147 0.625521117006084 1.947303912066924 -0.13245989243533962
P 9.245791817789339 6.82801031644684 2.626819288480615 0.2634228886101786 -0.5245914339685417 0.5267701867874153
P 8.737913090752006 7.063387434616886 12.227006128020799 0.9607469464911778 -0.45420851336960477 -0.11102974758602169
P 1.2763015017712267 3.3497612924647524 9.877551812739878 -0.06148304700614572 0.09073063101735342 -1.8026302511742118
P 0.2853316983296928 2.2982993080818663 1.9492945307025147 2.23304089079327 0.9349292140971253 0.5291363730267468
P 8.258825928971065 8.415273801569642 5.087911450057275 -1.5810235272688706 1.8020818348699095 0.11385307596742973
Ni 2.5826276922945777 0.17874311907518514 1.8388459012325815 0.5045941649110084 1.9480755001256258 -1.4038066423328146
Ni 8.578345042035442 7.650158039847028 7.257063492388483 0.9274881844380479 -1.6547311413656662 2.2002058465411203
Ni 2.5322004147948998 2.8097372779364242 2.4953561794375947 0.8246553708405217 -1.0872254245321018 -0.0024541179674473865
Ni 8.938603939682276 5.201922124897833 8.69714434645109 0.8396572435659926 1.2515453989008316 0.46586795198540415
Ni 5.966907100795142 6.86792801869881 5.675798405724842 -0.14032155457160347 0.4819162636975184 -2.0463263507794243
Ni 4.250800894057749 7.921762831626512 2.6325888117454914 0.26173624493637504 0.009207891751513174 1.1330262849163004
Ni 1.7782855248251777 7.835117222362059 13.09991463277519 -0.4359860768243072 0.6730965527922022 0.25453175676813583
Ni 1.1461509219035866 4.61261053791891 2.278848653305638 -1.2314959364491243 0.7491567262815743 -0.7732446204687135
Ni 4.229940554921628 8.712998391031434 9.325953252672072 1.5403101087099085 -1.558228383751226 0.006270663500060169
Ni 2.662341652817875 4.292484204951333 11.258662272357 0.37776190307509133 0.5930372854457657 0.9418292836510682
Ni 8.343547118234605 6.340272606506452 5.456651808475127 1.0474417168762606 -1.7269025213235936 -1.021869267723795
Ni 3.3298818470184175 4.122331846229742 0.34633954909653253 -0.7000964784198137 -1.2269628244654611 -1.787730965464876
Ni 6.279419830361046 3.572293374220929 8.156332814417532 0.11180030720345907 -0.6138825043258911 -0.3316383692441514
Ni 5.07890871435397 1.3596774654030592 2.624577245761104 0.17070299507693826 -0.9858625106118828 0.48026587257828907
Ni 6.7033340575526745 8.648025861388927 10.131974149627707 -0.6087994333760289 -1.0519702008742335 0.7592986998115826
Ni 8.434303139151496 0.6902380741821968 11.318918104628338 -0.35072289667942824 0.12975226369618945 -0.034429385322463285
Ni 4.682338066495716 2.6512902505796165 12.466347925066513 -0.1587586782308685 0.8427045150327487 0.8675537128659445
Ni 2.056233429131946 6.05535568607987 4.050068941010955 0.06763004044414803 0.3834008465284236 0.2222988648763591
Ni 1.9501474411203954 2.1777988537527904 13.062246446718467 -0.2464528364147433 2.117645667149701 1.6512035878283822
Ni 4.632508667054575 3.5901736649090332 9.836848461351613 -0.02209580345777485 0.61717531614455 1.0451079265367613
Ni 6.318207169408594 2.7801049466602143 5.028995238310847 -1.4201015228380962 -0.7808131768445908 1.1873197561525424
Ni 4.362940397411981 9.274676801492378 6.430711004704746 -0.9798474147660543 -0.5164189254600784 -0.08216654349742623
Ni 0.5383079176634359 3.3455481205210043 4.307184531715596 0.06842631109319829 -0.012862200674648817 -0.5037369591170356
Ni 1.495479861292801 6.474421495890555 11.227803356876324 0.4904898642991424 -0.17263209377885108 0.19824696613347792
P 1.2751431130328126 0.6415764053241335 11.850855818414962 -1.0701630697331763 -0.7483352588215435 -0.16932925465786322
P 3.4594532325168506 6.9333115895065625 0.6475336996667689 1.2351548733579503 -0.15464517028312721 -0.8256606721765843
P 1.3442540798617533 8.13667196813635 8.29796825811587 -0.5355227361690649 0.30006856485767036 -0.3238618106225261
P 6.6368014398511725 3.172219534613439 0.9060785926050986 -0.6978894434661659 1.9220394810731805 -0.32404641582950644
P 4.670567342218282 5.156119060507147 12.098031686396435 -0.18239020160687944 -1.3272265917842303 -1.3211364197260924
P 3.37767472432267 7.9268447951240715 5.08997599772816 -0.727683901119779 -0.2625070616641285 -0.8119764898212727
P 5.143031136131999 8.349787470470577 11.644014298957499 -0.887617316385039 0.8611105283437621 -0.23761724040098434
P 4.097725427383104 2.5301171834346867 4.278075343740606 0.6766207638953767 -0.04563399578903109 0.520161423221646
