# total energy = -340866.9115296537 ev
CRYSTAL
PRIMVEC
9.26079544740370 0.00000000000000 0.00000000000000
0.00000000000000 9.26079544740370 0.00000000000000
0.00000000000000 0.00000000000000 13.55411023282274
PRIMCOORD
 96 1
Ni 0.8991417338958818 2.9392375334998886 1.2648162774913152 0.3568814600816564 -0.47259575762754097 -0.3667866350105103
Ni 7.658798148281562 4.196223808519209 11.62808431448648 1.4510167243597138 -2.2097096722664977 -0.2905122886278029
Ni 3.520509875498369 6.466804135058175 3.1088249223445517 -0.1106232561762224 0.19004180461486625 1.1634702032284543
Ni 1.338583142885374 3.375874773656123 11.779050096032872 -0.417332723389178 -0.7202544414249273 -0.2689759572179239
Ni 7.762482013067437 7.6158280578379705 1.3931866444529404 -0.6739352466434135 -0.871297496179093 -0.5976840401891578
Ni 1.450907329736738 3.328672499735651 7.46088661684601 -0.27060526529123075 -2.669777986850989 0.39464170954956557
Ni 2.681278078908023 7.571867062291476 11.294450270657585 0.28262594390119067 -0.06483473708719803 0.0450225874572773
Ni 3.0449587732636925 3.7285165999495593 2.0796338392893245 1.2289870539843415 2.3302666426166643 0.3717493783324243
Ni 9.236772851073587 4.752686479763727 13.11316768339844 1.7574127740973087 0.5496026113008986 0.24725116394632254
Ni 2.8007330781821382 4.898951481588316 13.275288092948994 0.5359060876504126 0.15754768864190288 -0.2233712720049314
Ni 7.272039551903171 6.0960574538472345 10.34295170414707 -0.1833628499327939 -0.2509538096088904 -0.7441816416644861
Ni 3.0966895761123787 5.688573197466093 9.810898637297212 -0.7136986425842805 0.15322360734525226 -0.6918632918767439
Ni 1.0200303042908307 6.000726826470868 3.8978094955019578 3.7715255162586665 -1.0001686428219096 -0.9272369876591902
Ni 2.6609691546962133 0.7085165962450316 10.49485282602424 -2.0468737386424616 1.769773866765823 1.102133451992186
Ni 4.617460346001371 1.6370678379473174 8.224782769309291 0.1936547187771052 0.2648225971711826 0.4046816102840708
Ni 6.976101575563638 5.582805653725519 0.017476972992488588 0.746450897314637 1.7350706589566829 0.32141489174393034
Ni 0.9110529688804827 0.8176059872791657 3.8408009653809 0.34166155780810836 0.38018439647365493 -1.319426121903205
Ni 6.22474546608951 1.779804476741948 4.909176325738914 -0.390447726072876 -1.1753867521603822 2.022116329192124
Ni 8.22091916548751 3.1642748606074944 7.187297717934823 0.05853887677615724 0.3958858663693117 0.7437147293303966
Ni 7.764287868161511 6.1804881250916806 7.712519096051872 -0.811213643513319 0.28513379792470894 -1.1367901228341066
Ni 4.689824200899265 6.8469505235536525 12.653425684912957 -0.5845125358042063 1.0828074979700641 1.1642582463473885
Ni 3.0770103859846563 1.237612691138287 4.978736011803549 0.269534143714239 0.7506582505277654 -0.731022992795341
Ni 8.235356745444744 7.8891974758992625 9.074069937495253 0.12391920195418013 1.6941924326850821 0.5528514572554994
Ni 6.766085258520582 5.576063794707644 2.7522166974009026 0.30398075542788294 1.1139458712460815 -0.9796209005775451
P 2.9496281458873264 4.237388043868728 4.521569440506075 -0.3513721002276529 0.866356864344366 -0.7892744202380665
P 0.6635304306528252 9.254368362246609 9.362515004313684 1.0028011953487503 0.3139376095302787 0.14563859590914272
P 6.782393519139367 3.7703568733599364 5.538602025340744 1.0504645628629845 -0.47020745990102253 -1.3278649966991778
P 7.410127271429982 4.499524117165349 8.837103779891873 -0.18174176938960312 -2.0128534158329594 1.0780974940889045
P 4.417130820898831 5.862426108650911 1.218366906233142 -0.4733465197506364 -0.21757651970002528 -0.8272187606923236
P 6.222893307018665 7.602659206844266 3.597084614043828 1.5436381446418772 -0.9920724960773366 0.7066057402932412
P 7.8032758166027865 7.677866125915907 12.62795757160931 0.12220710435907986 -0.005274875245694141 1.0763715125367332
P 4.4502196426994685 3.342498867199505 12.815790579460861 2.1455056267847628 -0.7562771393764395 2.436464001811049
Ni 5.354147355634412 7.776632508368689 1.7848997663458412 -1.43179387157436 -0.9557386946433089 -1.2192099199929196
Ni 5.233682929666687 0.2821866213180474 3.45978128388352 -1.9237821747958994 -0.3187183187483737 0.4219864201111055
Ni 8.522635878128078 2.013222823645125 9.547596629865497 -0.3994463300270605 0.5245068446745353 0.6518479278260709
Ni 1.104896232916925 3.472344478861058 3.6679454418557316 1.1741857898737453 -0.5811415624494444 -0.4940809240845104
Ni 3.6073020495581414 3.937625359047902 11.14608677260573 -0.4875006997638314 -1.0071625576412397 -2.7740161654364743
Ni 8.619920533324184 2.3728380288402904 4.895364775547626 0.46015907452608495 -0.7026110173115512 0.764921702425315
Ni 6.766863165330337 1.222378682780591 1.9434158743445311 -0.4151822527050785 -0.051961223558639545 -0.7400287958383771
Ni 1.7270272040182342 8.113225376313258 4.88214962057715 1.0653103696265653 0.6716251104529981 -1.1666416589779005
Ni 2.9257908586455583 7.878316041358051 0.6929742034020401 1.4847588538071654 -1.1357241434634375 1.127394797662136
Ni 4.47634434639373 0.7369296424713214 1.131318208142057 -0.8551170297644886 -0.49035256739032973 -1.3295338997611683
Ni 0.8429138888231849 7.9307877078350755 7.310856175630394 0.6573837700426356 -1.4169791751590306 -0.03428591776606354
Ni 2.242640506955277 6.164531774696355 5.911557406243667 1.1737538445426494 -0.536746581273837 0.5364876711854953
Ni 7.115393198486498 3.14228973243657 3.301022543046549 -0.45289287988197485 0.28645431650834535 -1.3842323197453128
Ni 8.540898166566604 0.443274452186605 0.3423040004395178 -0.6115258311682565 0.5098870378788315 -0.4251784446858419
Ni 8.068671689864093 3.750112774715606 1.1514187644583969 -2.10927775480098 -0.2845874385029357 1.3335211665436904
Ni 5.622339989092693 4.04096657440567 1.2373422759139436 -1.2498371579604732 -0.846220241495491 0.18152682516531962
Ni 2.2342872695457685 0.706885770183153 7.819108998419901 -1.7163535421631537 2.437401168913338 1.2666696561367798
Ni 2.708301079751644 1.5630926046577887 2.4053665725219964 -0.9454321705109783 -1.197940211980866 0.5352807953615878
Ni 5.225505647368908 4.3442483614611005 3.985410136996154 -2.483416716411504 -0.5490251415308738 -0.008566144402456214
Ni 6.179376829649174 3.031456533637236 10.09286485168583 0.10695454907538356 1.003967961963342 -1.3141710441518528
Ni 7.424351853094067 1.0269573792157891 11.736666213935203 0.5531041966962539 1.0204980984078813 -0.38575520569321303
Ni 9.07147691479607 0.7890493987248854 7.601212670609937 -0.3497039684966107 1.3148498153864323 -0.2696462438120711
Ni 0.578745997025848 6.960135964372959 13.113004693400205 -0.4441092201520739 2.59457630470717 1.2982209485804994
Ni 1.5832811385299936 0.16868446129762632 -0.022172196237079365 -1.3285041729450735 1.4574079725980384 -0.4855458900303057
P 8.917914406232354 5.695796617842387 2.1239828621611605 -0.009694601579944595 0.04897385879554147 -0.709380731935217
P 8.630292624120914 2.496636341135536 12.877895325265348 0.41032878126751915 0.2521411450487722 0.036188534105415095
P 2.771746788723422 8.6833384599099 2.857477675635601 -0.2731876813064263 -0.3889832257122075 0.33619050739120815
P 1.182872129799478 1.487580079339459 5.9493460816865715 -0.24301809970158145 0.3991632515690029 0.3893804611506262
P 3.8710031972696255 3.7856279248990488 8.746886963710109 0.7626609314155962 -0.41359253962045545 -0.07492708832619353
P 7.144999961233947 0.46990849962534875 6.839214055114734 -0.5769303525815741 0.1896995907840991 -0.42550728878017047
P 1.3450101348612045 2.7383523606760956 9.617332271041862 0.4833578812400514 -0.3001546968135734 0.05958223043900707
P 3.3631967448161926 -0.08329529773401831 12.435692347101227 1.92828494776226 1.4399967191001266 0.5197387338619307
Ni 4.885449241961861 1.6638130149303119 11.348761131091956 -1.3968422951998396 -1.6012424254189068 1.0570586711407342
Ni 6.252953848738471 2.069306200310296 13.442112060459957 -0.27668798115020093 1.19572109284236 -0.5414211039313708
Ni 6.121654292206305 8.35580264982176 5.570373035962475 -0.6167909362219377 0.17929947849669764 0.5090457729244587
Ni 0.2506425001824949 4.621285054482665 10.001211686144627 -0.5809734123026963 0.16810232422929758 -0.5009126022943631
Ni 9.39442863118387 8.829760895255511 11.328078070747837 -0.0016071965861198126 -0.4683472667638321 1.1776189839250106
Ni 8.963144130742377 9.005141837673776 5.503443415778438 -1.686568340480921 0.006718292560440042 0.5500206726749237
Ni 7.885474636166865 9.07599618292893 3.363086541351477 -0.38049807105933175 2.573891522664309 -0.08774352336457146
Ni 3.4973023223406874 8.892678738892098 6.513061807852516 2.2954994143388077 -2.408494256071 -0.4585565059256554
Ni 6.195796219812211 8.174476276786084 8.157893896624813 -1.0762334442969723 0.9689824470270926 0.010255616289737177
Ni 5.808500497303274 3.6453824400547044 7.350339576623122 -0.19405529664963356 -0.017623883729350295 1.4304221880378138
Ni 6.562727453337211 5.858036491653009 5.3297470120351065 -0.5676404426392159 1.3576625396765845 0.5823103859465649
Ni 1.7419093021524699 5.995096262895501 1.466649755759381 -1.0393154882247004 -0.6833819938786102 0.8819776016007586
Ni 5.978834306253487 8.885779446353203 13.421320648810191 1.1785566652479316 -0.1905393130765751 -1.60196079164217
Ni 0.8715751243649679 5.415953903828492 7.662599704774471 -0.2891084663017408 1.0904267050782188 0.7809422462232873
Ni 2.630528920366884 2.339100951364858 13.481676956451802 1.3538832751398102 -0.5040190091338288 -0.4403397258073126
Ni 0.9917478352790353 7.019858833612339 9.633122853200348 0.7346438773773799 -0.6165667360262735 0.4045517695744259
Ni 3.7521594104888893 8.833798602029951 9.051204107686141 2.057271794047334 -2.6881346349813056 -0.4934312063156535
Ni 6.669365511841083 8.264028167861417 10.969151868727025 -1.3560933954172516 -0.7034759364150078 -1.0630606543604402
Ni 5.701343834259566 5.019425168351397 11.827316435339545 -2.2900458474234044 -0.8129439959408644 -0.9499979355047898
Ni 8.515468022523908 4.746296530969314 4.286825873787709 -1.5070284638386433 -0.9381407790558874 1.2055419355875236
Ni 4.9913556976327484 5.853443137157315 8.007727321717491 -0.44394955464575797 0.8414624150955314 0.2277953692145561
Ni 0.5745721565597 8.34227262780924 1.912145872751464 1.9834142846362355 -0.08248870272353535 0.87770982746334
Ni 8.477378371231993 7.136359639168458 4.022344967107399 -1.383419079815398 -0.31880007982890257 0.6688395772880611
Ni 3.4118159204258602 4.1829345671858995 6.617048500646473 1.1502935566371801 -0.3028206736815107 0.12089455619524342
P 6.303628920916776 0.8453957819781164 9.834591456131456 -0.3988948283989646 0.34038371953694924 -1.2013623502885373
P 2.8541678673760016 6.999225781563132 8.086870078814677 -0.5434000820346125 0.4416880123050909 -0.7972111585866399
P 4.295453230739703 6.954727659886093 5.520412897185515 0.36654495131334935 0.008580799690475545 0.022470927409006462
P 8.776103846973145 1.8418888487966554 2.482665505264156 0.011155502396187239 -0.2569352240033059 0.38274058723660537
P 4.9203161364705075 6.680385858312607 10.427380523232447 1.0996726491565192 0.2666079712063796 0.04799761092520121
P 4.793230241824513 2.268617037923871 2.5569694967887595 0.9478109551557999 1.454020029962412 0.8306743233410919
P 1.48030109419104 5.811491734202687 11.679048323479837 0.0947549216853981 -1.9363276155610782 -2.0670797812766915
P 9.056039168940583 6.191091735772265 5.945144458834361 0.7244677081753265 0.5190147112117126 -0.5386736230932206
