# total energy = -340873.5987513208 ev
CRYSTAL
PRIMVEC
9.26523999577392 0.00000000000000 0.00000000000000

0.00000000000000 9.26523999577392 0.00000000000000

0.00000000000000 0.00000000000000 13.56061527862793

PRIMCOORD
 96 1
Ni -0.013024147746541054 8.595326006882798 9.912090785115081 0.11543841817667862 0.5464627801203362 -0.7417313803517807
Ni 4.905666577051357 5.735192771755467 3.1808726778362213 -0.3835705393370684 -0.33486304682903617 -0.4101022670790098
Ni 4.917590940820155 5.659319722103034 6.058597823987498 -0.3043985596915919 -0.4331655766563766 -0.44333866053463644
Ni 1.2532719421523955 1.5743403008782169 10.147353757001095 -1.055446332348292 -0.0177174718844211 0.6027018051187233
Ni 2.866155641071169 5.330394439930484 9.890651946479013 -0.508756266708498 -0.8631720388584811 -0.7709895058859496
Ni 7.990398492924156 5.604450971334723 5.895586119471692 -1.443137064501321 1.5627519826531924 0.2421477812814862
Ni 6.088050168624835 4.015990444828186 11.260789139233562 0.6080409579434497 0.6102559633168975 0.9356835757646467
Ni 1.6523814166704311 3.409710205842157 8.829533667942655 -0.5460987119126982 1.1933747040973706 -0.6467748841785378
Ni 3.7473633440133143 3.9097274082591604 12.459900194947043 0.04955852765441788 0.36305365033063924 -0.32359878676912657
Ni 6.317772527042519 5.31092817087202 0.19565221820741138 -0.20509689917577578 -1.073843089687925 -0.1107672379532544
Ni 8.610039207865588 4.994853776459626 12.215442398970776 -0.42012237031917327 0.10921994807079255 0.1823665474577956
Ni 6.800324752222394 8.144775920364483 9.388922527725978 0.8352550007332389 -0.5859528677951586 0.927316948967506
Ni 3.2887988249697373 3.954988105237074 3.6965018095076325 1.8358633021957287 0.007971448241250786 0.22997592180564266
Ni 5.7389637244003 3.5191141587418917 6.845452956269543 1.2963957224463027 -1.1933947587020286 -0.19454997689786493
Ni 8.616052348569513 3.7048822190094794 1.2371244820309815 0.7317801826763397 0.7040274380431036 -1.6075963926613925
Ni 4.716720539493406 8.045276508932382 8.487927978424358 -1.3511239672271182 -0.5123336996471112 -0.2774073758147287
Ni 5.167316952211292 2.3890421117205745 2.876830123975623 0.7021975839232165 -0.5192533095850799 0.7006562075780257
Ni 0.052427360051079584 1.4464614595907732 5.669747749625786 -0.09125616450352025 -0.7707537357260597 -1.3486204840789742
Ni 1.1803359735525727 7.427544433413148 5.80239726294474 0.17193481060151036 0.9745887374702762 -0.4247853230124814
Ni 2.0888205428003426 9.308508583991891 1.9747506150801213 0.14607336945371618 -0.34563674040577247 -0.8939928808940798
Ni 6.684435131383143 4.061112163207396 2.240417471742599 -1.665971490166176 0.14793459103217105 -0.7656179571613911
Ni 5.545616697883391 7.484006805446599 0.3548938966023755 -1.084636323648687 0.7468481327530556 -0.4500155583341798
Ni 3.6201330695198224 6.806560258684244 11.508012609324036 1.6258653661739098 1.5562419494488167 0.1044019578568589
Ni 5.450434888251026 2.467842977185703 0.07072342930845642 -0.4826821953292655 0.23754833483626184 0.23495717707031794
P 3.2052448914289338 2.8506270989759837 10.354912735021468 -0.7945636936614638 0.5488976148140741 0.371836795839908
P 0.9030606978023511 2.0620439994500517 0.866464853191632 0.36116877460310054 -0.7498987466539214 0.4777248513239902
P 1.2563387365637957 9.1202852351472 4.3106751063760536 -0.19340789287362173 -0.3806410243950993 -0.11859727552063445
P 2.542826563806431 5.593295622478753 5.127268879208766 0.07531095402817352 -0.09988864336753765 -0.13693078372249967
P 8.892582699030681 3.4652645843640753 10.078208198049925 -0.5848331523684186 0.6278410233885123 0.9779836220844381
P 6.266387506481718 6.427111623262857 11.926764392458894 -0.16509567619248988 0.4697402904566168 -0.7928999328057957
P 2.294898008958531 5.594305533629335 12.352201972715402 -1.8815047541839274 -0.5046479009670793 0.19273657783821002
P 4.907417707395027 0.48453035390142835 7.144695189330908 0.7906448182230319 0.31413249914990415 -0.14625231823374168
Ni 7.0505788822886055 1.4472582702233425 6.256542262549533 0.10073736452107812 0.22940513690383718 1.7537687495868184
Ni 3.2670347764127015 2.2891998864116703 1.4545926341389448 -0.7210224299392034 0.6757005660739523 -0.12397833732688969
Ni 3.9325569594062593 1.114830727363453 9.051113733524272 -0.9269443961194358 -0.18536728195733237 -0.4435811155627457
Ni 2.8547316002577063 8.368151589441354 13.442705886161718 0.1952817128575669 -0.01419377500187878 -0.43161802966359863
Ni 8.08003968908819 7.85313396360424 11.911915918973365 -1.2741207130981862 -1.2061438308375807 0.7147965036341495
Ni 6.210147500206195 4.110542218146427 4.4747995662054825 -0.10598215785978524 -0.9096010197449819 1.1981528422123042
Ni 4.740282044593679 0.40887596391095643 1.3709238116232125 -0.5814017580893664 -0.35833747580189257 -0.26203500712371647
Ni 0.4184043366380979 7.787313699258058 2.5647193991982653 -0.1822192232466539 -0.6129682200417379 0.5601773014929513
Ni 8.199811445451239 8.387126800784397 5.186881432812839 -0.37926188465938554 -0.1458093171590521 -0.22344506266566033
Ni 5.386504732847217 0.7037070162494584 4.89352448014459 -0.11221759724653577 -1.5000666878088296 -0.9837770888377637
Ni 6.642926856570235 6.5283251040789745 7.746365971459923 -0.8279404693496968 -0.6746767527951284 -0.5034263698551523
Ni 3.0427325833444705 0.9089700678192423 5.778191823670472 -1.0079223186253996 -0.37664115920708685 4.150300948199936
Ni 0.5615624850670519 1.5794176523508674 3.0444670362562958 -0.3155710313686436 -2.4793924257434585 0.1819104337569835
Ni 7.594522587135965 1.7623876101645493 1.985124904211374 -0.9487812894888691 -0.6873782595221968 -0.3379452852987857
Ni 8.850249817865464 0.13018866559790304 0.5964544520576608 0.755014727724248 0.24767925262267665 -0.4579088450393275
Ni 8.57401595508153 2.411306483232944 8.27445685081512 0.4333992899337375 -0.4792119773924779 -1.3914522345325198
Ni 1.333481124084391 3.7084308058963864 11.413345947030868 0.7688171808249791 0.6926513349956781 -0.545410427596422
Ni 8.57530382342952 3.409145026207428 3.656199868931475 -1.8214900641931921 0.722139317152466 1.1380772170766464
Ni 6.33040104904475 1.671986664327599 8.897675801411184 -0.23267403746309603 -0.23312320918537272 -0.5866419234423832
Ni 2.3987520831500224 1.8924530480716013 12.82679628333349 0.3737237284499757 -1.3291649464575237 -0.9832027043915325
Ni 7.811699810710641 7.203038405066818 0.9804365693687691 -0.4017598086515855 -0.7503746578490754 0.6243031854385829
Ni 1.4532806761671795 4.295652446380149 0.2870621486709522 1.0173484970353062 0.1415032335845305 -1.4845338822805532
Ni 5.52626161170389 7.94459114679134 2.985627203661017 0.6895852944758447 0.2769031824848005 0.5017932051271036
Ni 0.946861192969882 6.905633469080319 11.142812059841777 2.2231226032382936 -0.7544513990216104 0.6417002978691078
P 4.308864678496937 0.5110734132058964 12.570622591486483 -0.29288413129408913 0.39210608761190535 1.1511487055486238
P 6.2412972367957025 7.06241985889818 4.9794716251550755 0.8425350793344198 -0.18350914570267104 -0.0778036385430402
P 0.45942433330755883 -0.04415720690420432 11.883980294109884 1.0665704672859115 1.0608657035916504 0.903165034311651
P 4.775971748740849 4.87606413552742 8.161008620693101 0.5188761287513193 1.2340043046932747 0.659438081468503
P 9.65456529476468 5.617570551052373 1.6448756458164273 -1.9300358690150954 0.9601630489632496 0.6737210737500784
P 8.459970116985083 3.6011856538965197 5.9166460097952935 -1.126943826167646 -1.7273866600488637 -0.18126045887781042
P 2.3963894469720555 8.260109626808918 8.488334722456566 0.8308509581282723 -0.3459231612979397 0.5018685384497292
P 6.811248470080524 8.998725287480829 1.6867239549341637 0.9491543565575717 0.2763527092979692 -0.918696811398663
Ni 1.4119391756727169 3.5530527325453916 2.4490197157772426 -0.028065904998280693 1.4414082547356724 -0.43221324004543626
Ni 9.028420381403903 2.147728938170982 12.488526080184087 -0.553154333207899 -0.37336454533834407 -0.10985038256593986
Ni 8.410345492007867 6.16522035186517 10.04558158221819 -1.7550686993451645 -0.6207236956174407 -0.9058752341539624
Ni 6.500288488100435 0.2586790127196441 13.070629602139583 -0.04989071418285602 0.3529741546074502 0.6714109375596631
Ni 3.6532007107714444 5.997741875187019 0.5838194443874908 0.25499147001337374 -2.437149457913848 -1.4983476482351938
Ni 5.071264210027048 8.597549664462063 10.969344532083479 0.25591321049669474 -0.2169594549413167 -0.10826581168763937
Ni 7.198591089908293 0.6270779230200763 10.969805014507184 0.9880901143908208 0.9778344981010837 -1.045750702327083
Ni 4.3304526874956135 7.902054430348024 5.889903747832683 1.468769934578077 0.5789358130473771 2.512365281125054
Ni 0.9216365773051186 0.3165293176921511 7.848992401362863 -0.1556098481892417 1.056764022718451 -0.6260924161285218
Ni 2.7785250019683843 6.391607223913961 7.218396466747594 0.2921626797470323 -0.2505054092175621 1.2377092643486876
Ni 7.015157870098931 4.352689263288243 9.01677860745247 0.14764174238210057 -0.8008688099438852 -0.16307993131404172
Ni 3.1871406126377684 1.1570060994501394 3.6911048072579633 -0.12261256732761464 1.2292886443851605 -2.6896415585441353
Ni 1.3803725032870973 3.1993892598035414 4.642151109096816 0.5457315583812665 -0.06305064860358173 2.802726131776657
Ni 2.2118166026533213 5.880212306883062 2.6189747910842973 0.696462224101336 0.14234861230396129 1.2884769818198583
Ni 5.310251808358328 5.947227787178098 9.907697208348056 0.4890230499456288 0.9807853531992916 0.46664031137505435
Ni 3.3697955522943883 3.753052201320262 7.046448438335125 -1.3027178080095887 -0.626280877990244 -1.1049107576270067
Ni 0.5963358569867667 7.0701933951856875 -0.019791478979431138 1.227332549100054 -0.31281120923531935 -0.030760935331940572
Ni 0.9082473791059819 4.670968784800072 6.657475136282564 0.8192455126788601 0.4808582547466492 0.9781947096539798
Ni 3.3812381235876785 8.05398583445116 4.032208320772943 -2.4286871860791077 -0.35806031088110596 -1.5788154638739584
Ni 5.014051353560596 1.9712353830569032 11.039737192327019 0.16125419095921262 -0.7118978419301158 0.42583536154355056
Ni 8.989265477529049 7.343082506360814 7.796580792219636 -0.36478837363355887 -0.31836736316685815 -0.6084279089692232
Ni 2.4545751536294347 9.008388932710709 10.60421161885259 0.8619654201448896 -1.6941857478168627 0.6654732319189893
Ni 7.520558176905733 5.821100076234323 3.4353647286389113 0.08191457538762022 1.55392127173544 -0.4689476193519924
Ni 0.44169159063692864 5.724713785413191 4.347804628805795 0.8300392608602545 -0.6202652679237834 -0.9600028692363014
P 8.006751641371652 0.2022259059261073 8.342382177669672 -0.11146992044723382 1.0158878533293794 -1.03281239699886
P 0.8001766942298137 5.651712960133972 8.750935711231634 1.1330489106241195 -0.03370330578971615 0.014034880826511312
P 7.249559174672981 3.4365608711117566 13.082291759618824 0.5199724471392915 -0.49786173128318134 -0.548487523859849
P 7.340330730106475 1.4396051820547127 4.0593026618522705 0.24971042412009256 -0.1293210896960418 0.6993212908166859
P 3.520188926571869 7.455145583115749 1.9493518129049823 0.6342119599118625 3.031968774960701 0.2120239653129123
P 4.3893425523864265 2.5458099710586084 5.030933547207159 0.06647458668346616 2.0468791379591003 0.5367710067538691
P 4.538170101118509 4.122781600072287 1.506231522273377 0.050216987174023196 0.18901053513687446 0.017625169280930934
P 1.4909809373755993 2.268575462364007 6.9552534614375805 1.3382221715637856 0.6950298625301836 0.39014896388553455
