# total energy = -340866.1709223171 ev
CRYSTAL
PRIMVEC
9.22213915938551 0.00000000000000 0.00000000000000

0.00000000000000 9.22213915938551 0.00000000000000

0.00000000000000 0.00000000000000 13.49753284787169

PRIMCOORD
 96 1
Ni 3.0025808908766134 7.288127309472565 7.126791521665572 0.7008819504355865 0.22479592026659995 -0.7261474098705946
Ni 1.6314332704298629 4.548100714763014 3.675647636243587 -2.7057536336146497 -2.496202555322262 0.26457654259864755
Ni 1.5794204067002442 1.8206254511768705 9.2214869539278 -0.3149187424966254 0.6073405894423153 0.1796452918718906
Ni 8.322574636520669 7.307272469951765 10.760691457054971 0.35535062525942673 -0.12498852375895894 -0.8774547740297405
Ni 0.29479397175436367 1.3401059007102445 2.874137706095229 0.07561228731867622 1.4284997742041203 -0.04958115336223719
Ni 5.902132045301578 7.621304745788815 3.2173663516630606 0.3144106925119553 -1.6888509658675108 -2.284878701400168
Ni 2.81726200849245 3.434306104110365 5.652820740679858 0.9453131284346108 0.8636983436755964 -0.05889343190209857
Ni 3.7027349027944085 2.9479304954046777 2.910972773525875 -2.5895513406887534 0.019408229323282705 0.6596339995293931
Ni 4.544596301958537 3.9954455933579 1.0478351061751048 0.654131581653925 -0.9722719164116416 -1.5428549866189494
Ni 2.774415950888229 4.680788850107296 12.681822545250371 -0.2573363160964665 -1.06641183022086 1.3035472458894197
Ni 0.12455605321010159 6.145744068046543 6.436379777344225 1.3901137182267544 -0.9761303709257835 0.775411289102729
Ni 4.542023325188933 0.6897357615356409 2.683187785662607 1.1111945337531894 -0.7190987305539293 -1.1124248066158648
Ni 8.04842811168195 4.369504771680073 10.709442186431172 1.0987557937692045 0.01165301085789606 1.9559531031014896
Ni 6.0490868296156695 7.751318460834944 7.186275240166 -0.6424171214304742 -0.09091035112832731 -1.8567236905845055
Ni 0.39918120706079935 0.9544821601332947 0.5778168053412654 -0.43966403989652675 0.2130004702935687 -1.6294047467857358
Ni 9.070065887715792 3.9279579804548237 5.453677871995925 1.961220522148016 -0.7648875067532699 1.1614873684704707
Ni 1.3315016450613555 8.25891421128564 5.694811906002565 1.3869738870461918 -0.9091428491616407 -2.1157057698145114
Ni 2.9057853203613515 6.583030231072664 0.4149058762000498 0.2526877615808616 0.4325243435279519 2.8917485218536516
Ni 2.302565211043206 2.311049578885626 13.047430555430376 1.2093430545011687 -1.2245053640639039 -0.7554186480308861
Ni 3.100437007372178 1.1576827699592547 6.846461552654742 2.1147428916806095 -0.3815475953697687 -0.12146559820736501
Ni 2.9621233672628127 8.191933816025317 3.1411997837855266 -0.354155576510061 -0.9015218422812732 0.29814820790650587
Ni 0.24626707655130473 5.201129596599541 12.671713236523349 -0.04981152420548841 -1.1174274020367787 -0.35743604703354576
Ni 8.564111677999824 8.696181930033843 3.6401221125451406 0.41549772706296834 -2.4787771607569633 -0.26969175233802584
Ni 7.915490978585771 1.9359482988610688 10.228389596332706 3.078404183605105 -0.5547923830319542 -2.701426724104522
P 6.0581798586293925 7.738259912068783 11.668427517018221 1.5009719732319184 0.958962086676613 -0.4422271726380126
P 6.827675133381054 8.485317722732827 4.783673798977286 -1.370536053205143 0.7631890360049244 2.35045700152161
P 0.8300902609966659 8.669834279027544 10.828800642123895 -0.39103008093890723 -0.13530019009761216 0.4826749962404139
P 0.971580005763563 6.4043420666001305 8.420300720856908 -1.7405262827546153 2.7003676867123882 1.542098568068899
P 4.514458351840027 7.814619222650564 1.5895776705498545 -2.788556010923862 -0.43140077144646993 0.75354688492947
P 7.921826588050709 0.2910442500535724 1.540743678119456 -1.4295878650619767 -0.21568958708995759 0.1541206652382249
P 5.03831273327571 0.22273125571365238 7.766345014054986 -2.3478650724247174 0.8236978920232588 -0.8908574205888916
P 5.607798258281276 4.458710521831952 12.270579702644898 0.811989602447395 -0.5472842475803672 1.5612592001577497
Ni 6.65692723055235 1.0501618518344988 3.510964211994422 2.2787090822543465 -1.2829100292550422 -0.22785347614600113
Ni 5.109461535345568 3.7943937419094222 7.039813840286224 0.07788437118230458 -0.688894181946091 -1.402201502629224
Ni 2.0823128662817734 8.803730514575475 13.216568272796811 -1.8803577850636777 -0.7828538614237034 1.2536966409158794
Ni 4.532220191475354 3.649117386885898 9.553729265353592 2.162576980444753 1.1058121863953536 -0.2550603755780962
Ni 1.1159894797249272 2.4729073397577066 6.919969377870353 0.09601836177885398 0.854032281340742 0.0017370372957647502
Ni 4.536812816677012 8.04025729656414 5.0097573022025905 -0.34452293851630345 -0.33565083283765423 1.7885012679719972
Ni 1.9653669221407644 4.813781316037231 7.883099137705646 0.736765551706073 -2.5545154321305423 -2.3154038665722187
Ni 2.6993477397607295 5.886795628212509 5.01746516594465 2.0765908060909206 1.0336786016538972 2.5531434914836804
Ni 6.941218108246136 5.590866411152273 5.85313758765329 -0.49956560134816547 -0.4679454033397231 0.541213615906255
Ni 8.694521945021194 4.0512395340607705 8.167451803730456 0.9457044503357582 0.5453348371634802 0.6675907924826244
Ni 3.0282092150440976 6.496037794270981 9.25726885308931 -0.39203126850991193 -0.41224810977741905 1.552929340135816
Ni 4.096096017958087 7.934184254255973 12.333100271504573 -0.04782997499908537 0.019947389656204354 -0.21196174461640915
Ni 4.95313705784898 7.7502025820208855 9.809641777042275 -0.32321774928062397 2.2681055957068876 -1.0719366166938313
Ni 5.418670632506982 6.081161428915601 0.9090963254597231 1.093334365643317 0.46595125572782975 -0.27147764059385504
Ni 8.54651583686576 1.4151003347260702 7.907326618965234 0.7834261889874056 -0.21605211263569887 0.23569868322203277
Ni 6.797657071069014 0.11705292095293536 8.779766786490118 0.9962163430423812 -0.5317095330705618 2.3321322350704934
Ni 2.912960144471572 3.0435271878552492 10.89944683762048 -1.192176055803579 -1.246643076503208 -0.17085828970787992
Ni 4.217763697246182 1.1179722396011451 9.623538090632685 0.942039085669029 0.34048322122929103 -0.4700272255694163
Ni 2.1896585637663053 8.766030410510462 9.08674135938173 0.8059986749712829 -0.37165193352261156 -0.17764574494335858
Ni 3.2815321501130494 5.481408843846095 2.767844254665937 3.121002992112238 2.9607859841682878 -0.9306519268780101
Ni 6.320706488379579 2.461075335473114 8.554830517351332 0.5977475464372415 0.06170467609864857 -0.09015161858543184
Ni 7.524131067576228 6.434664459497823 8.294611266768726 0.7879826980098364 -0.20160174153832378 0.10372421506354394
Ni 7.987820214442402 9.115724697702554 12.607545593645568 -0.2515107105536249 -0.14115022112048592 -0.6799236030163645
Ni 8.683123381267682 3.843132746308542 2.775457130376717 -0.8837935717635746 -0.6628789888292519 -0.2932875373800949
P 4.7352363585221315 5.503588088042856 5.788754146723866 -0.5281531831778711 0.9021589616446397 0.369117597136532
P 5.8419299221762335 2.6738761919555514 2.532758099388708 -0.17708498734388214 1.1824637136118215 -0.6717528942801141
P 1.1771322610241066 6.938386911585676 4.069060395385436 -0.6630674506909742 0.5405741825500432 -2.838898467932156
P 1.2239622826586816 0.25713167845908197 7.231167690405257 -2.1917173494541347 1.5790669177631322 2.704178832928362
P 2.4230063458497337 4.2283876013271255 1.4065910671084605 -1.5642221394408158 -0.9892005738461803 -1.191836155965657
P 3.876138781643348 0.5619916148873603 0.11672922387546912 1.4267650509012009 1.4525177343852727 -1.2693384612181948
P 0.5060307534693287 7.040024105054493 0.13327281895429227 0.007984046646741088 0.5999044448792442 -0.2600560290204747
P 7.47223809165308 3.110452250281817 6.76165660721417 -0.6813402808582331 -0.5024362380277412 -1.0812329543940926
Ni 5.091127923094773 5.9031003698922895 8.127673951757945 -0.036015498862660554 -0.2722446006668666 -0.1730074748403988
Ni 6.962668803465124 4.186546756869452 0.44314406569297393 1.0874138863938239 -0.03930162581310005 0.6534908627461326
Ni 4.779373515580633 2.4565564873831294 12.285616400217794 -0.8147455679259774 -0.4652436881378439 -0.7510374882440549
Ni 8.222643538759295 8.059024349346016 6.189185875827526 0.1937040839578019 0.1740598273643131 1.1820117136760675
Ni 0.5712810754609143 3.1563047251867213 0.5559151475271749 -1.2845059129872523 2.395434594673565 1.0896728576313297
Ni 1.9432798993335947 6.874459044320833 11.885751832660121 -0.8420046607522467 -0.03837397179250811 -2.435292350100451
Ni 5.306169759344286 4.443291105492249 3.720959693805485 0.9799042361459188 1.5138015208964186 0.751567392605596
Ni 5.87100732631444 1.5242166828907593 0.6252849989918138 0.8583332227089411 2.3549520611784867 1.1709731964737187
Ni 1.2216936364747302 4.941037611534572 10.24867645761505 -0.2507044126022457 0.03426586316140551 0.22929637924011476
Ni 6.841775783849598 1.0053145900761418 6.309569833372507 -1.693133909513581 -0.3622946606774276 -0.12394517009610913
Ni 0.5858935546416909 5.738761853640197 1.9152731855285454 0.7417172392843936 0.22864666147125784 -0.4870888090373934
Ni 5.644354817115357 5.745577014331011 10.574601603853823 0.3052776198624355 -0.34303375556528665 1.0111616514983035
Ni 9.00732767637668 8.26434605113258 8.731176258528242 0.8938751243692927 0.739748802704113 -0.7067769757637827
Ni 2.5406162839958015 1.1872489474622965 1.6322162300274947 -1.0931962974035558 -0.06225926305053794 0.7248811415636612
Ni 9.057182559589856 0.9887239620886269 5.374825817253486 0.6210697661029497 1.5282737463706648 -0.3219391396785165
Ni 7.96587152371962 7.2828430238489705 1.5517576786783713 -0.7093835601486944 -0.017916218158788497 -0.489633429836118
Ni 7.183059480310943 2.4267966449619456 12.13163619044462 -0.13039298260398188 1.1691826802321994 3.5553847005639025
Ni 5.965810914814524 8.615681879059403 0.3521897979944393 0.9767116973505502 -2.0543906158447975 -0.5070058596762946
Ni 1.0220343280090847 8.329684905658175 1.8465839279190919 -0.35118775213098874 -0.7067530645043828 0.6061231720954463
Ni 7.435091315925614 6.481116373435073 12.622218016729578 -0.5869046901854666 -1.2387659877479762 2.0435264194367835
Ni 8.672305812268597 5.748463543825226 4.2666373448741055 -1.3186277943716258 1.4509910133281012 -2.1640101133468534
Ni 2.6978076425545514 0.5194609544355421 11.315939843935402 -0.06552199296220974 0.89228206885056 -0.9673955621559468
Ni 7.3081485731528835 2.956894414472974 4.58443686447597 -1.84767932099405 0.1556972656967254 -0.19396145138424659
Ni 4.776265654751398 2.203021443118117 4.875066118276381 1.3830961492583405 0.25517916054414763 1.0050331700030626
P 3.4457046678638776 5.103660809940261 10.814857690231554 0.19665159662190002 1.6977428690405019 -1.0615434463849653
P 1.469022181220233 2.508467907584197 4.148629010325002 -0.4959123208662944 -0.5460737722120337 1.1653825897598187
P 6.177818667346474 0.9858374325944121 10.916520705689456 -0.9168841836699564 -0.39863874652410053 -0.31593381402470105
P 3.26173221776775 3.124654344278911 8.030343497183052 -1.1185841413490414 -1.7346469411557028 -0.9883546809061172
P 3.465015826844342 0.6727292150810682 4.451054302068064 -1.6308805600003138 -0.429911331385137 1.232460871465555
P 6.889122245265885 5.59264628397139 2.5047910407811833 0.8065177806995465 -0.9488136853887016 0.19052568622982027
P 6.799566053833558 4.647967257551674 9.157265822644055 -1.7648062383479024 -1.1745449729853772 -1.7591798933000604
P 0.7874766012942155 2.905859097473025 11.369160807868669 -1.3652418946857392 0.4687743269989217 0.07078915489842003
