# total energy = -340875.58304488874 ev
CRYSTAL
PRIMVEC
9.13433875235987 0.00000000000000 0.00000000000000

0.00000000000000 9.13433875235987 0.00000000000000

0.00000000000000 0.00000000000000 13.36902807719033

PRIMCOORD
 96 1
Ni 4.927318183081294 4.3633823659063 3.5656001645216837 -0.24937540937817698 -0.22815069567144577 -0.5966519993802175
Ni 8.939914530863078 3.8557414795883056 12.853638967143588 -1.4955325473839016 -0.10749859450431162 0.6476002082933104
Ni 2.3111978403749496 8.969564595046402 6.63926045792091 0.3060615492163116 0.8268436367410922 0.428469713842604
Ni 4.613197401442257 2.2331905858692243 6.949902883293463 -2.286768462223713 0.4875906883744764 -1.8404120979086755
Ni 7.816253826762169 0.5773943521619659 2.5425487231875024 1.6089652479844612 0.18919848277796447 0.8801878566901873
Ni 1.086072899382987 4.160737056631181 1.6285210976470599 -1.0182676664154657 -0.3215619588447559 -0.27196949262860903
Ni 2.692930998811572 3.983229448105449 9.785246447008232 0.1220348404472737 -0.44851043454356304 -1.531433375045569
Ni 8.055920611741234 4.883838729750234 7.301468060529142 0.10059209719246545 0.6403489260475359 -1.1576445976856127
Ni 1.405665150044147 1.1043324429142451 9.29111342110746 -0.4023928142498941 -0.17917246600053013 -0.6784053665996251
Ni 6.84057854774876 8.629365275747665 8.69325084225973 -0.03989169398861517 -0.3961612315178855 0.8117422623232795
Ni 2.003863872564689 0.507588820586064 12.54165927455094 -2.1128652150419223 -1.102404189155069 1.4176435482159069
Ni 0.7344355608697207 2.104460347256908 3.2012268172312126 0.584336158127342 -0.033816691439128854 0.9977309799146947
Ni 6.637038073258002 1.9698932660650645 0.5182504209911089 0.43240015924526176 1.1430178489113734 -0.01777197927144036
Ni 3.8952840328383385 8.04750788558201 11.926991338930419 -1.5048746507204342 -0.1472483635984238 0.3729822222982609
Ni 7.924897654056208 3.482201823176464 2.667963196766379 -0.6883077133150016 -0.15589909729488635 -0.17195743630932964
Ni 9.069110620761085 3.8162171950161423 5.242918727627817 -3.3572074113260952 -0.8976209645649703 -3.458600407153302
Ni 8.179243321703973 6.683906366333982 13.027182272571489 -0.5915627577827683 -0.09027657419907033 0.7884287844083196
Ni 4.51377012213373 5.226467783205708 11.302644657774268 1.9940265129344432 -0.20452097206764774 -0.5210571955630381
Ni 7.068041855910535 5.732300070414553 3.7238361447621493 -0.8234520945610398 -0.46780836354122657 -2.2998949723033424
Ni 3.365282284807228 1.7477552775024503 11.35007745299644 0.11858056335008611 0.9789331304819011 -1.8510865469033861
Ni 2.8113120314104236 7.728299277156124 0.6543675995002379 -0.9883492815894787 -0.3030441025462265 -0.05606676108658087
Ni 3.7887593721772417 0.8478922713486622 8.95449476267128 -0.9332839651842184 1.6590210269902719 0.8474661980874502
Ni 0.23034793239747928 6.853558443375531 1.8156206754885373 1.2528345500259004 0.5708090701751847 0.11803703214179027
Ni 0.12848543832885592 7.9039891522337715 9.346969903695575 -0.6218917477836128 0.9946870508820481 0.35758131436215834
P 2.1353435471964697 6.4058022831160315 6.775637051655797 1.146593996298406 -0.5377274571298675 -0.05476449733538955
P 8.379267075704718 0.29972963064679264 7.522244119156533 0.8632751400952486 0.24183384958549317 0.1772935038102624
P 2.6098450518579335 2.3123853044365124 0.23344721359815757 -0.6377138024175341 0.08675236309589575 -0.4662109371471197
P 0.7158946796992617 4.603725091966561 11.069422148913914 0.6837964557082095 0.5686012638905885 -0.8755416161674275
P 1.985238955476027 4.1484239677466705 3.516429104600165 0.12735059623323228 0.05723635591464982 1.1770978213142178
P 6.204152616784839 7.166080715700928 11.813702700287882 0.6706807442618579 -0.840167864653824 -1.708304446606432
P 4.971016860546796 6.526439497431852 3.891844040795381 -1.0903660270436124 0.8332230579048746 0.7665756930889701
P 0.7774427688778361 8.643971083704884 0.7441572377983441 -0.25172385500569555 0.46225915158822317 -0.06409374515611542
Ni 8.655608231508197 3.852635804350373 9.353145630249594 -0.056711593759431356 -0.8765430608487486 0.4120496206133678
Ni 6.648017548657989 3.527919189546623 5.000431258785595 0.05947964342287175 -0.4794035245779937 0.2216118661116635
Ni 0.06533701296885254 1.8601807211156192 1.0029421941685661 1.2479936769938313 -0.22686231587732542 -1.347114074736777
Ni 8.202608960699951 5.94053559511795 10.705262545154525 -0.7867112874965805 0.36028611488783113 0.24930264715871256
Ni 5.934178095219123 4.68584279899308 9.212343449300654 0.24574706859697032 -0.3066683295623751 -1.020795575043642
Ni 0.3096084182050996 7.451245642915708 7.114261610922124 -1.2506036038128525 0.23105809912622788 -1.7440263254880737
Ni 2.799501331167344 6.239959225410416 2.5942335531839595 -1.8446870711349455 -0.9749834018055339 1.1057160271371214
Ni 0.23856792400517274 5.6356130927865555 3.8729405263691987 1.3300056971912644 -0.6892564503815163 -0.6274743840777128
Ni 5.4745564286829325 8.063036261771673 0.12835207698040352 0.8475854972741339 -0.93077945359481 1.2885307178759293
Ni 4.727970370161745 8.032509301050581 9.944939354308845 1.4026352477325326 -0.7927490090502283 -0.9469187823588336
Ni 2.359491090324805 6.212857641789985 11.028218059411588 -0.556205718439713 1.059899483023639 -1.436302558077991
Ni 5.992235953490598 5.710222373208424 5.781182485225723 -2.073808101139461 -0.44661527440337917 1.33479566238074
Ni 5.628689263873752 6.697918442260421 8.02630982521533 -1.339996746965705 0.143311747548179 -0.5115875655097061
Ni 4.138851180542689 0.6933474774718692 0.2692108908307413 -0.7189562914387941 1.835430071313052 1.6352833170537
Ni 1.3341889478770161 5.70885222236816 13.244789629022298 0.15755360217917383 1.3900052176733482 0.28653247804444854
Ni 5.649661706068733 1.9598637619143287 3.3102780360417565 0.46011279466918187 -0.3259860560543805 -1.0754050348584059
Ni 2.5953397216289997 7.820629175112081 8.684239816900256 0.21902199389730018 -1.5350876839687047 -0.017134602797757588
Ni 8.021456750939114 0.022459512573615545 13.19397438809246 -0.27742074555116736 -0.36879132414536486 1.0774899424118927
Ni 1.245202217971305 4.275226860843682 6.675182159217072 3.3003286958611806 2.1854723969856877 4.278422361160922
Ni 4.824538601383587 3.06148330616485 12.624039137104894 0.373128518068138 0.8873635485030202 1.0686062667690177
Ni 4.095179906093993 7.366250619124634 6.148068689157238 0.15806165216384394 -0.15791098551859253 -0.09162511780716477
Ni 1.7428775405111085 7.19001268371088 4.7021147103720615 0.839794026254173 -0.1639584772642531 1.6198518129899782
Ni 1.163997944838296 8.596746551410433 2.98472928296102 0.9317001656368663 1.7931963594548215 -1.8785518422031904
Ni 1.7592736788996068 2.480950395144785 5.456327941904053 2.3037665394436067 -1.6906895617381463 -0.5384139416739308
P 3.953688995989346 5.928377789995336 9.326822292306433 -0.7740020674600284 0.7235855626806893 0.21522267475586804
P 6.294993617494375 3.6239576291102287 7.141908514576981 -1.435266660614309 0.3996224505936085 0.4147719046405373
P 4.146295666774793 2.6829197633387056 4.73790305031977 -0.012743415708597407 0.08879561877816965 0.39463862422577195
P 4.999853968564896 2.936041429569168 10.249565904058743 -1.0577549258768106 -0.779686005218683 0.7828993699496583
P 2.1438384824061094 8.673301446025478 10.591839631729643 0.28824843229429065 -0.21051729886039872 0.19079719472365206
P 7.722407628542986 1.6669163779268452 11.792833476122867 0.4452240504828074 1.0756063522359347 -0.055058888647356787
P 1.9847091638177914 2.4202253099042625 7.680238952849113 0.8526639402383057 0.337505883768522 0.41446800024687336
P 8.16773405464575 5.253688113232295 1.42738478116402 -0.9879291633329242 -0.9648622542111319 -0.6337437620261924
Ni 5.553449714065361 0.8908894315839491 11.776589881194585 1.2741785629193152 -0.40558792414842415 -1.0967850431960786
Ni 0.9249522949068179 5.711281956524895 8.694895023268048 0.6949416736917515 -0.2091705550245172 0.1508887885644885
Ni 6.693214257708846 8.06943029902624 6.382668656329006 0.6696247921935177 -0.5293981113285656 -0.46371182487434975
Ni 6.078628531138741 1.8806233716523655 8.626125325727385 0.500048454521855 0.6394040456357634 0.9977368934519656
Ni 6.433844703646778 1.0271198758958735 5.650473748800064 2.3350674064394172 2.0988881840365403 0.7935295959699946
Ni 4.150287372889431 4.77416272215653 7.552070476081305 -0.5364565608372438 -0.48132876662516466 -0.9179589047913739
Ni 3.372270054092577 4.998830922604165 5.2180386152364004 -1.2850036785592773 0.0936956271829483 -0.21091890517419157
Ni 8.119879252964779 1.39176268618493 9.632946873641687 1.0229542732578574 0.6173102990605175 -0.07028393312722735
Ni 4.214282551468718 8.178686127028932 2.478243890518316 0.38547829788274257 1.3594579410141103 0.6553957930783293
Ni 6.9268889163464875 7.304338069822549 1.8162765210240774 0.7686796268058503 0.38423748349710596 0.5372001238714877
Ni 8.449838978317274 7.845364964948321 4.055053668586007 -0.5474238584820249 -0.20094019669492494 0.5909261526400339
Ni 6.149447060902545 8.451629308748554 4.0111092774031505 0.4448170448523759 -1.125873733031919 -0.9543158461538533
Ni 2.563807983625046 4.103674841303633 12.134130742961604 0.6271218858343005 -1.853683103985969 1.8694763622644834
Ni 0.17874805175311853 0.5485462829371437 5.5188552322164695 -0.681540055573865 -0.19023515157259496 0.13353924154244742
Ni 0.4311353171331989 7.717876996431178 11.649383250316642 2.0911535343964434 0.8440533157511593 0.5576604486083686
Ni 3.439352639231926 3.7780995986399843 1.4536679280158669 0.7415660584185099 0.7624102488573707 0.48197205663611825
Ni 6.754679224403111 3.8821945251443455 11.129889645796466 1.1384916789062458 -1.5691537724144784 1.7626686231796096
Ni 4.901522809928581 6.020241836665604 1.7128931595227606 0.7702677972285766 -1.15707895499013 -0.988866073324897
Ni 7.540953985597292 8.674689865543613 10.980424457801481 -0.999267471163879 -0.6937782495112697 -0.32534893669101383
Ni 4.461247673256924 0.47613655133084587 4.998519441646478 -3.416640260671432 -0.12846516945364975 0.3375951010482186
Ni 8.109292554139003 2.45923807149606 7.093205132808939 0.8054962814135675 -0.9078295296668558 0.1798692349572386
Ni 0.9081332366256244 2.4328672349904363 11.177871414788637 -0.7939682261693101 -0.37888007583993455 0.11792518915427433
Ni 6.331430495506475 5.330325216897756 13.200953023038874 -0.6976269338333986 -0.9491808389201332 0.049311701750934425
Ni 3.0743261867075953 1.3750011742390278 2.746627210241537 0.39401281771631497 0.29484382612362126 0.38791081858363513
P 3.841126537292151 5.943933569201806 13.154429094540747 -1.4996321713745722 -0.022149025293213467 0.7579748387938366
P 7.5696632128703 6.366223192510257 8.682061277064237 1.211232815324714 1.1823536703965185 1.2719859261433706
P 5.024690236129424 0.06922550105352317 7.565278730181454 0.4744729200455958 -1.6467054428477124 -2.0850895875905513
P 5.973939872603598 0.33269271956187574 1.7209551270668766 -1.8088199249246912 -0.9861013660955661 0.24692463384483926
P 5.764589958550119 3.7506417758010837 1.6877463244344395 0.10080344187232317 -0.014653745357432827 -1.260371481832894
P 7.947760904410755 6.319957765803993 5.528480998586274 2.0668252420637243 0.3636519460362705 0.7413274600451426
P 8.018442419090533 1.8859121538957864 4.419319230677044 -0.24839119108803676 0.6526758230440051 -0.5237414272634207
P 2.198918546184742 0.3298948715460556 4.601378480294135 0.7895796101833111 0.28865672347630283 -0.9582349787026013
