# total energy = -381170.8603656783 ev
CRYSTAL
PRIMVEC
9.19908204714473 0.00000000000000 0.00000000000000

0.00000000000000 9.19908204714473 0.00000000000000

0.00000000000000 0.00000000000000 13.46378643345829

PRIMCOORD
 96 1
Ni 4.710969571937833 6.717234200686193 9.64358550952953 0.032507228599085954 -0.7719492986960576 -1.1712439336366023
Ni 1.165882476285173 1.2720950791239882 12.715119493046611 1.6199551713370617 -1.1796370427963039 0.30106126778824277
Ni 8.156035047058147 2.3188126448623043 6.226382214512992 0.6229294450195078 0.537972483261138 -0.1977617989669433
Ni 6.22431058120628 8.082644769434028 8.207834158899917 -0.014693854566748887 0.22371528560791148 -0.09020329775897368
Ni 2.392635279348836 6.129780812734804 12.98688613804458 -0.49150287894468897 -0.8843931530207865 0.7481722508811179
Ni 0.3553338672367228 5.259244068888831 9.138491504326792 -1.1414584748440535 -0.13310703910103527 0.6834017913729521
Ni 8.858596550315452 1.9560560382153407 10.565868010540637 0.824857973769631 -1.1375354856405635 -1.6968974903210714
Ni 0.33354308137109095 1.752351562443409 3.066861769678363 -1.0732494219679838 0.7159331883417541 -1.2471061321825554
Ni 7.021889404290548 5.446463789395981 6.014555869085216 1.024016653084101 -2.553096697406145 -0.04150737521516722
Ni 1.1654041240118647 3.2709176503895327 1.1297852778147495 0.42641000310009786 -0.6290371005791424 0.32726620831838477
Ni 4.40378462073425 7.107854827253369 12.319539641276732 0.6152089364467985 0.04397049204367911 -1.2779627125520958
Ni 1.8601280092526553 3.3882611426649465 3.554533633142281 0.9505826043636663 -0.5884159846236705 -0.3992645530335575
Ni 3.8802464557626015 2.841099734657608 5.977840492292362 -0.3824762778316252 -1.3490629709330315 1.4660021420249527
Ni 4.16856408941704 3.2285374787908476 1.752204377128545 -1.2063412915603675 -0.9958219358174398 -1.054662402994416
Ni 9.205061582423394 3.1082778774646886 12.396122000416966 -0.9239590882388669 2.0421449657082253 0.8578866220898257
Ni 1.1806562022646583 7.223404498503877 3.2401540797664974 1.1208875926712372 -1.0969796757053882 -2.4982522387624395
Ni 2.366693867604036 4.702690397976726 6.8767775625495835 -1.3389289678228231 -0.5887625693298119 -0.30567305552864127
Ni 3.516220375774935 5.150271741396313 11.13084896063693 -0.21467065890713996 0.09788781088742496 -0.7687727007402889
Ni 1.7548813100426357 3.179497171694561 10.537109839832626 0.13795485411163982 0.6544290582896858 0.0051532620661653185
Ni 5.636204058420181 0.021578287067296812 4.442214706445269 -1.8900631852768996 0.8848960607991341 -0.23358523642345577
Ni 4.5536744657589905 2.995257953813408 11.621576759200714 -1.6795906236115072 1.053384564723257 5.455217049412424
Ni 3.283658379207458 8.67628913969189 0.1887283699845084 -0.07536006209855409 -0.2936544338012104 0.034931521769862424
Ni 7.590963026048282 4.516050219646852 11.063866763658707 0.6807286154161631 -0.07522250807942528 -0.7116574437845357
Ni 5.872160516311711 3.4375866213087827 7.589819580133431 0.9060906925988782 0.027882328232564885 -0.8541562085131161
P 6.267868235323879 5.945964752633884 12.729498578400618 1.68540620185202 -0.740042679795448 -2.1725968265746003
Ni 6.976970286010457 5.786323880499396 8.320121835609749 -0.17725339460094633 -0.6400558202871492 0.15708103341812946
P 7.919683028632919 7.481714726090394 6.653830446675605 -0.5428023005496135 -1.7116831332706781 1.0655384264769714
Ni 1.8683335905563296 8.571116033139303 8.074394112627678 0.2565068782166357 -1.4036726878581116 -0.29871205082977587
P 4.082157110509627 8.514633668560199 8.095573159528405 -0.18030143739865076 -0.7690262115119918 1.1250928890018363
P 1.8178582266401182 7.5500455085160585 5.133082336436621 1.1976255089539245 0.39976026172305346 2.16181876212249
P 1.8219978136206711 5.241701419173464 1.8124546857681691 -0.16645296155133268 0.8869709410502918 0.04601014818152721
Ni 5.972770878103512 7.142149005616708 5.506904519036712 -0.6432851258577243 2.593344232072282 -0.08724344379970136
Ni 6.01002716092849 1.813525458933806 2.7402032814100408 -0.22660340578898394 0.7048244800231022 -0.2861509263353137
Ni 2.566295552724131 3.6533326956530345 12.715550010092588 -0.6413025482100569 -0.8709329137508226 0.7674845780564846
Ni 5.823212200037214 6.85429132607122 1.0329189424698053 -0.20305390060381803 1.4809294527587464 1.8821128200815715
Ni 6.687953522110414 3.673487884707239 13.093303880415988 -0.9752916770745719 2.001119672335799 -1.9875285639149256
Ni 8.72799718062009 7.708030545858326 8.771239306218947 -0.2715740569624033 -0.8701302153438691 -0.0836187025629205
Ni 1.2131933559318064 7.96887052104407 12.212408050128234 0.4465150013800891 0.9980652233256617 -1.9632174979733867
Ni 8.370254073760684 6.649657742999207 1.86256668593831 -0.4433551155948687 0.4209975738352749 -0.1142045457695775
Ni 8.754499736377808 7.851554626015194 4.539234666462603 -2.8464755089484655 0.03245683497712475 -1.0702247762090473
Ni 4.146063134407188 7.263494098639989 4.205750459217458 -1.4072372652809184 0.9416541915257848 0.28019470875187874
Ni 7.922534744108411 2.635389858970653 0.9917401710036984 1.443502932481172 -1.5594486293115726 1.918682134565173
Ni 4.781002184566613 5.422996930757335 2.9113687636983894 -1.3026599581884597 0.8987805320907102 1.2555028408866828
Ni 2.8145511834889936 7.992751338380772 10.245443740265028 0.5378655253696285 0.4400039397344486 1.746010188687322
Ni 4.743837892563424 5.000841850480523 5.623984917561805 -0.19800733931884607 0.9892303986428512 0.018988625287360845
Ni 0.03256567082190282 0.8001140901328027 8.28818630191711 -1.0954339284848231 0.28907915572570214 1.3835594620480045
Ni 7.052936306644697 3.4873352577328522 4.022171735436758 -0.20892372912103374 0.1582727397333855 1.1278259716622834
Ni 5.500857962320451 8.857198289824243 10.463785795600195 0.07756092640461482 -0.7030331924506343 -0.5375605925347001
Ni 4.519159509423356 9.285645542311494 2.1673331984370314 0.869005871931439 -1.281339856554445 -0.8542009457081223
Ni 2.4501571402141664 6.1890229019676095 9.129779973503272 -0.13651143679689393 -1.7197497123288963 -1.547600985944367
Ni 3.507803215581143 1.2331737624246097 3.8007599463784554 -0.16722892048540877 0.8080630136994794 0.8920743237151281
Ni 2.8559930487054204 0.9578636309712869 9.312025750276234 -0.000731478849385837 1.8124477514852657 1.0634244654577623
Ni 7.049459053581032 0.2145906696225688 6.316683164906779 -0.6704899684072904 0.5782207892582235 0.757051812758935
Ni 6.721631361967758 2.0070005553226817 11.423470844842925 -0.9342013347921654 0.2880507144611878 -0.43129767020970244
Ni 2.108245653784833 0.5916573685071957 1.888053663023467 0.7435728044358936 0.17453779544199619 0.36226869253549865
Ni 6.871015257472654 6.743157214266636 10.36195931514433 0.34288386025098366 0.010531495658943152 1.8610806820016204
P 0.1373698941791121 0.770474647352042 1.2358810523098915 -1.5744952392320497 -0.5164832030391105 -1.6551810844188912
Ni 9.192090876550994 5.5417202853596 5.027849435849869 0.5822193688946553 -0.7911785792393148 -0.5141111032625081
P 6.022556310856298 2.119707710179876 5.223679497276571 -0.7493287330830644 -0.5399504329231152 1.0158976235213923
Ni 6.23209300472972 4.481765240365692 1.715905718758401 2.553209054614293 -1.4323787975435522 -0.22137249640734777
P 3.395344435942782 1.7149388952213873 0.05595617707846402 0.19831715724978105 0.3048132786315073 0.47142282036536226
P 7.4568312087961806 3.204049522030331 9.18067297575041 0.929277929348619 1.0703152790403245 -0.034022893912663985
P 0.8819012899699185 3.508769119209939 5.439423731804387 -0.22591923523776578 -0.2482307542507725 1.0033832931044655
Ni 4.5178716379182955 4.881851722495067 0.03672181615037819 -0.11816995817522874 0.4119074386085487 -0.13106969695603235
Ni 3.7047463659515047 0.5316443961877897 11.621805816346972 -0.5766295335117037 0.999529466576014 0.502190183455206
Ni 7.219421295920366 9.109299136939931 1.4596763235607746 0.34277253148410003 -0.4389479876661086 1.0498629247232436
Ni 7.19196203561603 5.753952310311472 3.6139357864050012 -0.6369666398388643 0.4690275806603084 0.6357466513888341
Ni 5.90422851678773 8.908004820698899 12.715280476984743 -0.37973239653790086 -1.102079973046431 0.5454093991551574
Ni 0.9038594991312083 6.732486278938986 7.096371612969314 -0.08075217964840287 -1.0968598622980723 -1.1788693113923439
Ni 1.1371997380510293 7.558205094408837 0.9280530852619967 -0.3246017741123442 0.5914583709944201 0.7494043235160062
Ni 0.23178191439869714 8.980088828653598 6.294778310422128 0.7776075254230995 0.13371099123362135 1.3802867048340035
Ni 8.720279150671901 4.071587365085947 2.747703293110585 1.3148027641985807 1.4240152560702055 -0.8785351515781127
Ni 3.603979619762662 -0.04918933222758644 5.978742922254122 -0.7353118499786819 -0.06768917581685761 -0.9923074949062781
Ni 8.6728670811213 4.546591172481155 7.168968009801385 1.2178454355452253 -1.517659204079612 -0.05693605106541162
Ni 6.89606435824609 1.0937340747552209 9.219489422912948 -0.07598355461516591 0.32216154010196774 -1.2497962774202087
Ni 4.698881977954617 1.2662260646937817 7.709377291489332 0.9759131127086549 0.6104382545310326 0.25358147703972456
Ni 0.8250702801762309 2.8650357464873846 8.335080463141033 -0.44641832790122465 1.808207231041357 0.6573403183992099
Ni 7.903308662354287 0.6790964844350935 12.776487490170986 2.3326490268059117 0.38410352902240297 1.1087283316008842
Ni 7.728360517473931 0.9218860205691904 4.09952129803072 0.8008996631818207 -0.330345875684973 0.200660460670977
Ni 3.4792768617440424 3.299894759253405 8.684600510440623 -0.48624908674491746 -0.47381780296010007 0.16556670229163742
Ni 5.7544214635026 1.6697438044759259 0.39149453937418155 -1.3485096695327226 0.2644646996111316 -0.009797959927028288
Ni 2.1323196518472947 1.538353313713168 7.1180483302159265 0.3432610410847443 0.3995198635774732 -0.8724064129725557
Ni 4.504974524703327 3.4565367305975374 4.008546054913213 0.3765660829947773 -0.6653444196506089 -1.6390021606661838
Ni 3.6298474388500295 6.898391726037379 6.747928778192886 -0.4123836069140188 -0.5182901743408622 -0.1797962156274581
Ni 8.110913548970117 8.636033956076556 10.805941057707273 -0.27147764059385504 0.9014295396777829 0.08238148772170972
Ni 2.450239931953778 5.420568373062077 4.372068945105687 0.954985361417052 0.8064175076762563 0.5254789787798175
Ni 5.399916433570207 4.087768550638821 10.002085700852268 1.5075331713892037 1.798765626012483 -2.2376495932098757
Ni -0.019338310556708597 5.21495968727909 0.10646833732339167 0.6040295227912114 -0.4443604169309315 0.2262190258663717
P 6.54106257787603 7.744762480999101 3.225492582589596 0.13325307776059633 0.15027300935736054 -1.0264044365899871
Ni 3.45363901971115 7.0683723665410705 1.9941347189871226 -1.3775394811061694 -0.684147411289725 -1.3036673164070516
P 4.803089180878408 1.8176558468321797 10.147642778170695 0.40749671113536273 -2.3745770344982655 -3.870939276872314
Ni 1.2706416241397054 1.0495508830494502 4.911926281862894 1.5327916888456763 1.2170494220064911 -0.4556997532031507
P 4.347946191907678 5.061932955231309 7.766450237144327 0.6782750116693479 0.3218666345693682 1.2633056247605534
P 0.9570173154108184 -0.03533827419065554 10.353409688167162 -0.10762612122111141 0.7760396667153473 -0.7909227544747669
P 1.2327690028087332 5.429491482775713 11.07536469647425 0.732904268978454 -0.47236872921839945 0.9779373422275351
Ni 8.336705021053845 7.227580881813145 12.729336674554267 -2.0596181827923234 -0.09457031647841777 0.7156534523178062
