# total energy = -340867.4309172832 ev
CRYSTAL
PRIMVEC
9.28828619016599 0.00000000000000 0.00000000000000
0.00000000000000 9.28828619016599 0.00000000000000
0.00000000000000 0.00000000000000 13.59434571366421
PRIMCOORD
 96 1
Ni 5.873819253227104 6.823221417980829 3.459802052644558 1.5324260779761414 -0.5017806067216133 -1.12170494636621
Ni 2.1894533784677166 0.1500903440832747 2.197349350489995 0.9713586605687529 1.0614845681225717 -0.48687129370994864
Ni 3.5868295823162146 3.9433140032255527 11.94010386942942 -1.6899477984761153 -0.9708881486902377 -0.5511208477176379
Ni 6.493041423335568 0.29666135655939596 11.932097366802433 1.78544011254817 -1.5477629654435279 -1.847387243674928
Ni 6.115974160406034 7.322996228712167 13.348478332861003 -0.31118601492707054 0.2634267452649205 -0.2697804553970902
Ni 1.1070708214743095 2.140002543217031 4.516775574154912 0.10888261933603183 -0.4184876629292276 0.20597853044978076
Ni 0.2746815563082272 8.494109782916281 1.2109259349582484 3.714088614297436 2.6930379858201943 0.8973733673305384
Ni 8.399898696900559 3.8020391714894655 4.672458395305136 1.6576367450482354 -1.0272958380560049 -0.07958541303381132
Ni 8.942000227436061 3.676972399015671 13.67958251197423 -1.1551585980389654 0.5687922968554721 -0.2186101031708622
Ni 3.435031122417275 2.6625986729211215 5.534366762558033 0.14921705728902043 -1.8990103671678586 -1.9074636401415344
Ni 1.8119960075215553 3.6197565565768612 0.7493557026553704 0.722199223856124 -0.188751625048533 0.05381678871013957
Ni 4.34329546798894 7.792333325860391 4.705600857803539 -0.9874900189129767 1.9345252722450168 1.6945631857609396
Ni 3.3213239238562506 7.390977194752694 2.772403862487253 -1.5363791490866185 -2.414901702259241 -1.0385109900455343
Ni 9.162429833403243 6.311427565022897 12.185060123699186 -0.462768487124474 1.0500465014889593 0.8513755604441854
Ni 3.719540614258701 9.259055873807617 12.988595328063942 -0.39970626855666647 -0.3450461580096251 0.8837609187534263
Ni 5.381242864231169 5.08714786112402 6.687548351597801 -0.9267417931903265 0.6789219012247275 1.0709930218336392
Ni 9.076977601189435 1.593433347062524 2.1234508173686613 0.4902366106377557 -0.19249258014820397 1.3978267706002958
Ni 1.4185256313214152 7.736872969496409 5.288336782413929 0.0748106173529873 1.702207589680075 0.49595551539940397
Ni 7.352263618245397 1.4951075502999847 4.459176125499751 2.2138648320854517 0.8801048100580778 2.4184004594411186
Ni 6.211522759621625 3.2450299417470974 5.423654107438936 -0.8278918754999484 0.4481767053532282 1.0758380086307666
Ni 8.40937274873296 3.307261458685413 9.057029149110567 -0.13207628384367578 0.61892263785296 -1.7934385573726144
Ni 3.772790358528457 2.015613815629281 0.9790670929324707 -0.7444451797385179 -0.20833854604152507 0.6595015877165868
Ni 1.2081459509254666 4.412010208632173 3.584326389209517 0.9563994681557594 -0.09314232578263959 0.09546146083411947
Ni 5.116656746096114 3.806126017377952 13.673328708936234 0.009212776847519618 0.011562765136934924 0.565899034468077
P 3.393791132088003 4.21225632754629 6.789600608747751 -0.17110023051535694 2.7668792972813767 1.2612343440538214
P 6.657035402897196 4.914682964629893 4.284991967246627 -0.588524999397709 0.8374093280720805 -0.8051592097891229
P 0.7757734460099911 8.777495392138373 9.20398376780304 0.8313165849107811 1.411597342021827 -0.06424878267674097
P 2.618488602183799 7.815238239408137 0.6088109302075445 0.6508238574369307 1.5969432838229207 0.3077425364631603
P 5.130282661819772 6.248620174345749 1.5208398181396727 -1.1134527336597468 0.8405941535579653 -1.525053182550838
P 6.489001018877632 8.1285692830495 5.131172479629129 -0.2421287551180927 1.7696095732738168 -0.8593403238172167
P 2.9330271230194898 3.0970211025811176 3.1855496151546214 1.138975817631516 -2.05128035235059 0.4126384032373023
P 0.674428956261638 0.055582032912026305 3.7259244533022393 -0.10869801412905152 -0.17791596788560973 0.27076107414280465
Ni 1.0293185784458554 6.651750368100494 9.970188421462305 -0.14078666713348012 0.40040432306495555 0.6931794395850062
Ni 4.7777271859350465 1.7769977454583354 11.937358252055246 -0.46903143731505026 1.3198503539248172 -0.08989476537961938
Ni 6.804765593479869 7.205889517434811 6.924918862601371 -1.6441693066894199 1.282468313731933 2.2431319564806853
Ni 1.6357414902944682 7.480692750291083 7.597567254415683 -1.584513285589684 0.13538709338446359 -0.008399794027921018
Ni 3.5189507874228996 4.8460518185616515 2.119276661590739 0.27492677548472005 0.5136375060601993 -0.6919599653556083
Ni 1.9282481964767735 3.885726629342335 9.874755925823093 -0.24368144431719324 0.3194942776824497 1.0891812627068922
Ni 2.3444655853607848 7.421888610927429 11.999116995230555 -1.4751416424323756 0.7194327168545803 -0.39683588898740685
Ni 5.459125143265165 6.312588600786673 8.90392940032759 -0.369873244355634 1.165428869616722 0.34509706585221855
Ni 5.420894557635597 1.209483464125335 5.720868117021889 -0.6956662105626019 -1.551436300530057 -0.16442307560549746
Ni 3.996786666361954 7.256083415574313 6.877134345878853 -0.10112148733337423 -0.1061870747817397 1.095263721455546
Ni 1.5506700778111793 6.148408855502841 1.0539148888942664 -0.8853092370771527 -1.7122678021295543 -0.8063941106374887
Ni 7.917938818928578 8.707136624853636 3.548885075898841 -0.20598650086958073 -0.42551268809680914 -1.0069221594956594
Ni 6.29076112842771 3.575971575853395 10.545854102685615 0.6312986429198095 -0.13119619523156759 0.8654446369427418
Ni 5.710196805109884 2.4451598950814235 8.348260470270922 1.0005180557415285 -2.6146725612364135 -0.8143542460248299
Ni 0.9208694786518131 1.8020761179558655 9.71915484159064 0.4906677846379034 -1.3092450676051453 -1.6750857937626182
Ni 0.8534606710356738 6.8114624477653205 3.249415870448332 3.3650572463878174 1.2437408152547482 -2.0476191014489187
Ni 0.9241826103073202 3.537257999346097 7.282382268866723 1.0239693447859333 -1.402413875750346 -0.19911522767104417
Ni 3.203316248826205 8.829472641211032 8.69759476853263 0.4202480972637601 0.23824690356518322 -0.4345868824839354
Ni 3.7431328609785997 6.0966266604384955 -0.41935590076064644 0.32369391758609417 -0.6532766898527975 2.1850815893051725
Ni 5.106402478230457 5.537323224026909 11.453670752866769 0.8707321105939262 1.06630358677777 -1.6453538139158241
Ni 4.748617697265692 8.848365015159171 2.0591628738855476 2.1687702537396585 0.638311583902533 -1.3935867643770192
Ni 6.764723792058813 5.014402004308962 1.759679736005874 0.9060207585928913 -1.0462402403689919 0.5874484785040787
Ni 8.311594960850922 6.42789338455865 4.012615763550951 -3.5321948927110007 -1.5349961526961629 2.0606913612518447
Ni 0.8655075781205984 5.326729913050426 5.829514128481467 0.10453796921409093 1.4158003243595811 0.11447091205708672
P 8.042959149971821 8.399536453742261 13.500503426941032 -1.2237507452860668 0.31494342508697376 -1.9896450960372958
P 6.937643814572339 2.613287161962089 12.288051426574878 0.19123042560632875 0.04103943443981319 2.770030955536481
P 1.6044771192475473 1.3164473669703567 0.31363012645411387 1.1317792998830767 0.9686988543484025 0.3867229689231211
P 8.95996377277318 2.06049481411375 6.328589531268707 -0.8249536188072308 0.3009273133135398 -0.5873803442703046
P 7.289586263573791 6.942000020758021 11.131729468001252 -1.7058919805101975 0.10915258516796686 1.8224791675793386
P 3.358987924033097 0.27103125986692006 6.360413985968074 0.4814192694564419 -0.30029893570092153 0.026266389895696695
P 2.6516570718833106 6.129683670704685 4.508143041044096 -1.372471579664959 0.5268509194266797 -0.22167074437405695
P 1.5814235931220397 4.966799537994206 12.156675121346426 0.010627397806859116 -1.2981947233282547 0.45420054294980483
Ni 5.810370970808353 0.8618052672770742 0.3239299069217106 0.12638077612079526 0.15590346817026055 1.7695247268694947
Ni 5.309147187443823 3.0699736134282256 3.0513190196045072 -0.16895438781694772 0.015851365209959795 0.0699849138295698
Ni 8.84209542203479 1.2208151731797745 13.444222914913519 -1.3568544419529922 -0.3113662492586767 -1.94455334590498
Ni 3.0819647907964893 2.555021743192827 8.001944864995027 0.041374963402361 -1.8987437437700332 0.8795545939815625
Ni 5.378400648681448 9.275393969075452 7.615851245623605 0.47698000273816565 -0.7401570938861253 1.2887171228551226
Ni 1.4746361677131117 2.3672683277613165 11.915117450964383 -0.13475588755836793 0.33799722158264367 1.2759071155746478
Ni 8.353893815796756 6.8455690343619615 1.415442849161441 -2.479180823953285 -3.4263142934260857 0.4337695287889626
Ni 7.930645194327326 5.734513538146379 9.56715668354033 0.14846989471035074 -0.5899933564131193 -1.0987979598610496
Ni 4.081198610531419 0.908988831888261 3.7460038702152616 -0.7491091608730904 1.1507373290428182 0.3213570419228014
Ni 6.893608050123898 4.949495460970909 12.699593092231016 1.6528205546065147 -0.1230403988936526 0.40656648601160955
Ni 4.403223489971928 5.009386329809455 4.502406595542438 0.2146133233066433 -0.9923568600869748 -0.03757281604745142
Ni 4.4986513414680855 4.0769724403512795 9.263499389882734 -2.980896638875234 1.4604449596521494 0.3831100547608821
Ni 2.5976085350080775 0.45258195783404104 10.76513103234652 -0.010908676492703794 -1.0945582107480891 1.0405380477778916
Ni 8.341373206120211 9.231228168621467 6.2030323372882945 -0.3681727167247595 -0.4118377617128779 -1.5456181511863833
Ni 2.723353352367916 5.707744697576793 8.591829983424436 1.3549549109374341 -0.8010534151508656 -1.803701115640887
Ni 7.657727483551426 5.211666624717313 6.47200995709625 1.7838288021969921 -1.2241502947173306 0.2320258623561359
Ni 7.9881303970633315 8.132535381218556 9.427488725301307 -0.6325255733483752 0.29584218548114855 -0.3069403522768391
Ni 0.29477211916458207 8.783254129526695 11.330288875493364 -0.39336155728556127 0.4329508895424092 0.56603298894278
Ni 7.9403978947430325 0.9950448026992306 8.17388590215254 0.6286144112194271 0.7106310594025503 0.4984872806823221
Ni 1.3770534338393883 0.8326827750071644 7.326903810678727 -0.18002015871280608 -0.2783265451948884 -0.49287301981933823
Ni 7.0020023490298895 2.6355883369126705 1.2836922260027492 0.4766922962944177 0.6150197032541279 -0.8520720722905777
Ni 4.714603993530152 8.114163151292587 11.018203391019375 0.45347317786547714 0.6905011214218947 -0.32551965794092325
Ni 8.746453939958096 4.136668255181511 11.174306971530392 1.2172779930775293 -0.11704844297627584 1.1601231411330923
Ni 8.251323272281857 1.7931872281484076 10.83087352143449 -0.56868816717744 -1.2841606138326918 0.5860960782412422
P 6.416143702629252 0.49730877076908075 9.605682636668202 -0.39279668592102673 0.06479334232630132 0.402048800646914
P 9.212614443256633 4.822849679858381 2.0243067225998135 -1.0684442872698567 0.14603814534040654 -1.2070665997621663
P 6.507373248803601 4.445559498062203 8.556485268289306 0.4640638088971298 0.3024437499580662 -1.705848528866772
P 8.858507823591507 7.232574763429405 6.636908615725011 2.24091078045965 -1.438897829608993 -0.5344968660077117
P 3.479419841737904 6.519475885605187 10.40091132676461 0.277376008356161 -0.10098701863803898 -0.7391813602364172
P 6.560260749915059 1.1423198672625048 2.726794662371744 -2.2084691149911775 -1.2264727722029198 -3.354375084083623
P 0.4805666350554518 5.123362888667676 8.524334794747471 -0.000769016955540611 0.25543010021268914 0.48105648680038443
P 3.6507701438988067 2.144256578255501 10.149157904719404 -0.3940722101993407 1.6935514566669736 -0.4625915952269775
