# total energy = -340864.85841332574 ev
CRYSTAL
PRIMVEC
9.27031287991167 0.00000000000000 0.00000000000000

0.00000000000000 9.27031287991167 0.00000000000000

0.00000000000000 0.00000000000000 13.56803995733746

PRIMCOORD
 96 1
Ni 1.015358799144434 7.361647943800548 11.511382867953431 -2.4581183468560313 -0.7839504369219917 -0.2936870868113587
Ni 1.7825049782547926 3.0893038651165474 11.667646038339255 -0.9944973034687453 -1.1899633644229763 0.30946928934627993
Ni 3.2631222264849473 5.9736225778822645 1.1072785837923471 1.7279749284521662 0.040499759886259284 0.31287497259371927
Ni 5.156045898193555 7.243025023690145 9.764795715891806 0.519797097903692 0.2616398285678268 0.12348725662308409
Ni 3.9258383340851712 1.514555862681873 5.6840588014364615 0.43740532576933705 1.7932243844792792 -0.6932912825725221
Ni 4.251133603440754 1.6215908920343822 7.8824884061799505 0.5501620833487945 0.6985378756834422 0.5874862737205495
Ni 5.9845151951946844 1.6561042658676919 10.238862816016047 -0.45598643120563404 2.2939264134247335 -0.739004982559553
Ni 1.2313200016211407 4.119087270676407 0.22444075741770278 1.1837171264029485 -1.6889121581227495 0.9395667128691367
Ni 4.375810037683079 5.5112471960171066 5.13481132013753 0.505297104515304 0.4778719184248157 -0.2584848278786129
Ni 4.109613011192753 0.20019796292092923 9.95487049744664 1.4055331381056182 -0.2364273338579412 -0.6372029242193865
Ni 6.806764112436976 8.065987755003125 7.258602856993797 4.257245212862675 -1.5056716927004326 -0.7826299183383554
Ni 7.3263280527704895 1.1084141970866208 0.7326059213704906 -0.03111471912693351 -1.2662107142224903 0.664368686000901
Ni 9.340952388374795 1.8089068285575767 10.643774311128443 -0.38108711079358243 2.82231099588712 -2.589529486311882
Ni 9.103372816900162 3.419809050156878 4.249862643582428 0.051352386330047045 0.6271591668301392 0.36416462400663085
Ni 2.294263315373788 3.0700308852080194 4.110505742296741 0.6266552306105272 -0.24988243092158252 -0.611894784471901
Ni 0.5285162812174304 8.93013848522596 9.468116974520656 1.733339792308505 1.0741917312765952 0.7373347939459818
Ni 8.489483445797399 0.984164197224185 5.191606817351377 -0.5204725267041617 1.9705250873783935 1.6537129845137972
Ni 1.6698892207132816 7.054031160585208 6.222547157924505 -0.6481481103769806 -0.23084932554953147 -0.24849454943512042
Ni 1.7470645731608514 3.6923655110951357 8.743109001362301 -0.24890129795523588 -1.662324380331892 -0.4190463636461751
Ni 6.91696031838824 5.6499866944832124 9.787942759438511 -0.49767404075240734 -0.6293379196490129 0.11369418179206224
Ni 2.6976980496879963 5.02253485603741 11.27756426230318 -0.11636504375600605 3.0746714560355497 -0.77809629213406
Ni 7.426475239856507 3.4910421322238 6.130012751550792 0.5036641968975714 -2.4554557124222036 -1.4295138172909316
Ni 1.4388544899387072 9.038258141153408 -0.2691885563683837 2.0012644254437792 -2.721869822450222 1.8978243172795575
Ni 6.857509803643944 5.237086970997956 4.935211292379708 -0.9598038658516179 0.06696129651189757 -1.6404108680882523
P 8.516237567979221 4.937720766002236 2.2061360156131182 -1.2070457738265599 -0.4693301995023917 -0.7326101347768028
P 5.927363717976753 2.5928878953610024 13.73221325607882 -0.23427300651909977 0.21337199470037446 0.6319720148377503
P 3.5925705958881586 6.719400686435067 6.889633290887345 1.1071998107714995 -0.7960652179076548 1.315123123652477
P 6.868967910025348 7.301316749358652 4.609578583645256 0.9277003004488538 0.011204610466567799 1.9827558251166302
P 6.256209517060555 8.787468374214777 10.841473924801969 0.17455605027444132 0.012219681994643471 0.3797131132641912
P 2.2568112524442765 6.624760065037201 12.97808723102403 1.1078459289959308 0.37237158529745545 0.3501927352075711
P 3.3268556256533612 1.9011000874273762 12.70720128041743 -0.5138300816869796 0.6847945579554207 1.2661559497251547
P 0.2723784709362166 0.164738090170515 11.713953103870317 -1.9606003720655139 -1.8916822089375618 -0.5493457580950862
Ni 8.636529144358763 1.730906418288045 7.7342848455740585 -0.11354017271270123 -1.3223206698421806 -0.4880491160681336
Ni 5.025519896696643 7.634667920369122 3.6715657107003477 -0.9280990785491694 -0.19014644851353057 0.6649412706749194
Ni 4.5138728033289235 0.8456647998545831 3.159494037015259 0.676219671802216 0.3220970054126195 1.2994987868516588
Ni 4.856234718192731 8.381150572680005 7.808433440955667 -3.5435056897381294 0.27988977591695025 -0.005248392883132897
Ni 4.1258453285664105 2.807124819692935 1.8290122825381518 0.08531357376684018 0.8466133631688517 -0.44092876554156313
Ni 2.9183314897182853 7.486268756167236 10.434433038883904 0.13226963080140447 -0.4548908841486102 -1.0322112730797515
Ni 9.227900926140787 6.270272581284335 0.45698933024088834 -0.10024962625138219 -0.49103236706617365 0.6207854020933116
Ni 8.069464122230492 7.97164378360866 12.971534047042626 -0.4605920482984454 2.285525848065864 0.4099202329751908
Ni 2.4629737344961087 0.7563824191431665 1.6442975957322896 -0.49727886219651773 1.4403466462403776 -0.1185157715504217
Ni 0.1488311607693396 8.307516479648047 4.599402561497304 1.8441646229725723 1.2371546773967983 0.6584047551079822
Ni 0.22452697132494148 1.569584438312957 -0.17714825765658843 -0.27873895014195865 2.610744172716285 0.7287884470378674
Ni 5.174382576528844 0.9136161912588697 12.31025483789638 0.421405607906971 -0.022129484909187695 0.7323013452871323
Ni 4.891165256093324 6.416901115778414 12.028908266544814 0.3424388022937651 -1.2299303917342173 0.5506423654193227
Ni 7.951684800567265 3.95632839224734 13.261401889741915 -0.05359001741131416 -1.8474340377524632 1.2345336948341836
Ni 3.730281089654963 3.1364434047196577 10.18529709571424 0.45147440226789337 -0.9813880197802971 0.06276988413836931
Ni 2.5691929763392625 4.57533497590879 6.2124527145274895 -1.2303852198834488 -0.5572801824508145 0.4533425658248838
Ni 4.2335107391761495 4.259402722285586 8.077311441851737 0.025506628911536718 0.10275748027490045 -0.1205536279160569
Ni 0.11134479768318495 8.512677767938397 7.2596198102867096 -0.9668607726983992 -0.4638856314480527 -0.493984250605646
Ni 0.13279537402293648 1.0619143090533463 3.059267125240827 0.7567324817463031 -0.32993398495853504 -0.8417470362154856
Ni 8.162862521739113 7.570285599318266 10.181741930829718 -0.8144889718304811 -0.6069176429722838 0.7020016658623265
Ni 2.625380341046135 5.82667885275957 8.83302454442473 -0.11411661404146153 1.0894859384315043 -0.8839722634332842
Ni 7.539971677095617 1.1860252542266871 11.980823155055862 -0.20474980024900222 -0.31053089784157484 -0.21265774224216924
Ni 5.753545356608354 4.819598442772576 0.4040428668211827 -0.14659118963039913 0.8493685573164855 0.4897979804384403
Ni 7.067565816990428 8.748125167513578 3.107257679541197 1.0072402049567104 1.9078577902561595 -1.0559340706179878
P 6.811482701553592 1.7059043851888143 3.8574475298633453 0.14484129681882799 0.6464087590883706 -0.38590767211067734
P 0.296116033395946 5.006080051161202 12.275060096086507 -0.5305013716950734 0.4194091463022325 -3.406457149490843
P 5.250223003961104 3.777059087066427 6.301391166641211 0.2823978870507846 0.26419293400698374 0.45813227390404326
P 1.0934148312896035 5.585743428121452 4.601003544484414 0.06922592417635819 -0.24917203511811925 -0.0005594720478958107
P 3.5265845107564107 8.36803308034207 2.328370649514941 0.1090253155614832 -0.5163538765500978 -1.64813214799191
P 7.5278831894569835 3.6342313807409368 9.971409662167565 0.39103599447617815 -1.664047790780902 0.703962389133123
P 9.132240570356227 6.2070954008723 8.128626330252732 0.07988623210368177 1.7112866691632076 -0.5979000128547057
P 4.690286852227092 5.154340160673992 10.094567619204977 -0.4052220561685731 -0.5454860180293638 0.28199808050920466
Ni 6.166695378533981 0.13887391799889703 5.298210777167693 -0.8857908046992616 -0.14243525848049662 0.606230129986956
Ni 8.619518120726175 3.9816734269130043 7.956366308433454 2.50318798550116 -0.04545504700900559 1.619570020083501
Ni 7.601063037171231 5.903974719271022 12.187301754767567 -1.3928519430935238 0.3218386095449103 -1.4577638132755601
Ni 3.70050484556348 8.357539086471721 12.342818664988581 0.3024051834106469 -0.2980728745838802 2.0092307314787075
Ni 6.3546416963144035 2.98958311241042 8.150362432220758 -0.255657899952779 -0.4221208888064408 0.5691864469700971
Ni 5.441756932720172 8.968044793473181 1.0719114141679962 -1.1056954583118312 -0.4465193722554633 0.17464655310571855
Ni 5.7512648597072 3.77380520734161 11.890283719955029 0.4216568046858286 -0.05228492544664543 -1.8190670565739964
Ni 6.529220223316522 6.344296027445756 2.24674554701634 0.23327541849252084 0.06063766828671492 0.25072343876563913
Ni 3.669959165525673 4.05571541369964 13.149886518306774 -0.25159812806110865 -0.8838393373998455 0.2516456934695924
Ni 5.054294947026643 3.111663859122978 4.364241614581659 0.24341250692652275 0.46300348595341556 -1.6686778333537453
Ni 1.6255215045794598 1.2102578513795939 6.819215069298519 1.1260447113921446 -1.5498198479725567 0.035670199708099856
Ni 0.21690862842507208 5.208590030046146 9.9736623481309 0.2239878225430078 0.014871517795193741 1.4461905066156642
Ni 8.344078592567353 2.840507215388274 1.842716585664067 1.3746364485267617 -0.2712110171960297 0.23894572940442074
Ni 7.197683924732661 5.484706291025228 7.363307329757079 -2.864833699740679 1.3232537231794113 0.2594297082903855
Ni 3.5569633251673034 8.597269370471018 5.701344226322195 0.7773923240884998 -2.31965287165656 0.43949460419819797
Ni 1.2785707849755266 7.569877705563588 1.8410062129882019 1.6472096361776405 1.217509392362045 0.09478474648206901
Ni 2.4716043955325877 8.528483650932165 8.160917610154309 0.41301918361548867 0.012384746817598024 -0.25691954027402203
Ni 7.556157642906244 0.3471426150748838 9.223553149528426 -0.0069697464496138025 -0.49696955848621505 -0.7437185859851385
Ni 1.4546418323072612 5.174104467150655 2.233272074674322 -0.44655819591319873 -0.503863714502887 2.7031244235219187
Ni 8.702746987305668 6.322408819382248 5.889397152697593 0.29555396481676843 0.5443215654076174 -0.1588306691193845
Ni 2.4108745776486202 0.6302097564461813 11.295569063447164 -1.817127159238806 0.8899333661127254 -0.9718235160203132
Ni 2.7539410362705072 6.886164339910063 3.65058977436604 -0.5145289075262172 -1.0599053965609102 1.1308372476847814
Ni 8.674555966669864 6.701249414351903 3.3766640882558288 -0.23363023072877825 -1.1435698647601016 -1.063520624715994
Ni 6.485343833750835 4.001465544327486 2.50885251158476 -0.7807406717354425 -0.5807396990253353 1.0351423306836172
P 2.4899503441804844 0.5243390783570251 4.469637652665372 -2.2287690028907936 1.2086812525474537 -1.3992359922429967
P 8.720694312511492 8.552271273079969 1.7282430574762508 -0.37621204208946823 0.5001356149190225 -1.154631779001218
P 6.210460524348392 0.8296883431088604 7.466315335313405 1.3566927195641474 0.7267683312840452 -0.22490210682716102
P 5.938849635295978 7.029956158746609 0.3375932660591191 0.4473948328818811 0.0712601809975676 -1.5453872661224999
P 3.780164641789542 4.852053807207283 3.0843952345915038 0.38280177949184396 -0.9148447846424244 -0.2258865822276174
P 0.7366366532917162 2.9944500265287353 6.479498901652553 -0.8744121305486746 2.0465592927258367 -1.116350366922516
P 1.4594067729869071 2.796056066440995 2.016929862349496 -0.32098937417073753 -0.9103399547935355 0.26995503330174153
P 2.4746635986926715 1.5068058813429939 8.979383312821964 -1.41576587157722 -0.3073219039859739 1.126191521382654
