# total energy = -381161.1763288635 ev
CRYSTAL
PRIMVEC
9.27422750181237 0.00000000000000 0.00000000000000

0.00000000000000 9.27422750181237 0.00000000000000

0.00000000000000 0.00000000000000 13.57376940218972

PRIMCOORD
 96 1
Ni 9.216959104740885 5.396079408010483 4.20237133357781 2.4221414145407896 1.557742445253743 0.44522302204154285
Ni 5.13765305985703 1.395029294428218 5.440855378183993 0.5538788700787493 -0.101882790979431 1.0509358460724483
Ni 3.087770564527492 1.1602893232058233 11.945079765510371 -0.00765031745640618 0.35410158334367403 -0.6477727293154328
Ni 9.176189600829794 7.596306404682767 5.615997308907421 0.25083579597378736 -0.9200474118892864 -1.502139511177458
Ni 5.860365783078063 7.8979784754789435 11.250089563010686 0.3394671212599509 -0.635840496654221 0.06514866878319102
Ni 1.5078595456980872 5.990631581971419 10.051891835064964 0.6926968435216329 0.06314166565549126 0.5652894259085361
Ni 3.4837522543573134 8.827497196814953 6.960303071092477 0.10561217611487618 0.7628879598247377 0.16128273020430287
Ni 4.340338450953372 8.405269443275309 12.827184926383447 -0.43121719468075415 2.3938083719240515 0.587445393180285
Ni 2.0469796621347762 8.226499434769801 13.853117588963615 2.187915202099225 0.15044758726201185 -1.7250096751762551
Ni 8.704094326241481 5.080291963021247 10.863318108470697 -0.9480793783258381 0.8339470805550928 0.9339380538284496
Ni 2.7374644449347345 6.427902132450053 7.77045321079981 2.750681604475592 -0.2573355447655181 2.0437197663945126
Ni 3.1990427455841983 6.44402073977432 12.814859478090034 -1.0091893582632814 -0.9527909248688946 1.1518624437861968
Ni 8.290204103187747 7.609754034498754 11.211919625056437 0.05355864995274647 0.4260726743653372 -1.2086812525474537
Ni 3.0310957605236974 3.793891694823834 9.577081994099313 0.02742955696586244 1.0275043545223854 3.3410896798286265
Ni 5.131077632588385 6.394023379541223 3.092918688190151 0.37153777654225045 -0.3666570514111814 0.0381086339462634
Ni 5.854736327010267 0.1485434463701495 1.3085795831663338 -0.4575370635222056 0.6647754345210165 -0.7926934732219445
Ni 4.385439019087957 5.93734187099027 10.843052994049376 -0.36995474832584674 0.9055119372772729 -0.05615315015280007
Ni 7.444682059950636 4.402791098664311 8.484800580852552 0.25539436187874726 1.3973878832906643 -0.2513759847479735
Ni 5.637459726093738 0.4532333507815843 7.787244199614877 -0.5995938556173609 2.5687068931395762 -0.2205003782150396
Ni 7.906501490514042 1.947773251002622 1.856294126189558 1.6206408845501767 -2.361896096596487 -0.8981621817804208
Ni 3.652209321928076 1.1359815730349927 0.7572276881335714 -0.5975313166613774 0.32842320474096337 -0.213481009474413
Ni 7.136935370168616 8.595279815461488 13.190432302972914 0.6782415873282513 -0.743377914816268 -0.7004093816745421
Ni 4.938711606627541 3.2500695450652786 8.134000144936214 2.189286371415139 -1.2450163395330622 0.37964883568515906
Ni 1.8253256258574564 8.868841702828522 2.4063578310282234 -0.281222892906077 1.1817124372680938 1.0829370815693928
P 0.17954533392110447 2.19163906204497 4.2876005565060495 -0.915481904005791 0.9760126144009964 0.3030921821753425
Ni 4.793134058198877 2.8483471084381495 12.678416116286035 0.24526190143043566 -1.1829080002380918 1.6944991652922237
P 1.4077442602749215 1.1925636347641946 10.315521952245833 1.3283126257595577 -0.6823617801442119 -0.4676754375077881
Ni 2.7474806105907805 4.698184517470541 3.653285132313355 0.18600465843101513 -1.519332478016977 -0.4404114595855125
P 6.9590742359541204 2.765593176818798 9.440923351078316 -0.5147276538005845 -2.7557649325357705 1.937261697339573
P 8.39991821403129 1.0342896689437453 12.960424970023 -1.351769057010285 1.2153573790160488 -0.020315314518584367
P 1.2258488371156295 5.050159998005975 12.301269455003313 0.1570784623149682 0.6936877466799923 -0.985858911067457
Ni 7.578601904462959 8.52164244943463 7.0061687629924565 0.8104615958386429 -0.7198921729895021 2.2458406136611
Ni 0.8596160867070123 1.7518551959248656 8.248874435938113 -0.2403441524138441 -0.4901008563908399 1.5118703653119767
Ni 7.441751404073497 7.47997976966074 1.5899633539725426 -0.29156875491677525 -0.6922839243539303 2.2223296750233534
Ni 4.431049669732805 5.158288215953977 6.555152879996391 -1.0576533673019397 -1.8159531935353628 -0.6751650052854566
Ni 7.547069531101331 3.2761115757709987 4.361333447075739 1.0434649916166998 -1.2103820372886445 -0.29972198015152896
Ni 3.3309037116005555 1.560592803031679 8.8220402413779 -0.700221434033452 -1.1019280208495992 -0.08541436101076258
Ni 0.80441959456023 9.227809950868268 12.176322425557865 0.4327338884355967 -0.2840158822701818 -0.4206749003885335
Ni 4.399146327272806 1.6430499593723333 3.119998504948567 -1.7622065959415263 0.5752853607789834 -3.0613158606642505
Ni 0.08877846977691504 0.3522360863270388 6.56271415764396 2.4639264688973763 0.8852871255899657 0.25410341098146566
Ni 5.137142977346768 3.5923720063606592 3.8633797714854 3.19606763445756 3.782854825228556 -0.8945343552198466
Ni 9.357973733259573 6.879204589074611 13.111989959699393 -0.5270429808328279 -1.144252492649423 -1.605225835546687
Ni 3.634996355763611 2.8547741480674462 4.986513757221022 -4.011486831411794 1.1617786744586442 3.795750450244301
Ni 2.663474658264422 6.8786574096545126 3.3911620770946245 -0.806762549720501 0.19580750345404987 0.5776492330254697
Ni 2.377976840157267 8.340294205695438 8.941965276654136 0.2501878779771433 0.7493516159011997 0.013305201749338375
Ni 4.295367722003215 7.114834886133099 5.469590644543894 -1.7344224838497226 -0.8334266892752485 -1.6712790184220183
Ni 7.367585407081458 3.041121200407203 11.69796982970276 -0.10825886970910388 -2.531277287538208 -1.248849340125907
Ni 7.0062893279494265 7.046873347311333 4.707124872741309 0.3050693605063714 -1.253405849148338 -0.5935571625049778
Ni 3.8719621415762386 8.192045679758493 1.8320104890101216 1.9414993895700046 -0.072578642698675 -0.20819122183038336
Ni 8.82673671016329 2.9161880823029445 6.671317216037879 -0.15283228544410452 -0.2592510166206761 0.11135962012161467
Ni 1.3059225169992437 3.871118186877442 5.451986305980647 0.49313912899653134 -0.7258514758967305 -0.5109324484242103
Ni 0.8826375015292378 1.7836008765180564 0.4620457217134131 -0.014184776140814282 -0.04433224625847204 -0.025129962298408335
Ni 3.2642498388505516 4.2494973929895075 12.017740555385766 0.21645757560423365 -0.2745524228644368 -2.8679293079468673
Ni 7.003942948402224 9.1128373530553 9.476283198112398 0.9280728532969243 -0.5999851775185087 -0.3500880913089067
Ni 7.674228463795822 6.862000897137605 8.729834017132028 -0.13865110884771603 -0.4384695053677932 2.3866249668017345
Ni 6.2277457554233955 6.530122667506481 7.178623950020924 1.8194640349020987 -2.2450021769202047 -4.415089092588757
P 6.778931641784637 6.05533786695497 10.720576618799086 0.24816827644395326 1.0006720648208896 -2.2753841316461716
Ni 6.490911233808552 2.9704515871673207 6.343809929808323 -0.5059658484475543 -0.09648578833357577 1.6191463022825212
P 4.310735116903279 9.1314321791112 4.1720742873137615 -1.5290700170197151 -2.8186726278035845 0.3377262273094441
Ni 8.674797041697545 4.1270404936168825 13.164262287928256 1.0211071927467898 -0.2173528337249934 1.1475483897918752
P 6.253138590206965 2.943426488350915 2.131855536996817 -2.6164684767945716 1.275343529761694 0.1600596564304792
P 9.402768251888002 7.529578338113088 3.21661647919683 0.4445928446567118 -2.0976723093515677 0.3051480362631067
P 2.212645187240289 2.43680326493162 1.967558887864297 1.0020375777098485 0.23004637003226186 0.9728900096116149
Ni 7.434350570560974 5.0597588234263515 3.147458565032814 -3.0096158611867976 1.696351130899298 -3.328419026339494
Ni 9.301957399405389 8.703398759182033 0.9138740270349132 -1.6719565041050175 1.788118687821598 0.7466771543928302
Ni 9.053741975684629 0.284515677419215 3.2727172085208944 -1.183366427931749 0.9131074902363435 0.7212510010102416
Ni 4.875971457865362 0.196693380493354 9.997529095966774 -2.112968830499322 0.2354289745004139 0.3827123051018312
Ni 5.820866848328895 8.559564765515717 5.874659222438339 -0.775165234530194 1.008797007920869 -1.1096269321557535
Ni 2.3991035303095574 4.115113837104221 0.4186377000901497 -0.7460523763246377 -0.2848458343706449 2.804396577500544
Ni 0.9376336703628991 2.808773979869308 11.73514835274161 0.2813401352102316 0.12187954581633202 0.44448331566204097
Ni 2.1852398450980517 1.4089777325270085 4.083804045201616 -0.8247235050742957 -0.0011953058596818123 -0.5724000688113884
Ni 8.180230313975343 5.2636990852564045 6.497641540675767 1.1837654631423808 0.6018769952245828 -1.209893527688
Ni 0.043019431492718606 3.720736588624859 2.2142347898268135 1.177659607354959 0.3024344939866856 0.020303230333726323
Ni 6.060503611649802 4.786085645329807 12.070270707137999 -0.8357995603827992 -0.4363773987254549 1.338220886012205
Ni 0.4793792528348487 6.573349841694287 7.819807867069978 -0.7269297965625738 1.435536626446244 0.14831639985162198
Ni 1.7572156993963421 6.193950470561699 5.914172995951442 0.27870809690402326 -0.6270069575229911 -3.037144919845002
Ni 5.539969047041554 6.645651718967007 13.603903330945487 0.8008186734322401 0.38128817106079493 0.725438299618712
Ni 5.905197398616329 0.9256244732258488 12.147288529073773 0.08698196260819857 0.1580775930034439 -0.21523861559546806
Ni 5.003742489572168 5.427936379333185 8.799820119808158 0.1731627694713405 -1.5457662467284734 0.5020698558272579
Ni 5.146166800664669 4.472097400467676 0.6718639889071714 -0.20708873279482395 -0.6779695646137872 1.8789146248592479
Ni 0.39246583019999925 3.6096869890271757 9.568611842160735 0.5613034446775946 -0.22803139648476214 -1.539670932464013
Ni 6.236853046788431 0.4856449209063532 3.5030231715949967 2.689005467622034 -1.1430091071606252 0.060645895816831046
Ni 2.8446374174544293 3.5817530159197584 7.521999439433346 -1.64622876032161 -0.5509519262399414 -3.8047302851454083
Ni 1.0992556322961564 6.273430599887917 1.3825424745770138 0.5404775090711789 -0.6067785462912583 2.138713543563594
Ni 7.68169421690056 1.0094254651253565 5.282449718333621 -0.36640148375694964 0.19137157916988332 -0.08584553501091022
Ni 5.032891386476754 2.507676911175607 10.482628692298519 0.10115979677047739 0.5573570584353369 -0.7818043371132665
Ni 8.540561873451606 0.9787463206899852 10.691962844818903 -0.5074843419746099 1.2364990460906704 -0.4537791391416701
Ni 9.383477858772652 8.403052902912535 9.093895670892422 -0.3319996092383121 1.7317667913944306 0.7331958320769437
P 3.6194156536319837 5.9648956007718565 1.5635624106641473 -0.4333401545610279 -0.553384189830518 -0.5930123457451012
Ni 2.1734059308599822 8.49560041872891 5.018575688970575 -0.13011041836655657 0.5293531170232432 0.1098095020256754
P 7.933062877957484 5.575489338210681 0.8545152616043962 -0.49695927407357 0.1665403790588164 1.1542905936117152
Ni 2.674306955936887 8.123026879006368 11.116197541180743 0.2923565409253933 -0.4000335699890981 0.6376564668170374
P 2.109079889202263 1.3156790042864295 6.675199407652343 1.8253446620525917 -0.20401883562024864 -1.1282687156266569
P 0.9783382546817759 4.62553021955437 7.584981645532212 -0.4522164226402406 -1.6465282938398997 0.10898597768311553
P 6.278522150763075 4.91267885014928 5.560875010580312 0.06892073423111356 1.002988628769208 -1.6142660913720845
Ni 5.075042750279282 7.576747058971098 8.399842165366126 -2.953928852037138 3.18180289700843 2.7143061511703515
