# total energy = -340863.31101430836 ev
CRYSTAL
PRIMVEC
9.37881379911313 0.00000000000000 0.00000000000000
0.00000000000000 9.37881379911313 0.00000000000000
0.00000000000000 0.00000000000000 13.72684202002982
PRIMCOORD
 96 1
Ni 4.385636365900464 8.379454039643935 3.6401247964005474 0.8528148639938732 0.897962407064789 -0.6417221522459786
Ni 3.9665253264189415 6.033231293458768 1.903336414446709 -0.3908632163437397 1.110051678397998 0.6257617722619804
Ni 2.3979937967801495 4.738589254857166 5.310036610714425 1.0555000684043627 0.680204624591893 0.7705174513455375
Ni 1.7437465236995662 2.4882086039673124 5.461786751245563 -0.3064580133237819 -1.0068224006930016 0.23756376145522956
Ni 8.011298093981713 0.9334836257018667 5.472644603650239 0.40547710960217265 0.7543644957347588 -0.8517614830286944
Ni 7.526329026007805 6.928692271295214 13.350684763705548 -0.4869790229324065 -0.20393630320877137 0.9511515894932586
Ni 4.535781791439428 0.5102393431049083 9.646619906176142 -0.11879370780215669 -1.2111898779019203 -0.925441072101032
Ni 1.4570080581487665 7.4717630889857745 7.019357261531029 0.14951581947636186 0.5975953371300934 -0.5251241665435601
Ni 6.543579430800434 2.318339533609281 0.15252295476465755 -0.548385708174662 0.33585060755328605 0.46676809520217033
Ni 6.432890673713117 5.135547536819602 0.5829485948689672 -1.7835560081515798 -0.1906347010038588 -0.7878975944951979
Ni 8.413996209814464 0.9645640758045324 12.442530499659817 -0.3422020036926106 -0.5546589427778834 -1.3372325539570065
Ni 4.975235477431912 6.317615676817658 9.003887940327537 3.010530659691583 -1.073629688125538 2.1399723556713597
Ni 6.976871236314495 5.80231552594082 11.357863213763032 -0.2088525095634661 0.20362031463024935 -0.578689501364526
Ni 0.11109579759380629 6.73871502476406 1.2068872941990527 -0.3586218398115308 0.4502402727504762 0.8623318023453729
Ni 8.559808623510152 7.947728495986642 11.602132535961621 0.9633576446411473 0.9537391477147767 0.305034650613694
Ni 8.703820305011233 3.7726558722796497 9.191301019244078 0.6184711521378381 -0.6015070134796738 0.671175167399773
Ni 3.6066321154621876 7.82574764742897 10.935515545737971 -0.4927560346254998 -0.7153269222163229 0.7708866617594982
Ni 7.158285626107747 4.10087683000103 5.14506703253589 -1.2000261479756174 0.7996938157991776 0.0822318495177229
Ni 5.593027302385195 3.981643973802839 10.211150387067134 2.0968197315432855 1.392338493792215 1.7854578531599832
Ni 6.743001142539767 9.176897037449915 0.13352429223019074 -0.3709423090500966 1.578341095340701 -0.04562088316290853
Ni 0.671037225032601 7.99396604660861 9.46738890416885 0.40888819216625066 0.1459000771006455 -0.5866588927232478
Ni 8.917610359053377 5.070214721883977 3.2377774481932047 -0.5562324579125905 -0.7991582550106817 -1.1040759204305375
Ni 6.626450627006461 6.351004252926017 6.781581829809246 0.17812139902819646 0.3313465490353455 0.7215549054039057
Ni 3.1139161475260595 7.470665767804685 8.844849523814993 -2.1264830629356735 2.6245052310561188 -0.3740952528567815
P 2.372417772328606 0.4552973156609827 9.177065856093161 -1.0165064607499847 -0.28746784537452424 0.7879986388494364
P 3.0065005963549836 8.250279641121343 1.684009108906145 -0.04348532487714446 -0.8058960879551477 0.4241191501833922
P 7.780757479004308 2.106565924472558 7.484670212143168 0.8126948560445358 0.0057620992947578185 0.7397233487828163
P 1.2669932963635575 5.332455726537295 6.964834467051161 -0.451707601324622 -0.2070717635139595 0.8653356221687032
P 2.2284811213356344 1.0371936076537258 12.893746155679686 -2.161321510771097 1.5234074194172988 -0.1468189893704891
P 5.198432481428182 7.650738987265496 13.284960852246407 0.10725228282146045 -1.4428573284773731 -0.2426460610741434
P 1.4439246132973171 6.11912246761617 3.7122047297778447 -0.002977080350452937 0.8066885019494558 0.23251668594962535
P 1.0154910331832927 3.572240006307876 10.848473591162454 -0.8509986367207409 0.4992598971822886 0.0711881901090516
Ni 8.799381035901138 1.8643768231112816 0.6790082786377959 -0.17787148780091946 -0.6915416468712672 2.0110083922044204
Ni 9.282014779310163 5.830611406311302 10.806675970857816 0.013892955932008332 -1.0406367781392853 0.2532024964337511
Ni 1.35294074340204 3.0334740640200506 13.175036468460446 -0.872727029536768 -2.064218914789129 0.1947816332926968
Ni 5.645886295347755 1.560718977981977 11.490258296846187 -0.44111002831443386 -0.31130402856217354 1.3788216902527028
Ni 2.9666406389222524 1.454203792908205 7.302212898287205 0.8478606053123914 0.42887414836987425 0.16692758719490608
Ni 1.6337517988122545 9.063319605800416 11.31857723971733 -0.02941984792301385 1.615148751087354 0.1757953219981811
Ni 6.719460320620671 8.539306537169457 3.718257816019512 1.1567040881492145 0.37502882041464447 -0.3049575175188554
Ni 5.8258188326058615 7.775411555301566 1.7582986907472427 -0.785050611964706 -0.950660251679137 -0.7805470676673976
Ni 4.615623630880567 3.827231188115194 1.0078182258478297 -0.20976293719287745 0.9799872827780284 1.4618338695798758
Ni 0.9096192347165527 2.1154851761239764 8.2018840255099 -0.24000939478224473 -0.49161780725599846 -0.23897478287014326
Ni 0.2620055964341274 8.350698597411286 4.389665504185899 0.6803732889592734 0.6129394236863315 0.5300848529829452
Ni 7.623924959430159 7.64656541525195 9.391671866910986 -1.2782959275217984 1.085024303115725 0.44035052444059
Ni 3.2109493521375985 1.9374565380091273 10.942105100112617 -1.217953421877999 0.2503465150421947 0.11567830210162659
Ni 0.8496529768734001 1.8894276340060643 3.2719847947212997 -1.5306142215783833 -2.461925379306947 -0.13970243293036586
Ni 9.285522455564244 8.999384234078313 2.1325330454476172 0.03913064745287455 1.0574381659673402 0.42919322227218987
Ni 0.3670173577016718 5.178033562036137 13.229985061073831 -0.7234935171875152 0.9211606995581231 -2.435728666306921
Ni 2.708385630012207 4.422138708095332 12.192880552148484 0.7493305328552773 0.9321729915082269 -1.6048882497016104
Ni 6.020738713858675 0.9461534648773672 7.699165552961534 -0.5062242443152636 -0.04292739549114542 -0.16259116460308126
Ni 3.7683885121309686 6.605854752530631 4.712781573711837 -0.3710294694472642 -1.1751252709688795 0.3156903305553273
Ni 6.981673188833449 2.1147067346023487 9.856874147523666 1.1394915809256698 0.5703786675059855 -2.360530326597212
Ni 8.332822578854394 4.191316728712519 1.1283106567008958 1.3872135138608237 -0.17079915433517037 -0.8055443610426837
Ni 4.5533107938963155 2.714547510490632 8.7409782262707 0.12845694192353363 -1.252243710519437 -0.6068438523115549
Ni 2.9857827973034774 3.9601008391621364 7.689584157076056 -0.9974751551501467 0.27445163562051444 -0.8693316307019738
Ni 5.5500160636119 8.308540830667727 5.9661380752266435 0.00281252974813064 0.7536859816104955 -1.5272612459457504
P 8.865867444898935 8.676874973786706 0.11246229072273545 -0.11161287378300133 0.019956131406952727 -0.7377047756908908
P 1.2819149886636696 0.23017108972496972 6.1108194040125925 -1.7001301383257559 0.45834104748073967 -0.232597932809522
P 1.3802143330995418 7.057247668125909 11.881898791546421 0.33228911545427287 -1.4662656800989844 0.06167587974324216
P 5.137291996133128 8.312648750986677 7.99340050415374 -0.5885705079236637 -0.5930419134314561 1.3204669044628936
P 5.371527863634885 3.4417431950798703 12.363629355214089 0.45138441365724835 2.238363331447448 0.43379395426899486
P 8.767971389444146 2.897734496037952 4.529308534352352 0.356706882177005 0.0352883908886489 -0.30734195859063196
P 7.43440727476117 6.356322040188219 2.033137317712007 1.2387901561176924 -0.28227164588556547 0.06291438013603359
P 3.677573460878936 4.582497661550589 9.72441059910186 -1.539029442225272 0.6807473844692405 0.004807705801288494
Ni 1.8166761775811944 5.066828970205573 1.2136231580645087 0.7359674812848099 -0.5014944429397621 1.126579243739376
Ni 2.496827733586296 0.18736430908627025 3.4681136050360135 -2.3879264592219775 -1.3569868537657985 0.1580256567195859
Ni 3.286045511940864 2.1015388804292767 2.6349082534213855 0.7347642050053281 1.965309604615725 0.06080041911682432
Ni 4.581053324269497 5.875273316262989 11.63572181867917 0.7320254659179264 -0.620188649049577 0.33477023000491374
Ni 3.8130879373367095 6.215958717143922 7.128829586505635 -0.8527811825424604 -0.19959679529315305 -2.2740386733618707
Ni 3.8644088048830407 9.27965131830474 12.73251028316091 1.59474241951686 -0.4887960215364872 0.4177399861299258
Ni 8.909572715872235 6.2300456950413245 5.101662821476375 0.2817191158162052 -0.6858289127572059 2.3182886443191815
Ni 1.7305692907129806 3.898678989461676 3.3459592484283407 0.6650256028586095 0.9942882727817327 0.08128079845836324
Ni 3.855620856620812 2.339198014863492 13.398825275589422 -0.25544398416976005 -1.3888803600402855 -0.44265731819689574
Ni 7.9146587995377455 3.590538071472878 12.048611891157131 0.13764657884260167 -0.25073423739891654 0.0878723356329519
Ni 6.052692331499454 1.472755086038074 4.155430574565494 -1.1378129076716663 0.15315290200831685 0.31204964847894645
Ni 1.4993627799761116 5.390951386421518 9.225961362464878 1.1136800191792045 -0.33173838515712545 -0.7156557663106514
Ni 9.093838264973616 3.6292444348434385 6.681155370468493 0.5313590917096784 0.7130846631493656 -0.7204711854214237
Ni 5.800636718321888 8.611345203767296 11.33731423335477 1.119283224298595 -1.4131762564731727 0.17747296681092015
Ni 0.07990842901708586 1.493060217294983 10.364356119455579 0.49132213039245065 0.4232804563321807 -0.3362995221652466
Ni 3.085057538344762 6.434175571164478 13.59794686529632 -0.27353015224750954 1.6851598901691687 -1.8407833652051655
Ni 8.137490029806985 9.06540170240043 7.374127764546664 0.5736606806913669 -0.7627488631437122 0.7638757776593038
Ni 4.418012030149355 0.4437398037681933 1.4805910847286732 1.235906406811994 0.3522704436722062 -0.661781384889699
Ni 4.910343466731427 2.689506078409363 6.2476487901249715 -0.31193831971206276 0.5479229096056305 -0.6405906097446968
Ni 6.5069739216569165 4.018859105824739 7.597504841762393 0.2996219642385549 -0.04542599354328306 0.8793044256439696
Ni 8.80982903415527 6.590679832265652 7.726838680114715 1.0979685219812187 -0.7339969878220005 -0.9615571010972989
Ni 5.762314886305385 5.813148055549009 3.3067820686193983 0.6368357706879549 -0.7294101397822664 1.223355566730177
Ni 3.212825114840315 8.855700811050209 6.105822372172555 1.5855203866979597 -1.460464500036175 -0.49483837107582523
Ni 6.89594145450578 3.4142351350445286 2.791819555029049 -0.42319638125880665 -0.4794482617730001 -0.08745350292797842
P 3.93789180876197 4.236410064085831 3.1130964392249725 0.33896241370939045 -0.06626195645202783 -0.3348098249935976
P 7.602972690040812 5.551619840722723 9.114115259789985 -2.075092110058207 -0.7621240850755198 0.5697950270883736
P 0.8701344298243646 3.1440877905992592 1.5379556597031578 -0.1959586843199335 0.175931076245097 -0.3078914033361988
P 7.676643270190014 7.936586465532504 5.4988902753866515 0.7053387006553594 0.2687245033287501 0.693279198387664
P 3.8225792966124565 1.2424020473309407 4.797229348469497 0.8595275001273585 0.43499337389373477 0.43955065424711404
P 6.873244725802907 1.152468604549185 2.187166509926946 0.1075782987023115 -0.2751561178867068 -0.9632314034759283
P 5.161020394322496 5.119528523338401 5.872782303393781 -0.09780502136563156 -1.4115351213253238 -0.7705488188041052
P 7.581757813873086 0.2170773281786553 10.436064651817738 0.38767736241659034 -0.6355946991920022 0.3025825895287757
