# total energy = -381172.0411932047 ev
CRYSTAL
PRIMVEC
9.23883112775353 0.00000000000000 0.00000000000000
0.00000000000000 9.23883112775353 0.00000000000000
0.00000000000000 0.00000000000000 13.52196323083112
PRIMCOORD
 96 1
Ni 7.545279632487121 7.597192625702367 12.610285977564999 0.979228807345449 0.8707207977400164 -0.862530034399108
Ni 3.4829470212164684 8.058524429085542 7.369145932691421 0.8444330676880811 -0.5327390027763406 0.6006888884537526
Ni 4.7067872903469015 0.8749228697774802 5.794431479733397 -1.2746328768479145 -2.3084724295597083 1.2198562953276668
Ni 1.161847710939599 7.062753950044368 4.433499888103634 0.4912046309779799 0.4997936581985714 0.6503086083634091
Ni 7.8878554980185855 7.209595935124117 3.848202369884573 0.4700843040595969 -0.08570206745451048 0.21755492243347047
Ni 3.370510443991066 6.222491479865805 13.023624823864129 0.8866960901223504 3.069455973272882 1.0675626559958518
Ni 0.649956403130293 3.9051061797815905 0.953663581394297 -0.7483565989777822 2.1376485926341897 1.3320713214710413
Ni 5.205471688777101 7.907349432114362 3.1933872653604563 0.6168313025415699 0.7090696284527014 -0.31494162531476083
Ni 8.38616110436446 7.3467741026379025 1.4704865773648945 -0.4229657533052393 1.0981235595018444 -0.6181482215807806
Ni 1.4410359547501521 8.597970551321698 2.2405625698504705 -0.6988808608451577 -0.9846962582179235 -0.5982861925495309
Ni 8.228971628200698 4.697603892009838 3.9576215447992262 0.6533692495666038 -0.43098039607959976 0.8987751327740715
Ni 0.829781939923469 6.860063229604918 13.244492944935542 -0.0933654975370392 -0.24207861860644758 0.5533597643504856
Ni 7.952555033787648 3.1010229730717755 12.970307528287483 -0.029503922996387898 0.25420805488012993 0.7463318552382694
Ni 2.3467278283724538 4.799683739319902 4.312654126606205 0.6036073476521282 1.138544386521052 -0.7766217644710626
Ni 4.311513130937565 5.828981937239546 3.211642272175548 0.03603915301174439 -1.152469995463209 -0.18129979675617808
Ni 1.75318834872835 3.217515397248859 10.757803289171077 0.4550176395344615 -1.3549572249302795 -0.1290567802910616
Ni 4.563012597267056 4.5601485595563025 5.4678489551086615 0.8393129728526965 0.4095091135797012 -0.9052933935085634
Ni 5.708202695327658 7.367829399227606 9.212837873079593 0.25866763331338033 0.6561650671441861 0.07865467368942583
Ni 2.359773058203372 5.456287481588542 11.174645500308655 -0.032443979461318315 0.030367299437947703 -1.0201785102849332
Ni 1.4661655759541863 1.0605993584487867 3.7458545964660845 -1.2972025346183145 -0.22408501024250438 -0.04227664928102396
Ni 8.25184697456143 2.2112126504971705 3.63563718652495 -2.3049677588405597 -0.15230803750951832 1.662210994682479
Ni 6.46671998594251 2.4861417930668925 1.5246686275535628 -0.19935691136820508 -1.6163851945976162 -0.7839375814061854
Ni 2.588036863750456 5.583090441524338 6.596716809867363 -0.49192685385598506 0.1033280080663898 0.6997684056564336
Ni 3.8908876183723957 0.18216203723527177 2.011270482376912 -1.2175070783692 -0.1969786409440156 -1.0627996873895695
P 2.6592405367723275 8.863503802433883 4.615870722926851 0.7994397908068426 -0.8595370132090553 1.1870199655239362
Ni 6.032596540811498 3.287675082331004 7.275005937022073 -0.533831721619887 0.07712949529415104 -0.006701580389891685
P 6.059241330352833 7.109844273307957 5.014579879822826 0.9523507520076824 -1.1347388967320329 0.5204660989462585
Ni 0.48543683819326516 5.799288333360956 2.546862164184273 0.007745448273373757 0.04718334255402197 -0.008817341181313847
P 7.9011963704519035 3.9831650656466207 1.8656119915898972 0.4550814028928614 0.4864660878517299 0.32137349698303364
P 4.126145219232514 2.7191543579150337 0.6954059099505596 0.18517650610276495 -0.8098537870513149 -0.32738345062253943
P 5.856532132250734 2.4170445735871247 5.161685171595338 1.2710130207071402 1.3470315423252994 1.4027362920867712
Ni 6.957726915541626 1.0887131221708 6.868427143603452 0.15990230491700846 -0.2719900614538993 0.7157958914329415
Ni 6.612333206456032 5.74294993994103 2.510379867048063 1.6171387849341894 1.6375618286752314 0.3266450297946181
Ni 7.4730504491881735 4.112896735112447 10.844222393502111 -0.8291154634944043 -0.8799803686650716 0.6812914298981686
Ni -0.05851136654756926 5.533995291863222 6.382542222090924 1.9177935613126325 0.32831033331218296 0.007541559792683787
Ni 5.833176366661102 7.976502084582081 7.024227099535933 0.9043680534808167 -0.23160368721705277 -1.4661314685139653
Ni 1.9097588231933371 8.903249254794087 9.173029596666378 -0.21857976415355904 -0.3486235909482383 -0.2447880471178107
Ni 3.069998977482384 1.7779853720046837 12.273399384363476 2.089511885027963 0.3457719804320561 0.6095589372498728
Ni 5.109064483900596 5.513900833731319 7.705247225230315 -0.01599560409730794 0.9097558001552912 -1.0763288322242561
Ni 3.8994889703359825 0.15308928282172238 10.63336085063882 0.08939108627032347 -0.5772985345542703 0.17310414831926316
Ni 5.9569212734283195 3.7471591194491762 3.5142093786540456 0.3415540856959666 0.17759380865950058 0.8849585386059533
Ni 3.4834089627827187 6.694392506284794 9.422293265815217 0.6286365227066142 1.0908753625798633 0.31643569336178407
Ni 5.406896689325024 5.011641007578339 9.951462112085428 -0.42696279027977435 -0.38748478678981013 0.19055139726143314
Ni 3.154127775527948 2.2354276274000284 4.789533959226244 -1.1147891930829834 0.6201819641813576 -0.49203869684350104
Ni 1.1964471342517708 3.5660318313223063 7.976268342149558 -0.34048244989834264 0.5925834857377987 -1.7098607353499586
Ni 0.13614157063911944 1.091752697676729 5.732758585106408 -0.2848918571172319 -0.38885492766445934 0.13075216571561354
Ni 8.454149664085227 7.056591649550584 8.250547994877131 -0.5632924500831654 -0.26038770132828054 0.42270890009942685
Ni 2.730518120444799 4.15929414602666 13.191878724422729 0.037740451973567256 -2.1819564134126295 -0.30379589311058647
Ni 5.320227212665082 4.52486546272608 1.301263523400303 -1.7342409639665357 -0.10272328460285536 -1.5849485733548898
Ni 8.941368672841088 1.4971248997243032 1.5993239279584592 -0.2921606228645033 -0.9017884656790985 -1.22943211194156
Ni 5.345162818411291 6.89493981785684 11.454509102689064 -0.6958582719687499 1.2163791354123439 1.064048472195006
Ni 4.87576551528138 8.938948099033935 13.085569340132075 0.39473786880779754 0.2619388478654844 -0.4228557100899363
Ni 6.254051327672047 0.10274504316546419 10.79586819811326 0.06669672999660126 -0.29655155284334733 -0.29070332159268647
Ni 0.9601178289579507 2.455127036308826 12.959544289793845 -0.27320902146266496 -3.1198989604147815 -1.435628929049734
Ni 1.2488313078645916 7.762133481347815 6.902475932568653 1.1845223959130633 0.047013906855693226 0.3377869053440505
Ni 2.450849457405345 0.802027566739999 7.0262559468949055 -0.8758995137274785 0.6770881904500985 -0.640207001153033
P 2.785831003587649 7.674789570001146 11.409710933477212 -0.42777628732000517 0.31505064008879935 -0.3203975062230095
Ni 5.099132740226207 1.4882556216522913 3.3842097830797946 0.8674989483686092 -0.5339325088638095 -0.2923537127119159
P 3.855659954530123 3.6882430920895715 10.938443690887118 1.1688468941593355 -0.48236132165473705 -0.17458227552668643
Ni 2.5786686887868937 5.23750271698092 1.7824384887033395 0.08530200380261438 0.8135939708200376 -0.46440910805169056
P 0.9980617092097771 1.9301951180842647 9.188039002036994 -0.8838084841619102 -3.0423706870203153 0.5993619421122129
P 7.269611383411399 5.202219620150697 8.453025298312973 -0.5729299731729295 -0.7120703629522381 -0.038312779537269505
P 0.4199335240989264 4.407901858151421 12.147009400187908 -0.3917397054114221 1.077028429394442 0.535437118433794
Ni 0.20259556047680194 4.6363227238310305 9.945296116059115 -0.8258203376829004 -0.7632206605738081 -1.4828832340510074
Ni 3.9723925883216564 7.054503673671132 5.225075564965646 -1.4103922659701322 0.3238168163172036 0.21508589206768763
Ni 8.033016015797182 1.6558849772133182 11.03232684704563 0.6598057492205669 0.9010554441678158 -1.1433942584141854
Ni 5.770370791313667 2.6016733787861748 9.90640710336274 -0.5120747895587697 -0.9409293975446182 0.1357719875277081
Ni 0.31952590525869035 6.595851131372211 10.945110431571246 1.1937140897146603 1.371825718550844 1.0461178558585147
Ni 2.4516439968992962 8.815277102917317 -0.026542238513628455 -0.14846783782782172 -0.30449086229508204 -0.7078542679883616
Ni 1.3409978891629166 6.249792226431217 8.810086727478925 0.31878645298214775 0.13457076813075536 -0.9753564688742365
Ni 5.180388261729693 4.828204011620216 12.51052045750185 0.3844657974578282 -1.146085946313736 -1.0595721815912076
Ni 8.512308107276182 8.035787665194686 6.100027999003366 -1.8793681674568987 0.4832843476896386 -0.6707105690585288
Ni 7.960149353136808 2.6186081566049224 8.627972732166542 0.6573017518517905 0.3117670842415211 1.5724938925313048
Ni 2.0629294077307194 1.781108096992538 1.58348949495052 1.3222443080782906 0.4112579779500079 -0.9768906461305757
Ni 1.1873653630592835 0.614097727108522 11.254992844692888 0.024287411792454947 -0.06427809325277963 0.5700169132911925
Ni 7.45512711641765 6.420895382570448 10.413264171983048 -1.154937997387727 -0.04758726286065998 -0.10551755951854086
Ni 3.3094510077640584 1.9703286013601193 9.086569841477514 -0.1380337869786913 -0.025367789340827278 -0.04427336799607859
Ni 5.9675459294520845 6.971936238119495 0.5398969772048163 -1.754753996318223 -0.07741668751726667 0.8714067680634475
Ni 3.633133463235872 3.0315377226763567 6.842668357986185 -0.658518140757395 -0.30929548277257696 1.2747123239355982
Ni 3.664388429608389 3.386290367894188 2.7896891395489742 -0.1350122265435481 -0.21477761679864946 -0.43149693070470196
Ni 8.894749529975075 0.16872600483930608 8.191551589685 0.3655329651090673 0.9016136306641311 -0.2787065542421264
Ni 8.30526589728265 3.1383293739621765 6.460578010877643 1.1650038662641615 0.20601786832814842 -1.7374155050397755
Ni 6.386157376788401 9.264792441035802 1.5254400699692015 0.3903502812630632 -0.08938645828463315 0.6003962969139982
Ni 3.159994433419331 4.461071332426868 8.645875739508153 0.9380829292347587 0.06172164537951306 1.8795589433114663
Ni 8.546833619937754 8.586329623852182 10.518491689125542 -0.5082165921549441 0.396258162107066 -0.5451947120411901
Ni 7.059520359080613 5.132327861176978 6.035717418033086 -2.29714234925887 1.2649570443210472 -0.3483893634502451
Ni 7.464966471778788 5.3599634261939615 13.502357042164833 1.2117424079712809 -0.43840934155381917 -0.014945308455922648
Ni 6.732696700958296 -0.01769328587053147 4.7694801519521715 0.11232738335152267 0.5427228534619297 -0.5270437521637762
P 0.24414997601044325 9.29537297272159 -0.0578729633030109 -0.0014848120756426042 -0.726614322204684 -0.10782075373042076
Ni 7.380856151395874 0.7591085758196534 13.004262081173168 0.9319824727639756 -1.1909378125211036 1.060455098416793
P 5.6146780058245565 0.2385198322009806 8.553426449971282 -0.23092928685784747 1.2804898498493238 0.9418380254018166
Ni 0.9877326957884132 3.2266433625979714 3.2290316004954867 0.7163427650753469 1.274437730117973 -0.009026628978642518
P 3.8955532281915275 7.317893515915913 1.2380994813974573 -0.017158256946841418 0.5512838556580635 1.4382409127512843
P 8.526988610251626 0.020646940245137968 3.5413484456712703 1.323064747097057 0.3150557822951219 -0.7238403590039727
P 1.2348252395758728 3.7922446163152372 5.72644292001263 -0.7804205693918624 -0.762398678893145 0.6350305991584161
Ni 5.828584667492571 2.3175977932046896 12.584688871495919 -2.3345701550880245 0.12944913063347382 -0.6804630204596023
