# total energy = -340889.66986347653 ev
CRYSTAL
PRIMVEC
9.07165374448991 0.00000000000000 0.00000000000000

0.00000000000000 9.07165374448991 0.00000000000000

0.00000000000000 0.00000000000000 13.27728223187426

PRIMCOORD
 96 1
Ni 6.193263312871586 2.26524634916093 11.346513241895329 1.810355387732611 -0.5954253260619681 -0.34010835438837556
Ni 4.801317846727787 0.21850801457555846 6.149293914740392 -0.5201920193492654 1.3390264126326359 -1.5690516996189752
Ni 2.8040572183767813 1.379862023466883 4.509774855690069 -0.19820428582100058 1.1049017587659422 0.7195797839554059
Ni 3.780493731869792 4.5532353340508624 4.997967711806322 -0.18114630189744932 -0.9447793674183277 -0.22910483205459897
Ni 3.5743313307619644 2.681145382919157 2.4274983178863616 0.5881686444995547 0.6058611766833113 -0.05370288884009461
Ni 5.130228793527333 4.630398820094301 2.713955739881526 0.4144836839761571 -1.5353787328465622 -1.2279524420722399
Ni 5.022648052757391 4.7280551717587285 11.239963040981312 0.9418015157369265 0.874900897259635 -0.2760927707683632
Ni 5.854509621849475 8.00504491046264 12.311970332962007 -0.5544707380264774 0.5088107740955172 -0.14909955787454965
Ni 2.1162716527342487 6.6390534454439605 0.46826424735300126 0.13929594152056657 -0.4338528325313883 -1.0368870812888658
Ni 2.8360166542257152 1.8398220790582849 -0.035006604313781456 0.2524265374996749 -0.5689015687398267 1.063042656638311
Ni 7.992961467785723 8.89696989844652 6.929719207572625 -0.24502073195390703 0.2569480795191123 0.07161242213066377
Ni 8.69825532499466 2.746688080622407 1.4398682909406113 0.5353437873890393 0.2081691103431963 -0.4864977124206138
Ni 7.130809647118393 0.5861122857368599 4.66987230667093 -1.9989802573952926 0.5696531021938706 0.3678749829786826
Ni 0.9213534324612971 7.734836634505686 2.635142120037088 0.474417384217312 -1.0728120773202492 -0.19223624116302376
Ni 7.726200420220081 4.151869089458117 3.665087782651569 0.26122690940012433 -0.9626377357559873 -0.29541821056985257
Ni 7.720158698881622 3.699619939478862 12.612236626160477 1.1585030890311658 0.39967721509094395 -0.38738451376651994
Ni 8.43797143814322 7.242409130460313 8.716004922548455 -0.7394862930713457 -0.12321266280545877 0.9577079025545379
Ni 7.055514921729191 1.0092033265178053 0.3980369476990305 0.13375264310483417 -0.5032780172027461 -0.727949753186656
Ni 1.8817784772420265 6.9178525774182145 8.908617901747693 1.1682995062962975 -0.418624445617408 -0.030670175390347176
Ni 0.17814822743621467 5.340282934055881 1.1619255230719898 0.7679077816368323 -1.3082181690025276 -0.9085101006736482
Ni 6.434034072697464 1.8658214384517127 6.989161218188618 0.6024686060619947 0.3629680325953684 0.44301393020536606
Ni 3.629949639359698 4.459579581651091 0.231943133648017 0.08546629729462055 0.8203428595080968 -0.007368524549929245
Ni 6.132691881374756 5.4548307048377405 4.7240836017857895 -0.6904772101624947 1.0338436664768518 0.8242121126555161
Ni 5.353899486201566 2.915547841874766 9.275058279744243 -0.0854405862630077 1.0974537871283292 -0.4843402997579788
P 0.12300073766350512 5.996916441025339 12.328846330268215 1.434024046456459 -0.3510591969729244 -0.011729372621786251
P 4.126876683621099 6.408179859762617 12.492089830738832 0.06262564525102118 -0.21959560701258313 -0.3665436657617687
P 2.5315810290044887 8.523009119564712 1.3498348498478165 0.8514375240303724 0.8497282546487496 0.846814166325748
P 6.458464036007477 7.797231468388446 5.685890259419142 -0.29198553073921973 -0.589554726213804 0.3328874111599041
P 4.803168464074702 1.1264998083590538 12.52549619534675 1.2973328895485916 0.7142308609386667 -0.29409229266957737
P 4.250278388376436 6.365706377320178 7.942709042328677 -0.24404448408356677 -0.3701527232692658 0.4000001456480014
P 4.830347138444105 1.1804580043367605 3.5874815999094563 -0.2483433685692368 -0.7601957577045552 0.24459084350534005
P 0.36295414149449373 5.5266600585283046 3.323994512150195 0.02526571654532423 0.8989345411700712 0.7638937753814328
Ni 0.3730572421771386 9.325024948110956 4.506907305967717 1.6599566514306638 -1.1842205484019284 0.6055598433928087
Ni 1.8691325920381052 6.338881497443568 4.698869847599434 1.0287917058752412 1.4778029913146227 -1.078556178892878
Ni 6.186577504123172 5.671280361197538 9.071198264335665 -0.19852670215742585 1.1047876017855813 0.8309597157919946
Ni 8.857118123912212 2.5046200743229576 10.231659622506713 -0.6824301714883021 0.777200519792668 -0.2713223459629133
Ni 2.6121736001319174 5.555662135283639 6.810728140827437 -0.8127264806134196 -1.0414777859833417 0.8314536247092779
Ni 0.7229264304305019 9.280755278243571 8.925188184325513 -0.27883716628271976 -0.041427671017167364 0.14608442519730971
Ni 1.6790723761791726 1.3217308668049557 11.062817231274678 0.013320371257989962 -0.9186746999114759 1.072809763327404
Ni 4.467199770726624 6.874834795756095 1.4409432818994812 -0.9220294753163217 0.19077122658172305 0.06410017291401862
Ni 5.668522578484488 7.916886580181647 7.876402511387143 1.1539859178871028 0.5491668093150607 0.99343106698776
Ni 5.250609637613441 2.642463851707163 5.134138676255375 -0.25618960408653296 0.24659784663303982 -0.9626786162962517
Ni 0.4109694971586503 7.182109848573324 6.476193675923218 1.85476091043118 1.022837030953703 0.06803216097857316
Ni 5.435208717968241 4.381345640475613 7.316194332680266 -0.6103395241696392 -0.035098643475346004 -1.3196225541847273
Ni 0.7467921368827801 7.710687892459172 10.92166683613091 0.4035734648215566 -0.8450187649882221 0.7345472038985156
Ni 4.609588446595165 0.5541356137459692 10.414408085514598 0.1379877642321043 -1.1984924849399101 -0.36178018293485437
Ni 8.10728244722605 7.029370415877183 4.505512992799967 0.625560969105084 0.23536289714916883 -0.6809916392695626
Ni 7.427933519488572 6.079323342885037 6.830431772579887 -0.977977451436851 -0.17555569518354924 -0.4794662594951291
Ni 2.4524580657701986 5.044410949890968 2.577027292351751 0.34233775793952653 1.1034382868465384 -0.47703219613233977
Ni 2.3977832091532454 5.36266270363843 11.395785021591582 1.9816613065008708 2.291308259075596 1.2505897198557816
Ni 1.0707091383417546 3.3438750411490425 3.597904022800981 0.5794551758859569 -0.3718992736467272 0.6237043755123194
Ni 1.600321350744998 1.3680053721314993 2.0306942079199084 -0.6483846518678188 -0.9012680743992544 0.8403668680385075
Ni 1.2396142578624203 3.263781410972988 8.037150399935523 0.004702547681991901 0.58041728268891 -0.12846568367428196
Ni 3.741458406165006 2.5507585048445813 7.16694385798228 -0.45086093705361063 1.2695755169296652 -1.9093652280396212
Ni 4.294774849585355 6.97113039937132 5.805040080103404 0.21781074719801843 0.30788214736481817 -0.6677108630002565
Ni 1.0077790768929735 -0.16926798566711967 13.183677326430836 -0.2652964514838076 1.3128302138532422 -0.39150804901659025
P 0.7548722587989439 5.534253032642855 7.870878781472747 -2.441325186558092 -0.997873676140146 -0.21675350957809764
P 8.568793755593541 1.6889241920553981 7.935871736964119 -0.4533268820955999 1.2708014189169663 0.3633940643891935
P 2.1494466901738036 3.687917506255721 10.228831080895104 -1.6028596493073557 -1.7491682747003297 -1.0377504577304255
P 4.091043651658768 6.163281497520827 3.613983528915723 -0.5565980687821253 1.247687201497006 0.8007340841382339
P 7.153842575764559 4.12264929301491 10.41933399345271 -0.31426568229365875 0.2984526265208021 -0.46265767257822255
P 6.555530730183917 7.940645241120721 9.992987136172708 -0.14376451881488142 0.5356476917827033 0.037626552103522296
P 2.351055121143634 8.6006534032522 5.6787200243652105 0.019584349889830786 -0.9410404692011858 -0.17811317149808034
P 6.882300766719386 4.100587031310508 1.4975576580692311 0.5153346912569641 0.7282731979643458 -1.0585298563696222
Ni 5.492323849420098 3.1094725821934337 0.0900116691240078 -0.48205973125391816 -0.2064585554099928 1.3297575857362003
Ni 1.2303702427815053 1.1420395510809456 6.67000229907502 1.4189326993409757 0.004168786665708949 0.24356471623367082
Ni 6.888297129789538 1.0923268890167506 9.251463815736438 0.3477859255382914 -1.6206280290343704 0.32743718667861027
Ni 2.8971505282495493 1.8550080272873841 9.166449720614468 -0.5994231343674515 -0.3342873768312243 0.3111114529353932
Ni 6.486558947396676 2.1956486222710563 2.530252031743101 -0.2931841790330112 -0.34199760099128845 0.4129669902213146
Ni 4.122213853639165 7.032790429307512 10.202104174878036 0.6728852081123443 0.26830412796187986 0.01891123508220614
Ni 8.201373639001567 7.618637822757461 0.05112421137390105 -0.9398963282944136 -0.5778672625735467 1.1663650082777461
Ni 7.98184869205057 4.192219804943799 8.226709860512349 0.1760341774818646 -0.9413582575519208 0.19716144637878302
Ni 3.349472251458095 8.649204893647743 12.324544552102003 -0.5987960423064139 -1.5441711343272115 0.020334083571661755
Ni 0.5411159764112004 5.335311667849462 10.211995906030372 -2.280053769207699 -1.3955503158612934 -1.198948341530406
Ni 8.568430889447088 2.441563009722918 5.723079503603843 0.4475064187590809 0.4077900740060655 -0.3218962022557231
Ni 3.8044701124967384 2.8382301377190844 11.30166207902825 -0.26784801426106775 -0.4590689267856997 0.21507355077251347
Ni 1.3786736368372463 3.428041843819043 12.351231542842962 -1.594298647111222 0.6906273625871138 -0.5988860309170589
Ni 3.14937878664971 8.691506014670617 7.905333829243919 0.10081912560160702 -0.26339203537224315 -0.5540971567371425
Ni 5.740361003828715 7.787334294243915 3.4527176489432794 0.06724257519774227 0.1864764558611111 0.8333446710844036
Ni 3.372269317109066 8.260348459453999 3.6192940749690767 -0.5540909860895554 0.2913746366280982 -0.5388998801714138
Ni 3.649399264809631 4.6352430831494615 9.017172938120865 -0.15981925828489896 -0.28339547507736357 0.33725185877618696
Ni 7.425692821034218 6.325165157107608 11.09315556261433 0.022716467760909263 -0.7754722242476516 0.4384502220940836
Ni 7.9924080969123805 8.862298038152842 2.6013121092031835 -0.7976708718318778 0.25504674873134137 -1.0870984120359342
Ni 4.663410567767952 0.6834937662953481 1.2845262008090292 -0.2773353849262127 -1.359977560963006 1.5309872886470859
Ni 6.234648196874662 5.697860306425292 13.167943450320593 -0.3255104019695427 -0.08172045709894313 1.2822292011379337
Ni 8.038219947902196 8.981018769618924 11.408929847746876 -0.8856087705954425 1.7024050504028616 -0.5592131378074692
Ni 0.19160965430429114 4.897051007816008 5.566301370697671 -0.12438868539143093 -1.0921094920972805 0.6880542025432989
Ni 7.4158319335043315 6.217176191922904 2.1785494622847787 -0.7076056423126652 -0.33992632028455655 1.013327805911687
P 8.557408830248548 1.8485490098805033 3.4736822405546577 -0.3031685439392327 0.14692234771757276 -0.7001463578211425
P 1.8922653088745462 3.589063696307996 1.1031167138815594 -0.5894336272549074 -1.1124584880672777 1.8633175417519392
P 4.7434769829830215 1.0720698863909572 8.29215367719069 1.7466899883631661 -0.27047568169190195 -0.8333181887218423
P 9.03141180570772 1.7485703148787708 12.436591267969428 -1.3506678535263061 -0.7261373825682655 0.4731148633558045
P 6.341158482512567 7.868316946478782 1.3660331946255222 1.4300321516882468 1.7938283366118652 -1.5080908436648865
P 2.0792774491032655 3.4207573059289786 5.90010556748215 -0.5697500327830509 -0.8198438083844913 -0.8478040410428432
P 6.975512008089751 3.8623019045878415 5.967381858200084 0.4534400106346965 0.7269542220426061 -0.3809359299276988
P 2.500900696321805 8.617499464101327 10.060794118629829 0.8866279558885763 1.035001691340695 0.8849945340502114
