# total energy = -340888.6041471788 ev
CRYSTAL
PRIMVEC
9.10376214134214 0.00000000000000 0.00000000000000

0.00000000000000 9.10376214134214 0.00000000000000

0.00000000000000 0.00000000000000 13.32427611623642

PRIMCOORD
 96 1
Ni 6.1368732873795535 2.218495766079551 11.168927671940915 1.3005462542795667 0.12248838304492453 0.3591633141372976
Ni 5.178920825310995 0.45028117315466637 5.76246923951334 -1.3393467720865322 0.7703433876615184 0.8320411217816316
Ni 3.012890039739125 1.9703272134785883 4.497222932044033 2.025341520997641 -2.217553593790949 1.3239504921361198
Ni 3.634950098404707 4.571627068638032 4.784933674968629 -0.25059488360757487 1.0144349229329368 -0.7577532097013336
Ni 3.8494984578745117 2.821574480938346 2.3327607246678017 1.303066706708575 0.2503866242515107 0.34554006692690814
Ni 5.243166073869506 4.8172556716360715 2.447909658547966 -1.0193917527175798 -0.15679821207038802 1.1088185773218453
Ni 5.191565950753503 4.659860730113032 11.505325334135868 -0.07235778493712054 0.1941216311111947 -0.864907276382033
Ni 5.6647430853825425 7.945936460477604 12.340518117277513 0.19519943755640576 0.2811925538887738 0.4086863605680897
Ni 1.9720114094518524 6.527060527455755 0.21229608874663994 -0.4265694114960976 0.7983154473944122 0.13178677762771496
Ni 2.8433506796845496 1.7779556182837628 0.08371273325703926 -0.11619946471241922 -1.051841388605853 1.5598489500737847
Ni 8.297596579695139 8.956627015914371 6.758805893376889 -1.351629188998311 0.4208574487129849 0.8416899577253053
Ni 8.754250386262155 2.4990008813671833 1.298400387985162 2.2439626799120966 0.27221863252493766 -0.6297850344887606
Ni 6.985416737520071 1.0779127341750463 4.530587309462494 2.4570891342605683 -0.3350602504415068 1.2336314947348883
Ni 0.5852644733426705 7.587120784314202 2.1207586874343316 0.9367593253273285 -0.8241383219947871 0.10723917019533788
Ni 8.07127705593652 3.9673466571929072 3.9037195540753946 -0.46246638250302285 -0.16978613968962372 -1.551873645177792
Ni 7.705078228776809 3.980019093921467 12.777861023852704 0.20967629101634214 -0.9830574370629198 -1.401084615415961
Ni 8.320492541169513 7.449836053088138 8.814221418553382 -0.6606835238398299 -0.41335394124708813 -0.2611814008741695
Ni 6.962639124951926 0.8856503841244326 0.4544133707344748 0.5338808296902677 -1.0206971017925646 -1.631322275523423
Ni 1.8613278708413423 6.562282982702018 8.9962183665529 1.4757450803443295 -0.3517467099582523 0.7062542704910933
Ni 0.059776211784049155 4.973485331620852 1.092467828888855 1.03877092857514 0.6306111299344817 1.3084637093544305
Ni 6.912122349516023 1.9041519673723375 6.848277666486289 -2.7843450581663083 0.16497663411612232 1.0778992620351695
Ni 3.3638491692813006 4.345926600696613 -0.22839518149864077 0.8607253770902016 0.7678967258932389 1.410859692524854
Ni 6.329445165338766 5.653581873148911 4.631252157972588 -0.8249554185794438 0.8439273316962562 0.17060580737744166
Ni 5.479117377842791 3.1571846677187745 8.942481590491356 0.07955533112682428 -0.7138739918198802 0.3906210184259466
P 0.2746750660915334 5.698581768802124 12.334189181922849 -0.22862789241818043 0.08159652992656916 -0.10726950921264106
P 4.044182408621818 6.354762727509834 12.46764487084429 -0.26101170806552465 -0.025723372908033115 -0.40059972690521334
P 2.374761841112402 8.736206729943186 1.3658710994265233 -0.4204453008762308 -0.4123231859897286 -1.5094846386886198
P 6.704856999660333 7.8034898961875365 5.731503703386528 -0.185170592565494 -0.046083167511307734 -0.3498209536904492
P 4.877358708476554 1.0936622424655698 12.589908394741244 0.07571513144512768 -0.5341076009890932 -1.1756775439279237
P 4.013275136571918 6.144056155611475 8.046956355706385 -0.1492689935728784 1.347904431848556 0.2921572804303936
P 5.113919964505022 1.203080358155627 3.4768769266113533 -1.1529510488646852 0.8784431060849388 0.8631643255489972
P 0.5989492484075922 5.589172756874083 3.3373180756332816 -0.2521563145574238 0.4762240984087476 0.5657046590690838
Ni 0.7009168452624104 0.29091344640240413 5.142890866373768 0.4682953304799741 -0.5584394928662383 -1.990154945794179
Ni 2.0426930177568368 6.707651854599749 4.764027795871313 -0.005688565744345042 0.534279607790583 -0.5459950964552984
Ni 6.229130811666352 5.828392311411702 9.07245964232206 0.5060334684606962 -0.5722578868065693 0.955297236230516
Ni 8.689713817319081 2.5222336820362097 10.388511314483232 -0.0550257214165762 0.4998638493148746 -0.056904426496527806
Ni 2.4354475187220137 5.31095268585288 6.738486296553509 0.6654583195206539 0.5507830047622451 0.8956574130806964
Ni 0.6087895047724631 0.28138544907473845 9.371030262957504 -0.8499663388014846 -0.2415633695329259 -1.6515758835661363
Ni 1.4011418046114796 1.154948768368346 11.476704927104802 0.40645824256851937 0.49088761395819325 -0.20907388154565285
Ni 4.09660187031941 7.136839611159536 1.214006693329203 0.6489011864929212 0.7012575886074504 0.929492102241954
Ni 5.529761605946942 7.885268990392028 8.05540464685876 0.9955491417720274 1.1129914777526122 -0.5696628723858834
Ni 5.36886171604711 3.1230182488665585 4.565016827037021 0.8008834652319045 -0.682743846073979 0.08641400591987053
Ni 0.9526176575262185 7.502956504461088 7.1209326077861075 0.12847956763135293 0.21834502243493362 -1.8727655745387166
Ni 5.312436599061756 4.75374782780099 7.127461825905161 -0.19066221180768456 -0.506466699343373 -1.2114873545376814
Ni 0.4395478377358647 7.381211894999141 10.877872206851036 0.37922666054607596 -0.1720667081936843 1.1338410675081116
Ni 4.687991354747552 0.17770270345579633 10.365527046517286 0.2567297928607191 1.4739823320169518 -0.030222803440283434
Ni 8.401361259172239 7.20987909382709 4.193722624276035 -0.01152368436888338 -0.30428980202786954 1.5967123987590373
Ni 7.364278897646324 5.94503881414377 6.882987579930958 0.6896482865032961 0.9629089871395029 -0.09856298257757865
Ni 2.631342269817667 5.100628471959261 2.301941759109473 0.4092252637906952 2.4636436475496346 1.1443288544133132
Ni 2.273955884291035 5.678453350981114 11.23593591227178 0.4033605774798021 -0.32864046295809207 0.34166747134537934
Ni 1.404710479322396 3.431198800687827 3.7443217849084744 -1.3636845775009483 1.1597883835014928 -0.4628736452437705
Ni 1.8910698613529835 1.4367648253865186 2.5605659823876987 -0.7158807378372639 -0.6985617869428421 -1.5166047946731687
Ni 1.3909911099618073 3.5875923283889253 8.034577970490997 -0.8717227566419697 -0.5302494035852674 1.0768762200872937
Ni 3.8700911675584218 2.871654275797403 7.00678326697548 0.11166686694938832 -0.540921795697449 -0.03421752642197333
Ni 4.408569587140018 7.390333864540819 5.890582840882831 -0.7660311334394098 -2.085217628527983 -0.7115404585906971
Ni 0.45750773944427187 -0.057310913029671284 -0.01470803791570488 1.089579269476259 0.14925845204991714 1.002338911000351
P 0.2677826078679755 5.544573426749648 7.911288452614655 -0.45290522117714904 0.4595384102229505 -0.7432375325836619
P 8.65007603749426 1.8798358190232116 8.102598549158223 1.4557853493929507 -1.2382466249093964 0.25775489169112387
P 1.9544593562818355 3.2784103627457157 10.490376038827248 -0.51091187959892 -0.20753533341393937 -0.9585558523771298
P 4.059285549809089 6.597059353609415 3.5957820726999974 0.3048315334639524 -1.8627817238531275 0.21265748513185312
P 7.0561529683971616 4.2137763912485005 10.405620014442988 -0.014376580436646207 -1.0980148018381217 -0.4781043461505959
P 6.7613185316937585 7.873543344913303 10.309099198403327 -1.9282083288880534 -0.8470843892679991 -1.080101411892811
P 2.725347716411854 8.947414008752515 5.709678344325429 0.35033748831555145 -0.48106137189639087 0.2767255192563557
P 7.144696157780762 4.129930743066003 1.5842029823908612 -0.6046674134855263 -0.8848644362302504 0.197751257443982
Ni 5.471497529034023 2.9051197049742608 0.23661678897677463 -0.07617330202846881 1.049661864456031 0.7791949245148774
Ni 1.8246761249583094 1.4533700873067008 6.993632882740994 -0.41059900420977025 -1.3735051631357957 0.47406077220884163
Ni 6.903200662738732 0.8145427197570227 9.297186918103792 -0.18674385058988485 0.02991349972998074 -1.601586953242519
Ni 2.6542564388160756 1.3520361122883107 9.396679202066014 1.5232161293420994 1.351817136639401 -0.6713633721511792
Ni 6.891302045781672 2.044368109968083 2.466483153816362 -1.6219344065506196 1.6992690758770412 0.023984021619423212
Ni 4.421688108207443 7.04464581320686 10.08409152675145 -1.2158751991927317 -1.373397691023654 1.1214992581133072
Ni 8.135749898545471 7.272922645799272 0.18415453959770028 -0.3636259778943415 -0.4260809018954533 -0.25681103972061575
Ni 7.7610572614233 3.870555459421321 8.285181779431678 0.35407407253984824 0.40641659069730646 -0.25111244667394167
Ni 3.155436745411387 8.711845062783972 12.325141863229714 0.1771109554858111 -0.8680175398762405 1.097025441341659
Ni 0.28747586586454194 4.96650274615332 10.01130148716318 -0.7355599614337461 -0.8642976678224922 0.8384115440843497
Ni 8.849439321918636 2.4752127512150803 5.878257257487143 1.4062016249275522 0.27485375615493957 -0.8210671392686312
Ni 3.8410319591981033 2.7330130840307096 11.503273346177092 -0.7152937549855424 -0.5291240317315726 -1.713005451626527
Ni 1.2592050509943995 3.4373893588598246 12.588216005382163 -1.8768340881811354 0.23592699718275495 -0.34013663652314974
Ni 3.099166392380332 8.367386019322392 7.922628098583832 0.3407472735239551 0.6685688401251776 0.09663234121376905
Ni 5.740058508554508 8.22457530455162 3.4709476464092623 -0.7490420550805809 -1.58989563294752 0.8010899248157558
Ni 3.2674585370384905 8.603655954966296 3.3726142713518876 0.1320685705341919 0.5260232813190617 0.6757206206786104
Ni 3.4921666949199857 4.4499188742241556 9.444619612850925 0.25416820278113 0.005360235870648833 -0.5304273239240285
Ni 7.186764642064293 6.043368547696336 11.499409709576804 1.077930115273105 0.8785017272370161 -0.1936313217383375
Ni 7.788049915805613 -0.25332947528876465 2.673342475886065 0.8566278099820602 -0.0673130234243615 -1.2103457847340702
Ni 4.788305708419966 0.6473257293931481 1.4080561118638801 -0.9926337678974453 -1.0976543331749096 0.25997709615342324
Ni 5.944037400321828 5.586414316982737 0.3305020659123288 -0.3765820238343772 0.7543580679768556 -0.9007181154330552
Ni 8.100764141111668 9.219743945748304 11.163038448291703 0.3451744560573733 0.33373330409996715 1.5940554207521642
Ni 9.394263063626532 4.8823384663002045 5.743002665191014 0.012600205262513785 0.34520839461910224 -0.46773534421144614
Ni 7.189022375044669 6.193380338223067 2.295492654096174 1.0716774494951737 0.6458672847626037 0.8918238982672189
P 9.00816341269625 1.3884238490728318 3.3041803818890596 -1.0347129564556825 0.8954509534968449 0.949856524830919
P 2.0601722408307124 3.4435252944597163 1.3606619268000277 -1.6237709455387261 -2.0234900696111993 -1.113016931673909
P 4.995571058275655 1.110941182775057 8.019881767465915 -0.337785876902786 0.018580591215664775 0.43122387954897345
P 8.549634231153599 1.727584503040141 12.513400378744967 0.3786057391326254 1.0488205995016582 0.14854805624645384
P 6.322990598068258 7.926718418858359 1.248529069276309 -0.34379480210102725 -0.31028330060714304 -0.1679377736269753
P 2.0052128295301985 3.246301394109487 5.8244940805157475 -0.35742319151773927 1.6216482427687686 0.9132005641707821
P 6.986163246005518 3.8955817012078233 5.850969641215459 0.6399411490861558 0.37950716790097216 -0.07548630326377322
P 2.413398207115281 8.372083560523498 10.342409863625885 -0.05881552747631161 0.35725581270193957 -1.0651630454154235
