# total energy = -340872.0145644171 ev
CRYSTAL
PRIMVEC
9.19271554767886 0.00000000000000 0.00000000000000
0.00000000000000 9.19271554767886 0.00000000000000
0.00000000000000 0.00000000000000 13.45446841795522
PRIMCOORD
 96 1
Ni 9.09512577869403 5.282529698121329 5.105903617475096 0.24981506801875683 -0.31511903143288955 -0.9436699364042328
Ni 2.183242388256224 2.053735410207012 7.512854418111982 -0.6230070923349786 1.666427346756672 -1.3447378611951162
Ni 5.640806597787001 1.5814780292216226 0.3361500331009038 1.106766579888823 -0.976343515377854 -0.0661557698914667
Ni 7.699175136680611 3.611744436379257 0.23469462685160455 0.3318129471488028 0.9577683234788279 -1.2277781212779046
Ni 0.9610248792746104 6.8581703529064635 8.992643546106846 0.6005978714018431 1.0966716575466662 -1.9397055308943756
Ni 6.0105560065813926 7.974726788229811 4.06986893632739 0.2828871679823773 -0.06317200467279442 -0.9157708960011196
Ni 8.011396530949737 4.391452192212452 2.915395306770681 0.14823952386709954 1.1267777329034272 -0.03785332340234771
Ni 3.088237665656193 4.473359288636251 13.258154614669952 1.495667016079237 -0.9895826397759473 -1.4592789643685062
Ni 3.3738645335556154 2.0218183014771096 0.3596934971470307 -1.1409987615988157 0.9042623811408877 -1.1790603443572274
Ni 2.4538759369337364 4.24348624114203 6.40134018732157 -0.03825107306139864 0.8723081968317945 0.8746301600967518
Ni 8.174245488654293 2.4578104192310866 10.184615182063366 -0.49590794999092014 0.9742406101022383 0.1769425482287469
Ni 4.6824751841972585 5.472487974271877 10.780917229459918 0.2784291322110237 0.3349916019871005 -0.30944177854245414
Ni 7.027500175142869 4.214602728575971 6.171537923737838 -1.2712261651592107 -0.4612137410428444 -0.9327792576336581
Ni 1.8957953626584947 8.816522145549689 13.012260502344372 4.087893332496992 -1.8839727561084458 -2.647461839852292
Ni 8.637935258655734 6.4805887503799635 11.126468652854046 0.22718524643438293 1.148781490868028 2.2194143011487717
Ni 2.862712772663482 1.06560121248641 5.023642601498848 0.16734487723798278 -0.3922251296882729 0.5169794259492387
Ni 8.816044124335992 8.358770869856865 7.230041440472418 0.3428128978037322 -0.6621907045129757 -1.1600074414908346
Ni 8.781507091646406 5.049999955804831 9.464558958070128 0.42667045585033614 -3.105069094490801 -0.09524111729319726
Ni 1.982850379845181 0.35338453639779915 8.95620913690751 0.663709198040031 -1.8021782512384577 1.3861503627036322
Ni 7.602394226338327 1.4944505901818803 6.267696487230752 0.6190812749180113 0.4445123691277635 -0.748570514760801
Ni 3.671184535759311 4.28545098807521 8.891331546221657 -0.8537972825118006 1.1514515815010233 -1.2358662976026782
Ni 7.148632589236741 4.577852887407219 11.360388333776521 -0.038344146995837186 -0.8495876153058273 1.3334152370934456
Ni 4.1294689889597205 7.646197516401111 5.382083131503054 0.5936664343893324 -0.0883770431835123 -0.6742712898265936
Ni -0.09902761004665889 3.287967798540579 6.855024605611713 1.9980891130395912 1.4425179428600834 0.44999961749457984
P 6.755450948255563 6.153521120339296 10.06804603201717 -1.381297148376389 -0.6292926682333743 -0.1371459850570993
P 1.4512356339205699 4.17092813653226 3.4109093390739798 -1.1057535652432762 -0.7395888800874811 0.10918652372969583
P 6.918272327813174 1.6207309250386397 11.894691949028179 -0.2743143387117018 2.2247722230265747 1.7647661291385865
P 9.014413735304473 8.938610602070954 9.363031848638775 -0.2579454104353751 -2.4949231743892066 1.9361167851018526
P 0.7276310216871998 1.3443059655028786 5.845468622616545 0.03313663465296874 0.09684651410710418 1.2228603722613134
P 7.0111003704268136 8.707275912788697 5.79235035378763 0.009410494680622503 -0.10795085155038184 1.3149668005802708
P 7.256674576247842 6.256148597833718 3.598411321603378 1.5878233237995234 0.17342219378031423 1.5233531691405957
P 3.8253004135982547 0.7241396282840844 7.609080088429128 1.1296457984798416 0.3931782376301616 -0.27923594438303523
Ni 3.066726711039842 5.677531496800815 4.584206892463126 0.235213258945182 -0.633670742696412 0.028795326965137504
Ni 6.156922425129062 7.595122788260749 11.846067998879574 0.9607250921143067 0.9817554304220447 -0.9503928569503632
Ni 3.24765774042404 6.705130022798338 7.509490803456374 0.35384010215217127 -2.341828893532967 0.3117822537501727
Ni 4.968607651457321 8.679376020796978 9.745408371647281 -0.20190641726293612 0.12771337888928974 -0.2706006373055404
Ni 2.8989504577479503 6.566062620475192 0.7459006247660616 -0.03212593400026725 1.3700609133409372 -1.2738646312233222
Ni 2.2530794490341814 8.393473371428115 6.546419625678516 -2.054487803544294 2.28361474708608 -0.13556912748828265
Ni 4.722270450237508 0.7017470922370886 11.782616198390729 0.648206988639374 -0.3652270038328742 0.4439004465753774
Ni 3.2729744793186692 0.26429976759603147 1.7786001886766671 0.14134433940916302 -1.1622365879316692 -0.15911297624649373
Ni 0.7298510625161951 0.5014378182668779 0.8849799776195497 -2.890495366172841 1.8425648825856205 3.832699773775141
Ni 5.905106365383033 5.944598271806898 2.096663553740105 -0.7989926759670949 -1.2394167339580977 -0.9628969029546449
Ni 9.028101688904364 1.3363634591829952 8.198695354463313 0.7348950741562376 2.0537768935201988 -0.8899907017132221
Ni 7.037409922611427 7.898758186114629 1.782622921044238 -0.16987484274868808 1.0408918315728848 0.2894802478188628
Ni 5.36336124681431 5.941141810723244 13.097157989168469 -1.6194730894943203 -1.2865121447840038 1.166392776191888
Ni 0.34682001815355284 4.058105937384193 11.771839577836563 0.03980787602555724 -0.22906960794128936 1.0836281940991466
Ni 5.2434974274798645 3.225530873859272 12.085677970788174 -0.04466674677975533 0.17020188707080366 0.21384482057173493
Ni 5.192762829818479 8.302998664020368 7.322554172939329 0.6643380898732817 -0.4660620702740812 0.5587940479921796
Ni 1.1552485754858364 4.616333595109802 0.9809546867995034 -0.8199705637703427 -1.4651480215547734 -0.12061404884034711
Ni 7.461745676923724 0.665251091842911 3.8175169412590817 -0.5886810653595991 1.2955865962814461 -0.9562781120865466
Ni 1.6311003082895987 6.169295820391288 2.639417113215414 -0.4996355353541524 -0.6688010107406417 -0.23133783515017578
Ni 9.171645943748093 0.8661909861065752 12.046741304389448 0.045556862694192506 1.6503029303909835 -0.8447557411348225
Ni 6.7061779923822105 6.560436678498607 6.003639407327828 -0.7923890546076482 0.8384362266746979 -1.5460968905950148
Ni 3.7314427868320386 7.4191925961890695 11.844695526433327 -1.1536730146323744 0.2333939463482561 -0.23445838305702849
Ni 0.7198310024598604 0.7911627988021849 3.78580483008813 0.18634301560704036 1.0687793020117722 0.07319159369232556
Ni 8.262559907884757 8.213479999040013 13.124646047499159 0.13210867974350796 -0.6719693811662943 0.1321495602837724
P 3.3593676209786985 3.6882002524237834 11.113848892812452 0.08048041404425495 -0.671698644003411 -0.3571552825683333
P 1.5788029489680508 6.050130647446091 12.237740195951352 -0.23275605565394109 1.2589036390381159 1.696331847625588
P 1.4560158460575368 4.141024232529272 8.346345076115444 -0.43926629023747576 -0.21237157846031812 0.5482864635926363
P 7.436281854578726 5.929319978399899 13.247915767981194 1.244460209919276 0.6686842826571193 -0.8460112108084785
P 1.1837000304164376 6.48800727190791 6.290246218715328 -0.23548785276280737 0.4996651030405072 0.8270976617334272
P 7.249853581237016 3.00736934610062 7.963874787407332 0.30947134622880895 0.43053585234301334 0.813053010714903
P 4.639324576945484 5.363802497165415 6.210206162839642 -0.18041765126154088 -0.8377800811479379 -0.9361345472591361
P 7.59729226915368 0.7560089348926169 1.3115835748822104 0.05411632222842938 -0.42948658514289256 0.3003572997426827
Ni 2.200239719489401 7.701169955976231 4.045328062633454 0.06231145644471204 2.951305555481679 2.542598111867666
Ni 5.933999070664738 3.675532690260821 9.464061632153573 0.30866710515995877 0.22194559530199842 0.6349570656080032
Ni 6.66004894526048 2.6227001598095017 2.0501383005739444 0.3307590519629916 0.746012781335954 1.6846299858076277
Ni 7.179483342951474 0.2516230127174211 10.49198282247034 0.40500042707607026 -2.2151382994812367 -0.37688875644151865
Ni 3.9663442497857235 2.0961689856382417 9.469671946513555 0.10702011220599633 -1.6597255092564642 0.5135169213219349
Ni 8.754241497034398 6.248803618030955 1.4468396772976897 -0.5506433938605871 0.8689781040172969 0.3143479575948199
Ni 4.94825497901262 3.0548313369913127 7.299722225084358 -0.06153832572411338 0.26414228327470635 -0.7216508075518216
Ni 7.030644083894489 7.672663344751741 8.760217681477172 1.1401461837905333 1.2939680868414167 -0.5679016667204025
Ni 8.641281407151611 2.824636544449411 4.512063379329081 0.43775833823338156 -0.07170960983016036 -0.49685437306458946
Ni 3.587402125343317 4.600126837422355 2.295937727928349 -0.6066435633752907 0.33314966368235527 -0.08548403790643343
Ni 8.910205110718593 2.4342035254469883 2.060565597933486 1.8424435265164079 -0.47771996622798363 -0.43394256403171716
Ni 5.290986996517502 4.4803457525287405 4.040982665946638 0.46989044288123594 0.9867351430248231 0.9111339114497404
Ni 8.736444399539845 7.83498831766436 4.690510536945187 0.3020645122417766 -0.7110984859572721 -0.5828901697094349
Ni 5.359279681066592 1.0494863819554427 5.939811624768977 -1.2935610812109852 0.14608725341078713 -1.382129671580013
Ni 6.544790676465689 1.0808795058934084 8.389399159852916 -1.5134827041044192 -0.7618353501905073 0.11925522081960752
Ni 3.1780964611155236 3.312824901652807 4.38852431227856 -0.20529050324382064 -0.308299694518211 0.4362593850903519
Ni 2.207483579420035 2.271023629979103 2.3798267738458594 -0.8096797233672958 1.0179799599717179 0.1688165766875028
Ni 5.585107933675689 5.947870878577591 8.00918935992265 -0.1641608230830463 -1.1134658462858693 1.4666791134873192
Ni 1.450509409384377 2.532694280899803 10.12386879778973 0.6501296595833835 0.3213395584213046 0.0217895850712657
Ni 8.211705804919948 5.830535056046348 7.510311712963743 1.4498985515948706 0.6992107333807506 -0.6628075121613681
Ni 2.0416469891298745 5.230011713624229 10.370852246919599 0.16660028576247435 0.2791410706763837 -0.5845649863086965
Ni 4.67570934548032 2.3200483825299587 2.8711434121842747 -1.3885913680449569 -1.3662739354946793 0.2830139233682287
Ni 4.119338616315609 7.284988140443723 2.722471460552085 -0.3472043420032085 0.015311947766722015 -0.2797915597761891
Ni 1.150863650121734 8.107809732666102 10.942546313797983 0.8378646704419441 0.4129626193459404 0.22233177499682352
P 4.299451494007134 0.1467341271735889 3.694717887818225 0.05035068453841005 -0.2427859290861174 -0.027691038157365212
P 3.3008651785947416 7.3559650979620335 9.52024751019423 -1.1673772515923444 -0.8612709651810263 1.0933071119498072
P 4.530427667379118 8.189965032412395 0.3265252598174338 -0.32528465911198173 0.10060161027416223 -0.020882499875964036
P 5.223153947750811 4.1837703602925345 1.001899370131937 -0.03811814702796016 -2.0250908384394157 -0.6898948552964634
P 6.294482222085934 2.719536226445674 4.605007250159885 0.7624765833189321 -1.2833787413613444 -0.23863565436316966
P 2.7695997558647547 0.8931109346102175 11.078840273810124 -1.6358199062834602 -0.7993875974126684 0.11272718989310264
P 0.9258351637740154 2.59411081414418 13.44783527080793 -0.0013027779718235628 -0.12481960228126245 0.19709254081406055
P 0.7735642639656279 8.25787162290427 2.7048058188912973 -1.1911324450304133 -1.2186033967571723 -2.669711138168796
