# total energy = -381171.52886203135 ev
CRYSTAL
PRIMVEC
9.21533300687569 0.00000000000000 0.00000000000000
0.00000000000000 9.21533300687569 0.00000000000000
0.00000000000000 0.00000000000000 13.48757135569463
PRIMCOORD
 96 1
Ni 1.1209623471284444 1.5548386653723048 0.4844159701733622 0.6579098177494347 0.5347241515271693 -1.5143738484601208
Ni 4.295570915678293 0.1205301076676208 8.189909909479638 0.04783254610224665 0.5988600627751298 -0.36567180467977667
Ni 8.043474578622362 8.162601191041936 6.350434482616879 -0.8731983127462317 -0.49676746977773806 0.3313059256053972
Ni 2.7164498472948035 5.106566314918998 4.303843520301875 -1.195622619591283 -1.538913485472698 2.1594931993131063
Ni 6.488258084588405 8.138788770024519 1.8528007986859747 0.44632782506994745 1.4188527380326597 -1.511282611129307
Ni 0.7921380628908823 0.8200162889210282 11.109456485413338 0.0455100686166571 -1.7938370783626136 0.1962484476462104
Ni 2.6546333921149086 2.1776385297764254 8.058500179423023 0.11266882585134144 1.4431699746217856 1.3590524780455755
Ni 2.6888775703272656 2.8971993928968396 5.473823146313352 -0.20097002149159585 0.44992814082669613 0.9418483098144619
Ni 1.0802858663347568 6.256732052993342 1.1108282451962246 1.1781727995459514 0.8950323779021875 -0.5123126166011885
Ni 3.4328129897909743 2.7613469506991635 0.37788026752008075 0.17041760262603553 1.034394139663683 0.3041499340158955
Ni 1.873855070473319 7.673303858866668 12.104691276943113 0.814316707918675 0.37415927332549753 0.1122456222709938
Ni 5.976438478045266 7.541653608613243 7.682372668279688 -2.6448053760660515 -1.3812722086757243 -1.8436390894864054
Ni 0.9517411833734635 4.014576975406175 -0.06021390873448893 -0.37252276616333907 -0.43122105133549604 1.1039483937137375
Ni 4.013793672083234 8.251621309860926 5.668543137063378 1.6029074718261556 -0.7857936607783177 -0.4657903046699333
Ni 4.184673595816209 1.3288694797035203 4.5967667094157285 -0.4714490456176075 0.21203836349061544 -0.8248721148370182
Ni 2.881376665773423 7.46393148831103 7.76436333092527 0.3615778371160612 0.7001191041276329 -0.7862351191911104
Ni 6.76058961164211 5.520491436760881 5.700022715312413 -0.4923114908889134 0.0316721342923003 0.8813651648277402
Ni 8.988755813414862 6.436025575948028 12.199104208757225 0.41016731598899037 2.9979710778590176 -2.4684328414081618
Ni 5.837932019882801 5.235921947202867 10.217227002383678 0.4013360908506056 -4.084458338673514 -0.8596375433426614
Ni 3.9873272351010254 6.0066647709775935 6.375103008089607 -0.8656323274735157 0.7835997384507923 -0.37242095047815216
Ni 1.188077618904708 0.2906728047437092 8.205082955611674 -0.9002730574758365 0.19814746444113615 0.38168823471269103
Ni 8.677489503544363 4.95774789889334 7.3670599055962045 0.7041703913788713 0.258307164650168 -0.6567062843596368
Ni 7.585914854026038 0.3170581467936608 11.826334765036007 -0.35951118439501956 -1.0569095471573797 0.9911512698146477
Ni 2.8815701877708557 8.797906262613488 3.632917499736233 1.7125408532852828 0.21837459012128843 -1.0781910822439753
P 6.509619226971677 2.6473532788781586 10.774870774852209 0.9355059125362016 -0.3306155844065919 -0.36854012736650726
Ni 0.0017343257103244237 5.21196208085407 3.0200425492004404 1.325224473752537 1.4053541893255925 -0.7450339623624525
P 3.0782253984952086 0.48588212968724426 12.8448622327901 -0.8475759841924372 0.18695519526974252 -0.6479555347502002
Ni 6.560156114301216 3.3390377590350697 12.793906047799457 -0.07319390768517073 0.12361555467083227 0.4897290748737179
P 4.348310267645278 7.7619737950236365 9.797318364687843 -0.6007408247376106 0.11446139897538998 -0.9857293274681281
P 6.650816562431777 7.789030013331355 13.08433372467975 0.5459788985053822 0.7305414251732322 0.33962241589089254
P 6.468223950187526 5.37646499400498 7.967459138030843 1.4177255664067518 0.06500057324110096 -0.6246325437535436
Ni 7.995269170595226 4.5723626640061585 11.264833454085318 -1.6413079259812249 0.10817916551110401 0.644345963022071
Ni 3.513585385386052 5.817621425485591 10.751887733823786 -0.09268055565487264 1.6945490446935525 -0.9367618964304899
Ni 3.223624925899559 5.938471305215635 13.138027785167404 -0.7103497807167056 -0.8641146052774086 0.36765592498934097
Ni 5.6848469045804135 0.3844443493663299 10.141332282657222 0.2894429668230241 0.09031025565048317 -0.25009351849112416
Ni 5.0050778502654225 2.6258999831627747 9.25167848526006 -0.7066005980869186 0.010060469559795577 -0.4605233998440391
Ni 4.438086043787576 5.135419523202876 8.4571794540005 -1.674555375180445 -0.30268029144890457 -0.42071218138437216
Ni 2.947717849559956 0.6347926990450146 10.242960820375608 0.9732761893064399 -0.23353947078718487 0.271117686151275
Ni 4.625083585306721 3.7076971641441476 2.790201080516362 -1.5955690291832132 -0.20479942254001507 -0.21649099994533036
Ni 8.988488568751741 6.018303736823182 5.2763652800663134 1.062978379059279 0.49604370423783595 -0.36136932064968086
Ni 6.689880359913527 0.8783115652809711 7.807051518958934 -0.372254600103617 0.8391314529695098 -1.0463633962104173
Ni 2.3660368019436544 2.7190301405939046 11.705944730433195 -1.0335734435346007 -0.652368061995599 -0.5950183204315366
Ni 0.5007602851565257 3.5121938700711794 4.87122513537455 -0.31511903143288955 0.438063013957994 0.4337484457430401
Ni 2.1454770168697714 4.258046078842792 1.994515114339216 0.2630480217692631 0.09540669633678409 0.33110769355166203
Ni 6.7463703524974195 3.7553404368454086 1.7685440856037895 -0.0397471979909509 -0.7594491093465179 -2.199103357505561
Ni 5.865393712851806 0.8952060356568359 2.901648555771147 -0.22559476201881148 0.33647795672463987 1.1641266058655306
Ni 5.790694221842828 1.3366840822665127 0.6515765854223464 0.2942928387161577 -0.0002738224866769477 -1.0421604138726632
Ni 7.596309749888132 3.5310576571542516 8.706133523764349 -2.0160626667988764 -0.3847157086851052 1.8524505171304484
Ni 6.295187638483159 0.3860551896116258 5.4527016025935655 0.1005249913999559 0.25344777967533766 -0.0709714461125552
Ni 7.297014157858819 7.463802473646076 4.170640486402383 -1.698507000900036 0.21260374907578225 0.9131206028624662
Ni 9.196635299990305 2.940769488318805 2.293830980101593 1.8790205543094929 -0.053960770487171586 0.13224109155631417
Ni 4.676532790624156 4.178573045230476 5.486919056339611 0.9278147145395311 -3.315775883654186 0.289150889503902
Ni 9.000311841261551 1.077862233700244 6.050592421328149 0.4000124869431756 1.1574553644929422 1.9346790242140615
Ni 1.1854788949391846 8.23356847210043 5.688099917203923 0.6946313415401842 -0.07084854738144572 1.2636018158447335
Ni 4.972354202032894 5.745806333771678 4.066826993179653 1.2897172819848628 2.8453485944328736 -1.5023523985192127
Ni 0.17705972618432173 8.512857575728498 13.453123987520426 -0.991479342578028 0.0845872371237769 -0.0495371874981792
P 0.050594022395447136 2.354370190098433 8.138454253428955 0.4356168664103465 -1.6781891152782906 -1.3976105408244317
Ni 5.958689746280735 5.905637072984573 12.36784709671855 0.12966587462997026 -0.5175072734282506 1.615251080993173
P 1.571693509815362 5.185679950536082 6.278316206440322 0.18912906299260976 -0.36467498798414616 -0.5450898110322095
Ni 8.62880489819025 7.5629686743304605 2.2715768719301663 1.121566878126449 -0.6901411669793147 -0.2536465259497051
P 2.2969033721941656 2.1846882596828983 2.4949712934997765 -0.4162443754210057 -0.053156015197689095 0.0301487556692384
P 8.292076622657548 2.674851833180008 0.4290041715751647 0.12755165650044484 0.3055414150467835 -1.3593442982543815
P 3.165476173337672 3.796827866961671 9.895601736450608 -0.8615455589986516 -0.295025346006808 -0.6784007386139348
Ni 6.504578439705219 7.161419744991053 10.403246797049128 0.06788637942932825 3.1015880779207357 1.2823001635851852
Ni 1.398786212775951 5.022375030702612 11.522310785536092 0.5532175823456665 0.34666903832502877 -1.258158276231659
Ni 0.3965569833389676 7.19370105722945 7.780279132914118 0.18660706790170442 0.036971435018026653 0.07943397505761159
Ni 4.697552965678621 1.598519344792803 11.963799890545621 0.2750550735324682 -0.05032368795521656 -0.23896244157496907
Ni 4.353894759571189 3.9961555243172358 11.927275838896843 0.35493410654729834 0.04006421501073745 -0.5049129817030079
Ni 8.122302538909903 1.7349431376495656 4.006469325247072 -0.8026403000220113 -1.7488579425487625 0.20607468970801282
Ni 1.434283676305014 1.182474696312374 4.252604424581652 -0.4422996777471609 1.2119915478676095 0.1819178899561512
Ni 3.7128853967419837 0.8436812646070703 1.589267150248883 0.5863043375973064 0.781983285893292 1.8363975774326438
Ni 8.910471557786776 2.7313879024299568 11.706577823824794 0.5502001356755815 -1.7766528532738435 0.9927147576470258
Ni 2.9170400053002856 8.174949737544779 0.9313356710441789 -1.2920580143028975 -2.0625366419907 -0.9847456233986204
Ni 8.5147743650364 5.964449329537657 9.765163302514438 1.0706376953767498 1.271136947879514 -2.155954332921913
Ni 7.573704537521364 8.281377620799491 8.785777041041069 3.5489494864615203 0.6706043824979676 0.9482087048148508
Ni 7.895163005923313 0.9588462052792028 1.6486535220610172 0.43287915576420927 -0.6668575138610257 -0.4107221600511959
Ni 3.1647205160143637 6.353152084380825 2.6224285671421628 2.0843383112468232 0.5793435900087571 -2.8718834074986086
Ni 1.8547516847267593 5.357195732260621 8.41304814478598 0.7015494088162563 0.03471709176621117 0.03671355337094968
Ni 6.9693629855390276 6.018699996151259 2.4418172515382928 -0.8309247487890012 -2.041675482270974 -0.22143137466974122
Ni 0.7860568645048934 3.7133185174029038 9.59252325013815 0.02494818530490542 -0.8305791925241245 0.6469378921189632
Ni 2.7130401740067054 0.637871541870835 6.435743586751769 -0.4458097477829483 0.613468299606608 -0.7593321241526794
Ni 7.634571813380517 3.9053568461885084 3.729610304986765 -1.564758214449944 1.3115194654616187 2.932337756129924
Ni 1.8368647229640618 7.6463766552239045 9.706519686559117 -0.7400681337167448 -0.15533962524699055 1.46995187070132
Ni 0.8399637991897222 9.21090985113426 2.069627452276051 1.5645669243747442 0.3404829641189749 1.9837433858408804
Ni 4.65402894692271 8.061720938380294 11.939495370734729 -0.6333552683385221 0.1277213493090897 0.8389581606164389
Ni 8.292076622657548 5.4980428850587 0.3679912934512755 -2.5902398821153456 -1.9992016293774795 2.6957314734919575
Ni 1.5847792829750893 7.12181224284985 3.7611986241676894 -3.826726586910842 -0.9252760072780774 0.04372289480924728
Ni 4.9364144025096985 2.104634660078285 6.647254836145696 -0.4325168873287842 -0.13930648304352783 0.8779425122994364
P 4.955259758926348 4.4364457144760046 0.5011795828176298 -0.08119800893656984 0.49932134654784327 0.791092961504044
Ni 4.869326776733069 6.717166961551522 1.0133963702221647 0.9745226601190315 -0.5193109022958927 0.04291659685786803
P 4.860913177511357 7.99152774531153 3.1759862608649034 -0.7822059434270593 -0.5449170328997712 0.7510583141796614
Ni 7.983676281415693 1.2809773930055606 9.72785686907604 0.9190745064530559 0.550327405282065 -0.04365013258978289
P 8.923502038947236 8.81395015773397 4.261708252260874 0.3000721644020961 0.40204494399217217 -0.7979251539345289
P 5.899508876399207 2.675653567169372 4.219424617355175 0.6770303406289695 -0.37528310251729563 1.1215573650447523
P 8.894206494669227 8.042442461302723 10.515437028160726 0.828750881066134 0.659433967703445 0.37420478185145234
Ni 7.280334404746772 2.9837313717488394 6.294002546632216 -0.016305936248875143 -0.1447469373328088 -0.7038266348862071
