# total energy = -381173.8873745776 ev
CRYSTAL
PRIMVEC
9.13138177160409 0.00000000000000 0.00000000000000

0.00000000000000 9.13138177160409 0.00000000000000

0.00000000000000 0.00000000000000 13.36470023695880

PRIMCOORD
 96 1
Ni 3.8705371056887987 3.4542100110478 7.944753337050514 0.07372252649513109 -0.4447383690956406 2.45388194017718
Ni 4.846334837523212 7.82925596631691 1.0839571240789179 1.4366247173040998 -0.00041266205738638606 2.8548724747629093
Ni 1.578605907491324 3.798928808885019 2.712739975071487 -0.03248023201589245 -0.953015639285191 0.6151148340710955
Ni 6.929203047283741 4.674902273866727 0.5559504894737184 -0.10211084782983705 -0.6271008027883781 0.692389339583543
Ni 1.8115200654324104 6.00523503907318 11.400864501808407 0.5476025501517343 -0.26784647159917097 0.5690208679265103
Ni 4.9979066455627335 5.440249047216481 4.893725796408947 0.4131927330788755 -1.353449272926185 -1.7607516086625548
Ni 2.6603824575742276 6.973654614338165 1.6967157665844739 -0.1853960783127388 0.3714444454974958 0.038493013868875645
Ni 8.972915891487702 2.3832176229803594 9.595267050671703 0.9592194541030576 0.6484661558380316 -1.465135166038967
Ni 3.6717925787907806 5.006051838211161 2.6002230873877115 -0.4992516696521724 -0.6084878156728811 1.0224287397716907
Ni 7.582014670185933 7.044148882551017 1.4790309273642934 -0.15442251274935984 -0.10318942560599648 0.17560840279835563
Ni 2.283840793840404 7.91720030532701 8.005388452233648 0.8256519304258362 0.7319740438547007 -0.9886755545806456
Ni 6.651508592540087 5.17615122011129 11.496181518558798 -0.1780679200824417 -2.2523282782679725 -1.2033498130322116
Ni 3.5487198136388627 7.779088154197558 12.749857245912912 -2.1235165241081817 -0.5994735279894127 -1.0170643901359837
Ni 5.811741056763554 7.733339930914347 9.579630472318376 0.08235629091072914 0.5015049844627234 1.0563377338143098
Ni 5.1612853303897195 2.1087830715724554 6.754425658439903 3.436793338580539 0.7802400779499402 -1.4080260797308009
Ni 3.7096330253547767 2.256519699216978 10.441960739613966 -0.361099611928062 -1.7858211500366725 -1.0535216045217533
Ni 8.082359609623103 7.623489406743286 6.043370429272316 0.2551567919466444 -0.29962016446634204 -0.09834546725013386
Ni 1.887493162780975 3.8450514188258365 9.680119503772882 0.7280453982242558 -1.6829461703473014 0.856427778156112
Ni 4.693384190817868 1.0026622573631965 8.682056723469117 -0.6783919968631865 -0.9708680940855794 0.5767987120997162
Ni 0.4325206872897901 5.63493924055407 1.780071586193413 0.11278503971423155 1.0824182329514456 -0.6521184078786382
Ni 8.567217725369987 2.131291927938346 4.044305476833476 -1.5853746051487148 2.1455339089195373 -0.3349270672977522
Ni 1.9970240885857866 1.0350786630828364 9.201382153308776 0.6128229527131253 -0.11307068927545043 0.9036460877131277
Ni 4.808183923974858 5.585218866147467 0.29271192540464536 -2.281390999961884 -1.9140742034795164 0.443659534209165
Ni 3.469304185316691 7.609335764809359 5.858135781884778 -1.1489807513630277 -0.6264235742156954 0.1866860007687559
P 7.086637202498476 8.361579005142863 11.475747312158965 0.45578357116620855 1.190854251668362 -1.7843167975770042
Ni 0.3853379239112122 4.543739104357738 4.606598624169972 1.0153319808259094 -1.982804676076695 1.8695082439436834
P 4.506519591762456 8.17525315761913 7.6824443476581346 0.5995529750770964 -0.5413007763034225 0.5688668588471493
Ni 8.799036117483931 0.00941993356067059 4.267054580451434 1.042439635675979 -2.306442286503557 0.5028856668603339
P 2.9572528142928793 0.6968130128292986 11.760602596582997 -0.13995697214333314 -0.40612014250281026 -0.18243982389789223
P 1.397895859831697 6.974613409436915 0.00437210565029961 -0.29956899951343247 -0.6588073898630395 -0.4208587342645655
P 7.2860209261289945 5.338297168382739 4.684621716753484 -0.2373105077938429 1.4603832531762784 0.15095332325383679
Ni 7.920323237934366 4.264264030144978 2.9044432933919238 -0.4062366134760165 -0.24239692117781483 -0.8806861364828444
Ni -0.03085493941596154 3.7434830580315954 0.5602760250763644 1.5810613224853416 -1.6873077897501068 1.6961796383184402
Ni 5.599345113935716 3.6347465624514625 3.132178131523382 0.00435442031395379 -0.04419983444566582 -0.11852759862496359
Ni 4.329389045804829 6.076615051329638 8.783735573984261 -0.2462057534009437 -0.4783979661316148 0.41617546985628323
Ni -0.05302410837543814 0.18655230579467627 8.367612109159474 -0.756078393102072 -0.20326010307735318 0.40557044064692727
Ni 1.9105407706785442 4.323563224157187 7.304517453291164 -3.0395854109656946 -1.0603663953577285 -0.9523944607614242
Ni 2.6216836611123027 0.3243649475980426 1.950471390557816 -0.6303036259963919 -0.9767566916558726 -0.5017502677043101
Ni 6.3305679131518655 6.847623281452962 12.75287790704307 0.6081620569023461 1.8585088075093865 0.5359353982264511
Ni 5.80670966534059 5.807513226947162 2.574869805562196 0.8386858807916588 0.6179481897548326 -0.9987918170790412
Ni 6.93239903094624 8.665699679084444 7.7296618102879044 -1.142647095835516 -0.030825727131604974 0.5593272947878303
Ni 9.020700412933019 3.023984953165874 6.5807385565940715 -0.8107361896562681 -0.9098619867158524 0.9863080827897335
Ni 8.813518489166002 4.66106823029905 9.031209720353507 1.975169013908308 -0.028767816161311743 0.6646610204303393
Ni 4.356207914424148 6.094165567327708 11.246274772053296 0.3036107736829739 -0.870738024131197 -0.5373518189580037
Ni 4.514582601973848 1.016678928568731 0.3902706964097331 -0.6429449689094863 -0.012096783263534005 -0.9601375950419528
Ni 3.873413490985048 7.19837792272136 3.636561881171762 0.5949028778995948 0.927808286781628 -0.4081248316376649
Ni 5.066245907648871 -0.02108801334336241 11.564849510393078 0.6672267242749863 0.669929210807814 0.07913135621552823
Ni 3.49650657197551 0.7913009001038189 6.6242267628588 -3.129495602964281 -0.22163012094410864 -0.18341864287139378
Ni 7.000847869615091 3.435435889876087 9.853526272194602 -1.3009149504728952 -0.9993530888991499 0.09796211576878613
Ni 5.975220186791361 4.457913245946782 7.285338811901599 -0.5820193370687072 -0.8531578491555887 0.5671894711447263
Ni 6.8125679063662865 5.612284282077893 9.109059316681053 -0.9249751882082069 1.6874936805086678 0.014581754468916824
Ni 7.198724915233288 0.9811395902417341 5.947358514359879 2.1142366414681524 0.5129430510963359 0.4064397306257581
Ni 3.4313998190794446 3.8142603990831248 11.994551340092544 -0.00784880662045745 1.3292248531611819 1.528382504034387
Ni 5.326417240540133 8.899773522525923 5.391199829379002 0.24808702958405657 -0.19227455060012694 0.1384359075131164
Ni 6.714798200439474 -0.11580144575063613 0.2526635106989561 0.016141899867185103 1.258373991786891 -0.3304829154834696
Ni 5.893412136413262 6.644459165718802 6.50949094937506 0.21877851042792643 1.7615753901154307 1.246249440609215
P 1.6643952403747089 2.0239799279334982 7.397748862417227 0.24038194763031503 0.3243176672130221 -0.46688405195474425
Ni 3.8414810485057296 2.9868293602438416 4.904243322073139 0.1869719074402909 -0.1266463710773561 -0.2883816154380453
P 4.716623557735188 3.2918996979022785 0.5678021100324566 -0.14406482366411963 0.3313866582446615 0.19729385819158923
Ni 3.1975268660396083 0.5531060640140937 4.105943217748445 -0.2298003154597268 -1.2026057357773352 2.352930916983399
P 5.041006768097016 9.109621809805654 2.8508639969974 0.4888129908173517 0.11288377007562496 0.4341281976799621
P 4.892914016558671 3.9723611451760394 10.159898744910961 0.18845209153024317 1.827724218028362 0.020093171205449265
P 8.557876321693595 6.924984348849241 8.532091125504548 -0.09819891436994056 0.5728803508819166 -1.1416317671971243
Ni 1.7512894704671298 5.944173488355649 8.993467892713953 -0.016237030684152682 0.8920779232595539 -0.6959120080248209
Ni 8.603131450354592 6.853239081317069 10.746849362772736 -2.849240730398429 -1.5037143118637457 0.12032479973470245
Ni 3.963503704739969 1.9679315058751463 2.5140474970502584 1.879126740870054 2.498188218293723 0.27058906734131466
Ni 7.7942005912302355 2.641790964040372 12.43803242506833 0.7205290352425526 0.807810274258725 -1.7676730183727363
Ni 1.423828984407409 2.0763484030890296 5.105957374362713 1.935961490470911 0.4692255556037274 -0.323549678698746
Ni 6.573316569391558 1.0067348536874103 9.945969643063313 1.2630770536895148 0.14555760615956223 -0.06272694671557584
Ni 3.379515307164235 8.124373097712134 10.250899357440598 -0.2165578486275238 0.030734195859063198 -0.5341176282914221
Ni 1.1532570075401831 2.101185761837599 12.16456397386469 0.639619504080679 0.18325306382780696 -0.7800421030065211
Ni -0.364832492732614 0.7169184894809898 10.897242309409892 0.04292302461577124 -2.317869297393576 1.5718693715734284
Ni 7.600688346156824 9.373454826835951 2.463341846537417 -1.5783657779310494 -0.10987686492850109 -0.5421523256704405
Ni 1.560032676721254 0.15195715235540075 13.336366818029264 0.8738801693046048 0.07378680407416326 -1.1367960363713776
Ni 9.072027910552764 6.522071254208848 3.822143521071228 -0.9651746432452282 2.8714226658121067 -0.3877071872132613
Ni 3.676659605339673 5.4187902997682675 6.712995665653825 -0.09626801589581484 0.6906021657761332 -0.7438126883608416
Ni 6.038318035670999 1.6056439292760714 4.06208062482611 -0.5879071633080519 -0.7344389604554254 -0.798273024192251
Ni 1.0877667366046175 7.934129887356366 9.958412064030519 0.7616278621653916 1.869395629625219 0.17159619631516898
Ni 0.882064096704243 0.04752427706137077 6.289895825062894 0.899240245335948 -0.11199596815403293 -0.28235983472399756
Ni 8.370472971106505 5.240244389617248 6.895690875736958 -0.7584353233700228 0.8543099604821609 -1.0953022880029653
Ni 8.68464729651212 1.4144601865853386 0.6649609265106372 1.3840837099825904 -1.548618371465288 0.9858424560072248
Ni 5.723632352879383 2.3903857577662513 11.915632458945344 -1.5681489852990478 0.37555975321745 0.19855626984378064
Ni 6.627931364492731 7.4960609724284755 3.9141330622598622 0.3394933465121959 0.34758177994728523 0.4012291329590961
Ni 2.387198905485645 2.6015580954204474 0.7874721116761442 0.21336402428057447 -0.623371674763249 -0.1197848680708324
Ni 6.53607879403249 2.0921639565274566 1.3296177780042424 -0.6075786735950505 1.281750204618986 0.04738208882838937
Ni 1.0770373628805112 6.495197597298172 6.01537178611244 1.567329831831862 -0.31239983272951355 0.7461341374051667
Ni 6.908456547623171 3.394381196885805 5.47517019098933 -0.18776406432428308 0.015324803282528448 -0.927566603084467
Ni 8.767268039878685 8.133586662042026 12.796981568447375 -0.22221556113393343 -0.4438888766111517 0.4039948686296913
P 1.5945675630400367 7.935983557880616 4.512965434240623 0.45137104392080973 0.5438119727610505 -0.6583440770733759
Ni 8.794196485080718 5.442924542111087 12.609380980011398 -0.11645683213886396 1.6798029967326293 -0.07483838526712917
P 0.5721212536677777 3.945450962737792 11.413159907527138 -0.38017642605385493 0.8233988727256012 -0.7787220986435169
Ni 0.5289782136385993 8.289322380224691 1.74115272342787 -0.7491425852141873 -0.33373047588648974 1.3581903871555965
P 7.224329310060858 2.3009530035076167 7.810237124110469 -0.24139984737186812 -0.21022162199685088 0.3946905605096299
P 0.8745023993587686 1.5707711818272532 2.59235092305788 0.48951258798753755 -0.3317592110927319 -1.0458139514648506
P 2.673020290113941 4.821260062845428 4.771919553925568 -0.5237823078036851 -0.03309138323733011 -0.39021812656057314
Ni 2.4218524997690345 4.931987199678204 0.6115843467941349 -0.5690278099050458 0.094550776094392 -1.2711474894024752
