# total energy = -340890.4144795942 ev
CRYSTAL
PRIMVEC
9.07230755071648 0.00000000000000 0.00000000000000

0.00000000000000 9.07230755071648 0.00000000000000

0.00000000000000 0.00000000000000 13.27823914337715

PRIMCOORD
 96 1
Ni 6.5309547400104995 2.0717249750160134 11.10024974231715 -0.08217322836564557 0.15980357455561509 0.5326235602443988
Ni 4.740915847528729 0.4653449728757992 5.766818755616913 -0.5343305156331765 -0.8065188091408111 -0.6777106545254458
Ni 2.7957314206523542 1.8970014005521982 4.380265305792264 1.1608268520683362 -1.6811451125828207 1.6861387091426703
Ni 3.7205624700755484 4.3728704677661225 4.91679886291972 -0.6497064560030359 0.6958742128083499 -0.7580699696108042
Ni 3.7692626179400146 2.764223295925586 2.301211720596497 1.0325771410596023 -0.02870610968544088 0.6603022292410112
Ni 5.577164884331087 4.766381815311061 2.673374113604427 -1.074939150965581 -1.2571110659140674 -1.6112810406018316
Ni 5.3237118234351115 4.573359396167174 11.348618681964384 0.42067695727106263 0.21682987134198783 0.5091792131785295
Ni 5.778615477350923 8.20025028898851 12.069189444665502 -0.21840775735206902 -0.4022418904943266 0.5160070347336403
Ni 1.8184805771976982 6.206120761939109 0.16681887274356358 1.2851024089206706 1.0958350205779837 0.23375595767336516
Ni 2.7798639544424155 1.5782640132715913 0.08148474628805479 -0.6350912771930223 0.590664414338215 0.16259167882371353
Ni 7.99125153594199 8.891696222202054 6.719294033907063 0.41037326135220936 -0.19723549414982805 2.258508438936756
Ni 8.63749923207268 2.233438860203069 1.3299086820859438 0.3226163682511992 0.8970064709094229 -0.595357191828194
Ni 7.33165847514874 0.5638774926087344 4.75010428079198 -1.370996280671013 1.1030510787104488 -2.1308259132854013
Ni 1.0014103989246774 7.458153661749757 2.4033613694191422 -0.569388021457942 -0.6078699795832241 0.16845662224492278
Ni 7.768045548999094 3.819241961193619 3.7294188568760873 0.9103145008722388 0.4431946787576045 -0.626592752803708
Ni 7.79389255370585 3.888309439899316 12.316151269384687 -0.42608655832240816 0.07706753170796404 0.34200788540393356
Ni 8.342304483336836 7.490650668018482 9.10968200328034 -1.2697647501223357 -0.1006985408633427 0.2861378137091911
Ni 7.080546069645654 0.6659454906618604 0.16049910318276117 -0.4781056317021766 0.14727741706414638 0.11275444358661227
Ni 1.5785906163496688 6.730173545330137 8.944606828081405 1.3438922253653693 0.11155116730713047 2.1525206246500157
Ni 0.22533253587349075 4.762970627606695 1.163797449344882 -1.1464389587777803 0.37007610439505945 0.9409993315506052
Ni 6.496017282963916 2.049642978014875 6.590640545298416 0.7540240816762047 0.16982419201641075 1.0597994671106652
Ni 3.4034580981853293 4.367844409286817 0.5559492028883997 0.8511791281626631 0.29623556426482534 -1.3681161309097407
Ni 6.038537093654381 5.660294440009572 4.7144392246659015 0.12752980212357393 -0.039606301537712434 0.3286371205239824
Ni 5.590138284376948 3.106730129444066 8.903962889476187 0.0316461661503713 -0.7417856306284838 0.011766653617624896
P 0.02721873763468185 5.703886878625213 12.279503682332058 1.1427867067371738 -1.3852872433723884 -0.024628854292273714
P 4.091501916002232 6.158463929462947 12.441803638598108 -0.14858919389703443 -0.4848311233514682 1.0685175637099533
P 2.4750888487496274 8.552410057925728 1.2631537346191908 0.04152485871666397 0.8220228183136812 -1.4209841825533658
P 6.37360463483887 7.848036086204943 5.611835615530574 0.18328674527921981 -0.5703665833211273 0.598506278980137
P 4.8422625971177675 1.299952829210817 12.36587840248355 -0.12516772964930056 -0.6530802575712753 -0.2002917644776486
P 3.8883820183611113 6.468764070559881 8.204929785312745 -0.2847311631696516 -0.4163135380960444 -0.9762332150522347
P 4.803106516979348 1.1703639856757875 3.670596735283531 -0.0629524324628206 -0.045636052671560116 -1.2459915589621382
P 0.3359130802644014 5.622798592184713 3.57058452216075 1.168678486902271 -0.35789241784467396 -0.6347850588065131
Ni 0.634992591167824 9.143706786169854 4.793032626482197 0.7007965898106318 0.012248478350049873 -0.5304900588411637
Ni 2.035807708735197 6.700507099071418 4.835124505400226 -0.557903160746794 -1.536410002324554 -0.606844109421871
Ni 5.880987397712815 5.807429126683551 8.997627208884222 1.0644169112780184 0.5130968030653809 0.002046083895751315
Ni 8.81600595885756 2.4476814071142785 9.87049843027758 -0.5771308986281544 -0.2005758713769707 0.8887097781182695
Ni 2.2071291678023695 5.5652347996735285 7.0590574015696905 0.6499316846399646 -0.8176570851458176 -1.2327565483291028
Ni 0.7647020963955878 0.33756424027023835 8.864419421797937 -0.5672699466736746 -0.04104971885245833 0.6088896790969901
Ni 1.595065927177141 1.132532462465127 10.879312739536122 0.09842645699971436 1.5105182221594566 2.1789554218027765
Ni 4.1488207562048585 6.913062196745893 1.415991273928714 0.15025578296617995 0.7448362445293494 -0.6616628570339638
Ni 5.581555881269687 8.103820730186085 7.618854170163999 0.1175320674809137 0.047357149127724894 1.5202051104299175
Ni 5.756116154194463 2.9559846642957845 4.435290666602167 -1.2915887879759627 0.4103593773951384 0.5956436127203613
Ni 1.1259368947495034 8.106533350195674 7.035900336103212 -0.07383899746833734 -1.5868061953889188 -1.8019429952992
Ni 4.896016020384712 4.547312800690481 7.040308570426488 1.301300358836772 1.3782095105900007 -0.10528924555781867
Ni 0.7951433177339692 7.57467838216168 11.621619844314079 0.571123773202126 0.6515764193322391 -1.2276112566827373
Ni 4.450003228038793 0.40995762698769295 10.363440456020166 0.03426560605108937 0.42607575968913075 -0.7488685056171941
Ni 8.319415050948228 7.027001309456369 4.775518536420283 0.10262558268272648 0.9416241096187976 0.3933903536409677
Ni 7.053574098781075 6.103032129266992 6.793160763398956 0.48277166971927826 0.6105562681661356 0.9577750083470473
Ni 2.4809223426164033 5.364310400501708 2.6051503595170975 -0.5350008022273237 -0.15026066806218638 0.3006066967493275
Ni 2.169197849206741 5.443076176164766 11.045052007660486 0.3256209594054779 0.3015664895594355 0.9821225839534763
Ni 1.2276828258784138 3.464895766094824 3.914385066760726 -0.14984054980563224 1.0338176983349228 -0.9267896157091265
Ni 1.532494220802099 1.390013627990727 2.3663545189806277 0.3937382238986896 -1.5323887969803027 0.4867669069216004
Ni 1.1685404518231872 3.632860471303977 8.188636827870532 -0.1846355459976304 -0.2642078464053192 -0.640587010200271
Ni 3.910572883054942 2.6094043646090586 6.648639808580372 0.9458242637430743 -0.6940019354863015 -0.7137258962777902
Ni 4.250276373486589 6.831592873380971 6.058116948185136 -0.19931551660730837 0.29944121568631654 -0.6951288500018932
Ni 0.6293414506863084 0.1853690203476013 0.07998237212889762 0.5493784111052346 0.37192472756802397 0.5275554016928721
P 0.055926240966934285 6.243308151301339 7.5529810510080555 -0.2361116023897353 -1.2401194164520772 -0.9574633906438995
P 8.548853713297772 1.8060696602307476 7.832913456459176 -0.235059249865821 -0.6844523441246535 -0.16571351228214684
P 1.8081925802382521 3.495968420050822 10.289533808374285 0.4721923515415352 -1.0248610033622672 -0.3708363795998517
P 4.247064776552159 6.332679454694196 3.5242177718429937 -1.0355629631608037 -0.9947353876214804 1.225159452708135
P 7.065576761900429 4.1932478471311425 10.027367703139817 -1.0863509923469483 -0.7187367192288202 2.0546394986308094
P 6.245703240540576 7.738333741201753 9.922496361999858 0.7278808476219336 0.8466791834097805 0.7265163631742391
P 2.6791341217786355 8.558914902564108 5.500404088675116 -0.05429115724339682 1.7258730516178147 1.8362751929221663
P 7.194639411587445 3.9810102802270206 1.3900326798369482 -0.5523086973781519 0.18183664309625458 -0.1701538074416876
Ni 5.490615068640512 2.9320156272879756 0.3624205489734919 0.1953148800883475 0.7426132687361017 -0.24081286452014658
Ni 1.9280649822004718 1.2315929905076213 7.003049509833236 -0.47119990572127884 1.3677155530372123 -1.5031543255952178
Ni 6.875992747384081 0.6362826733262308 9.057923580481988 0.08680841314481179 0.5428375246629231 -0.4655136539697789
Ni 3.2541279130420517 2.2363510709825944 8.912499931044827 -0.7155097276510903 -0.3911686633993005 0.8884824925988117
Ni 6.588482243290786 1.79492886634521 2.4536854603662728 -0.22061839185014262 0.014493308520168587 0.47526970491527826
Ni 4.071570055931772 6.946248698401671 10.377023515145106 0.15654058753362718 0.40581366700598503 -0.14312791367214706
Ni 8.54829123021886 7.2433849209905325 13.676852271117946 -1.1942977301322721 0.012040218993985715 0.25882627037843164
Ni 7.74267937660173 4.117838825326104 7.994017682567153 0.8154287100359312 -0.46656035006673835 -0.4922035045561395
Ni 3.3753339442397547 8.400058794310231 12.415990201429931 -0.9419555248162874 -0.586937600305931 0.31846197976319346
Ni -0.04809593217002279 4.861795275648355 10.052782865998893 0.9395356025208851 1.4267370258767427 0.3164120392127002
Ni -0.22376665556026293 2.438491159389483 5.764999757918174 0.3108335166836582 0.2116771234964548 0.7532278110271544
Ni 3.6060427296707127 2.9474113334962464 11.453423795257956 -0.24640295701341433 -0.04109805559189051 -0.09533084879352614
Ni 1.171071625678289 3.4772613215231525 12.589125214811208 0.3932355732306583 -0.35870720043648546 -0.5723483896378465
Ni 3.1781745527735508 8.702656546149168 8.187880197406319 1.0489368133645482 -0.4499494809829347 0.5373091386455262
Ni 5.883364342336602 7.800624206037339 3.5603609385861468 -0.7404710255821183 1.1468174251631218 -1.0423195651583468
Ni 3.00594586293394 8.326600318665935 3.361147576651143 1.6217158627819104 0.7625048654537062 -0.18370712064609007
Ni 3.8538165259312276 4.60314378242631 9.3582641421591 -1.9227195378593402 -0.2517174272477923 0.20307472653942446
Ni 7.23948382866905 6.276022892955449 11.442920784605443 -0.1427589603685025 0.11499310310914389 -1.2289045215728642
Ni 8.158671902687681 8.816486791166952 2.3990592810962417 0.27447091889422404 0.8842080335931739 0.4935181096025049
Ni 4.632910024069997 0.6817149759483758 1.2348363405190865 0.7589230616397188 -1.5767246427832007 0.8594953613378424
Ni 6.2754694821842625 6.013860416644071 0.3896855553775681 -0.6577149281298091 -0.4812665459286614 -0.5258548740619976
Ni 7.939639177297998 8.945123042390922 11.172456239495483 0.4761433657694832 0.5636812008811517 0.08374211551466222
Ni 0.3279612025439832 4.840429990957443 5.60133260487806 -0.7385295855850313 0.7906617875038964 1.830353428121093
Ni 7.6127548576808985 6.133378998605038 2.4991377220654116 -0.08346803591766916 0.2869428261089897 -0.20434536572173193
P 8.846643142042788 1.821900837209789 3.6760809453029184 -0.7766060807417786 -1.3705633068986527 -1.3366324584791627
P 1.80033596174894 3.3907659396789236 1.7042357277169107 0.39763935872530876 -0.2699198091884319 -1.410909571926183
P 4.997380914589199 1.213874773521909 7.942379014230761 -0.5991313141586456 -1.1233897902678007 1.059189601440808
P 8.682017046076208 1.773980907809619 12.258470444103857 -0.10409933901477555 0.07961806604395966 -0.7755755825947352
P 6.45345001512113 7.9869331174651865 1.4287387735122388 -0.14186884445406533 -0.3679793697670308 -1.320817602934093
P 2.038438677975267 3.3713330565333037 6.163652382250519 -0.7128193253031208 0.5624463000327862 -1.1104622835728553
P 7.085363465047299 4.075380425176011 5.911312493512324 -0.8368670824153652 0.0025171099948988907 -0.7892507660889827
P 2.3422702636647195 8.37334992036966 10.236341053724706 0.30947237467007344 -0.12366029186583864 0.2761740176282598
