# total energy = -381175.92160334793 ev
CRYSTAL
PRIMVEC
9.18959854894345 0.00000000000000 0.00000000000000
0.00000000000000 9.18959854894345 0.00000000000000
0.00000000000000 0.00000000000000 13.44990637523471
PRIMCOORD
 96 1
Ni 3.023166468450871 6.449462233594223 8.929997627849408 -0.5359611092580641 1.0637090865777163 -0.24882725018419083
Ni 6.685184618691763 2.0422503704398154 9.518363494690737 -1.0293475783787112 0.7895767819698337 -0.13091851609014873
Ni 7.993746653245942 3.55289167084308 2.8749713309889016 0.0281001006703258 -2.9769502526329763 0.4925148651489711
Ni 1.7443052154894265 6.6791194838368115 6.710910899034851 0.9329561495311546 0.19163074636854094 1.0284471780516287
Ni 6.445813963082987 5.282796785851128 1.9059190043380636 -0.19568717582610168 -0.11495196545856332 0.4122447673433094
Ni 6.829396984265647 9.042114402522676 8.340111801455032 -0.6274856969316225 -0.5635480177373972 0.404746144973419
Ni 5.155805727426002 0.43815545047983073 1.8700207576753594 -1.3655882222815643 0.48656301844091043 -0.001478127207423261
Ni 4.156758552037947 1.5911238020088259 10.939279395553426 1.5304463285419512 -2.5342849640162806 -1.2581942716759171
Ni 4.692080219773589 4.237948652709919 5.2146899162291485 -0.577318074938296 -0.13274142823150042 -1.2745603717387661
Ni 8.110436172015914 4.1028247998201985 0.6980097206214676 -0.05582559161005224 0.7485147218222012 -1.2295763508289081
Ni 4.329201363482153 5.195559929520734 7.280003421434833 -0.953237782598326 -0.555301975678521 2.035790998465739
Ni 1.4549615245151513 7.544577469245414 10.87780006420022 0.0607669947757276 -2.546386118155189 0.2444016103126694
Ni 0.20200115426383247 5.610534618376903 2.2404185432672836 -0.7347405508562442 -0.15827891038097255 -0.16495477973925138
Ni 1.7128400310297962 4.145942394879949 8.975028497267948 1.4304394144289947 -0.20433225309560937 -0.27854611740486224
Ni 8.574207627659653 3.723073841114077 9.123945018193725 -1.4396863869485592 0.8079419147405826 -0.19344954474483458
Ni 6.689595625859001 2.340719332491314 13.229677406904994 -0.12399813482123159 1.0986105264405919 -0.26220315727046456
Ni 7.681392208215909 6.018901986080481 10.140112415149623 0.37175066388400496 -0.48384022019310874 0.6347038119466166
Ni 8.832830491633768 1.0753851681760662 8.612687232475018 1.2067043313267412 0.8423327335156267 0.21937912012640284
Ni 7.88409636674702 3.903934324569095 11.636898558248628 0.21867592341179112 -0.455402533677706 -0.3366209100604074
Ni 4.277509873241084 0.7652904453594165 6.101146133673457 0.6142995372586517 -1.5092347274613425 0.0962685301164471
Ni 0.5739529009223816 3.428538027120032 4.951918867598176 -1.250776124834975 -0.5986584882872852 -0.43501034317459925
Ni 8.860013323301871 5.939604942651115 12.360826621816923 0.3236142133880943 1.1045808850914136 0.15490073793735903
Ni 1.543365459825211 0.6363080009902482 6.378025972520806 -0.5790540837927962 1.465175532358599 -0.027728062042887726
Ni 6.0579118307157405 4.4669166830826255 8.793360248125428 0.5641023475789704 0.25101448764349676 0.5330647615468754
P 6.213206851797309 2.970261951238811 1.7339485382446824 -1.1012232814730905 0.3761673048944619 0.7601862446228586
Ni 6.207371456898985 5.552061204616206 6.133250914172336 1.6393955394498605 0.007218372125310149 -0.27656328264687857
P 5.906724560058661 5.51539470753854 10.909931494534069 -1.9877491645661638 -0.6514326946655232 0.22710888467049273
Ni 0.3560307676642999 6.178902081473769 9.004160442728073 1.3550076185522406 0.5863573023224289 -1.2699236442977033
P 2.144300859173517 2.1893298906724037 0.20282178538890402 0.623827531353745 0.15587647158706705 -0.7215451352118929
P 3.448415128167398 7.350575860271333 0.4081321139879914 0.19220075993939803 0.08236400422021299 0.212745159749653
P 5.983209586418914 0.26372033413175555 10.647685171964032 0.40068200220637445 -0.9811496785172457 -0.05930943639359463
Ni 3.2008565405044362 2.330592395203197 4.905127271152047 -2.2952181356529633 1.6864420993157019 -0.43041758159759425
Ni 6.008030691332892 7.818583720715273 6.434703738780506 -0.6029861691283616 0.4664590486021838 0.09031771184965091
Ni 7.283813428875534 1.0990759525034397 2.529496654851698 0.6110378357882443 -0.016795474290783978 -0.5701503535452631
Ni 6.831069491149891 7.583495417898024 11.92725586191154 0.2678469858198032 1.0711611719803875 -0.6695584577319567
Ni 2.3437794687135853 0.35948238077266353 1.4205786426063585 0.09295746346534313 -0.003734013121135505 0.5693486835795742
Ni 9.110402307230478 0.14209508213360944 1.2833457769148024 -0.02745449666652691 -0.13850661285005178 1.4095147484611854
Ni 0.6905312255533465 3.020859879286336 7.281954373146509 -0.41892295069443336 -2.018311096513421 -0.018647954118490465
Ni 2.503329273791886 8.612188237289223 4.695805682910252 0.6288733213077685 -0.9095156591200272 -0.12782676453870245
Ni 3.8880179403739783 7.137891798024346 11.437557792682536 0.3050999566339907 -0.5860318006622101 -1.0720939682073019
Ni 6.894128514444863 0.8176380729166121 6.152350575206477 -0.2674230109085072 1.5816465055648503 -0.031481358437732886
Ni 4.067215106543018 4.753567821765232 2.9776880655968214 0.11761100034796518 0.17414493087895172 0.015152796481038419
Ni 3.899844953341135 6.732171034621111 5.65832144831514 0.6745386845553674 0.5495380766115504 -0.7098908388024161
Ni 9.014251540582956 2.1024514286743474 13.187511854225505 1.0362101098264993 -0.9301395060179658 -1.110207744359888
Ni 4.033985519216492 3.0451663666974698 9.091571901425503 1.7456474060312648 1.8704893769100301 -0.862539804591121
Ni 2.2699686154484713 4.3975903537708705 6.224764609535299 0.9009482291659903 0.49747195204393035 -0.3299910634487156
Ni 2.877906488674768 3.2080336167494634 11.537732684410335 -1.3434659364612282 0.5523300375343907 1.3093499686141257
Ni 2.363390071411264 1.6624810325371637 9.126097222107406 -2.7465876369118765 -0.5627031532385987 -0.293563673859617
Ni 7.330524156856931 6.5180258262499775 7.9205018792339565 -0.2372889105272881 0.5138563069392247 0.17387573637796505
Ni 5.642477661946317 6.640146397594611 3.6824227342286733 -0.7901141425305425 -1.147764105347107 0.5555513726851657
Ni 6.888256361153477 0.2059885209510502 0.2515790369039333 1.082293020227491 -0.8025369416749275 -0.6188542465088697
Ni 0.5953343392057406 2.490123821084967 1.738991789772558 1.3839551548245264 0.5660450731276381 2.071485109433239
Ni 3.5782825308494934 2.4054049146792047 2.1944733088213684 -1.258564510531142 1.2310984439003894 -0.8574639327301103
Ni 7.762223914555543 5.297665555844026 3.951756993940566 -0.0152965211477543 3.9677289695995537 2.614446561268536
Ni 2.438827483569297 9.154641033278567 12.42578972987242 -0.33933085279240266 0.5801917969416653 0.3497073109307203
Ni 9.05540256161398 8.164755887360796 7.532189890784088 -0.9731378639563628 -0.5402283691748502 -0.4127795568008569
P 7.5030680538820524 2.536586429913206 7.523057268028252 1.0608276512648633 0.3779984445659297 0.0012102182580172706
Ni 3.781391031704268 4.903918838980188 10.39576887680377 1.0125662451553141 0.9760601798094802 0.22219859185306892
P 7.951502070021374 7.097172688111781 0.5922962580193055 0.038920845434913615 0.5021045657199352 0.2566187212041516
Ni 7.7554511806341795 7.561458761258364 2.9749174017198996 -0.9246638276153752 -0.13519760308147685 -1.1472563124727533
P 4.028738258607132 7.958412647916713 7.631637885289119 0.28364178676021473 -0.1738808785842876 -0.4475221024883647
P 8.040595225201315 1.6164870932204438 4.404924572146229 0.7215721317950864 0.13589900002387564 0.7289581398465123
P 0.266388074508108 6.692214661364549 5.33044025805643 -0.895680810119464 -0.8270673227161242 -1.7168744476636302
Ni 8.311081860535648 8.297150429565788 10.058176119098526 0.7341036886031937 0.30696426353623907 0.2302841970746808
Ni 6.054667902528168 8.773805701977167 4.209376353784135 -0.35738899584569417 1.277600958337303 -0.07370247189047308
Ni 0.7659079863628298 7.857014620659832 3.0706941517180324 1.1595389864948484 0.12974300772480882 0.9029732300158191
Ni 1.3398801854415678 7.290099114088848 0.8884430085892188 0.024759466332867037 -0.1290927757353196 -0.8935807330573255
Ni 1.07291316624276 4.152117804914082 13.030255772874169 -0.12446093339026308 -0.6242779886276023 -0.850655137338393
Ni 2.274857481725493 4.987057134484358 1.378951600385204 0.5653614167970521 -0.5285776723097994 1.4491519032368332
Ni 5.909196561991968 5.771775309535978 13.025991799279174 0.24056655283729536 -0.8922293612357538 -0.2722615699477311
Ni 4.568617967082254 0.8331602233461569 8.464604208111883 0.7470414797107844 -0.7218868348220278 -0.17766014312106176
Ni 5.793288159074528 7.550991808834439 1.1522065338328202 -0.23811243486984798 -1.19796849411564 0.7824900503263814
Ni 0.9167396195670496 0.9374860566102918 3.8387911003876036 -0.5400383646512312 1.059715134926975 -0.26720446713979784
Ni 2.9690948722591464 5.5591096264855215 12.724848664132535 -0.2486727268841975 -0.4795359363908 -0.31782408906887843
Ni 0.022883018639873038 8.647421157037536 12.605978453694261 -0.7636932293348525 -0.2861483552321523 -1.1906228523838462
Ni 5.511195061131399 3.3820386598987326 11.46449801895644 0.05794289506337118 1.3185776578599808 -0.29191508251260045
Ni 8.549717348283217 8.584086445794611 5.286068282833496 -0.1051915436376898 0.46458522861823864 -1.1503136112418382
Ni 4.670245734295762 4.10130851610646 0.4895593062952027 -0.2731853673135811 0.061410284786681334 0.8962755062806693
Ni 3.476783418011696 7.6448176071208955 2.581668761082031 0.5146644046628168 -0.27331829334701957 0.14775641358309394
Ni 5.328230159673678 2.1732389041102507 3.8125373371040996 2.112506289040607 0.8341741089642344 0.3830280365700371
Ni 0.7019731943531962 2.5780039492939166 10.677799485478696 -0.1639178538343048 -0.17030010321156477 0.7243414670101074
Ni 8.890265480790513 5.10027298511013 6.821537120869524 -0.1503488569006185 0.196739528350016 -0.8098476164037278
Ni 5.470659743184137 2.824239234806707 6.940541499442469 -0.7856247393006212 -0.12315995519065241 0.28459463759178727
Ni 7.942569780507717 1.3932441825668813 11.420207831158066 -0.9947338449595836 -1.6682677423995202 -1.3701087358597372
Ni 1.9601964475309257 8.618382026519887 8.212674128554223 0.25923944665645027 -0.5704745696539014 0.21067207927070816
Ni 3.2161847904105882 8.924561061515787 10.03646753111693 0.7236269574415861 -1.3760605825677976 1.193105509596384
Ni 4.715936416869734 8.67163574846602 12.740988355565493 1.3441439363648593 2.0773235704918873 0.4134087057444235
Ni 2.206036580318317 6.081133945531595 4.0295248882186225 -0.812787158648026 -0.7385203296136507 0.15843909010792068
P 1.8348319479987192 3.6936671266658245 3.3483946216904523 1.5574573099131566 0.7898724588333815 -1.3306119633166955
Ni 4.387775862823766 1.9923140934673766 13.112555058056735 -1.3365332138971369 -1.1391956469518056 1.5187611788945392
P 1.463186214962397 5.304658840123751 10.664753012821762 0.21471565321246247 0.004242834436753984 2.214728465637328
Ni 7.269496034778541 3.5383537263877254 5.310292063860245 -0.2009653935059055 -1.3747117818493875 0.8915541895456001
P 3.747490603704392 0.7475067347968357 3.5528595072491522 -0.28569841217892733 -2.2375542052825916 -0.1472416787302045
P 2.9724490756259 2.56029559343711 7.1874283274722535 0.11742305270687518 -0.6144489183523225 -0.3372909395442385
P 1.036807234659265 0.3465544539333505 10.631450827668946 -0.9819824588311862 1.9799502373470352 -0.618197072540845
Ni 5.4185455314228745 7.25134657820501 9.547375056413593 0.22654118509248083 0.5454381955105639 -0.5302352625178804
