# total energy = -340857.396751184 ev
CRYSTAL
PRIMVEC
9.38144697881267 0.00000000000000 0.00000000000000

0.00000000000000 9.38144697881267 0.00000000000000

0.00000000000000 0.00000000000000 13.73069594468160

PRIMCOORD
 96 1
Ni 2.673365195793323 2.7775649242832543 6.7032434915164405 -0.8621700799565281 -0.715932931231438 0.5418713040949119
Ni 5.819742934169013 3.9267264748295063 12.739201565910566 2.3338867558677547 -0.08494950555920208 0.1461391896946451
Ni 0.031323712384535275 6.529121026342075 13.250629256437524 1.1672643801635638 0.7782513296546855 0.0876440216722297
Ni 1.6510501860692886 4.262094431438679 7.999736909897659 -1.0761164591031338 -0.7200955472495598 0.13273808579739074
Ni 0.5183127342596285 3.339035127794007 13.465335860033376 1.7855766381260347 1.9340586170212435 -1.7927109351779704
Ni 2.0106128937161434 1.840836852797597 11.396038264633978 1.084628610339203 1.6403491616123815 -1.1590579330933715
Ni 1.6684152439098272 0.43777770506886426 7.790343957712333 -0.6056300345091118 3.772938337445793 -1.1428856942088832
Ni 8.698083358896929 4.170240686805122 7.034646848750458 0.29502406045522733 1.4830994638268717 0.8809944117518828
Ni 6.122060054056297 3.9305165792960524 8.579845233566056 -4.51144426888174 -1.4818797324871575 -3.4260795517074607
Ni 6.34166095839521 3.9477502968828 4.241796733359916 -1.6613597024257776 -0.78779783569254 -0.699199420526841
Ni 7.698049285083904 2.586661865397721 10.353933093097616 -0.9190032868954882 -0.9969226250807863 -1.1083349528172073
Ni 3.6085547100202833 0.636020807851987 5.932910387558876 -0.8875890342502649 0.4957989352168817 0.12443496524833408
Ni 2.1391293320508487 1.0829003925085827 0.08145159653329304 -1.1240500495596188 0.4042468367394973 -1.1850062775280172
Ni 2.322696099617473 2.8383942246819864 1.5895885761630186 -1.1327588901875265 0.20476882641239572 0.232373989724174
Ni 4.048938580982233 0.03504720857951627 0.5119943299076011 2.1345182745353237 -0.41138473333585923 0.011665095042754104
Ni 3.254517674479359 3.086843077621472 9.433702295632804 -1.4620603837683852 1.7710977277835693 0.1177308137552811
Ni 7.091435560055771 6.320111775326752 3.53204338331888 0.21823909298468866 0.9660768433445234 -0.9269189421981391
Ni 3.1132049428467092 1.021958514749458 2.986769309389924 -1.2875274734223956 -1.978403461685206 0.8924872428828305
Ni 2.403029427704201 6.526334736672361 11.443957756229704 -0.3684519385280751 -1.35601780498431 0.27850240865112036
Ni 6.948434168017234 6.375424785066253 10.138786499651564 -0.33025768684654094 -1.2010425050552733 0.5800429300686268
Ni 4.9936408821623575 5.992830625772439 4.686204306811227 -0.6476819693738394 0.60737812754847 -0.7065322067428284
Ni 5.373364318766164 3.0687837927251795 10.493491494197484 0.24993616697765345 -1.6619837091630216 0.7500072472073277
Ni 3.141414953071722 5.72183815641436 6.242990654589889 -0.1589278568188811 -0.7614573980257983 -0.2054349992414849
Ni 6.282623514316059 7.989174339058836 0.8406320366546439 -0.10103278427430988 0.7750117396714652 1.0531243690833347
P 7.803628086238644 3.334119249723536 13.267765406978599 0.3270216964077465 -0.12122057207609448 0.3712536696429284
P 7.495053541402879 1.9241440994880257 2.8562321074361736 -2.5874324945735374 -1.7454658861480778 0.24622169424054366
P 8.592016722513822 7.251145308665891 1.5845770073362138 -1.1312234273796067 -0.7477233362691573 -0.5152727276707771
P 1.770429095318805 4.289675884734835 11.14937939172473 -0.18890383435568112 -0.010390856316020814 -0.1013883678415157
P 7.023814092246693 1.4813491967243368 8.218288030350914 -0.7019924098909459 -0.41108494270725326 0.6319270205324279
P 4.115040254426013 8.267437429608927 11.976983413347957 -2.3157383670935023 0.008453530083991892 1.9855030488444647
P 8.050285082858549 5.720337124942461 5.4356252279312205 0.45945202115673134 -1.8626973916694372 1.1292099964940037
P 0.8699406142881541 9.636528235128571 12.097058425942565 1.6861515646584768 -2.850319565284904 1.0138985908134925
Ni 4.605539813656011 2.160228205677738 2.00871877962754 2.727430090146819 1.2403006792249478 -1.3782989849800131
Ni 4.782211217898596 1.9259641001477041 7.7045815864206775 0.40804384188808435 0.7645139254639348 0.17713820917932074
Ni 5.33783678011564 6.299763417435813 7.961496256861676 -0.8423769564900009 0.5178762267318952 -0.20013929806018435
Ni 0.5461850124034646 5.432448670078813 9.695423081217893 1.080142035322759 0.09011793713401899 0.7697036971949904
Ni 8.81006968814734 8.514929374985076 6.946661074591052 0.7981287853049028 0.3298776777993029 1.6660367961864726
Ni 7.178607962786341 4.139103665209904 2.2524797236513487 3.5173447150720456 -1.4570379908531295 -2.962369526605324
Ni 2.1997897664089923 7.596532650349993 2.2324465823695085 -2.186245013485654 0.39438614189533366 0.7520764710315305
Ni 3.531364166577845 7.82686592971299 9.941078139330305 0.6124519425269517 1.2712030252307591 -0.4895089884431118
Ni 5.120356082730783 9.200572407008725 8.778321934371993 -0.31165704102621805 -0.4756481713006195 -1.2560340307998044
Ni 6.898712500510559 7.3738921572804825 6.067676745684703 -1.0760655512605404 -0.1367189248220097 0.2988807151971562
Ni 9.153402493004279 7.411492995651567 4.937201160674262 0.26602613056098057 1.6152680502740375 0.7952483784333143
Ni 5.879127491776042 8.189233689922958 10.960994313133309 0.9726519254588797 0.9071317322688828 -0.20478810968610536
Ni 6.9835207786728875 8.030433941642675 8.648278196514628 0.2447073144785463 1.0247095653860676 -1.796530566034377
Ni 7.264776550720079 0.8568825786272972 0.3625619561566442 -0.1569707330925103 0.5923669988516185 0.10601223976677228
Ni 4.3244247633093105 7.104025461526328 2.276206340498732 2.273005089891034 -1.2255744287583668 -0.6170799282172663
Ni 4.18177048479865 4.334078271962965 0.7137714236623777 0.03473560370897244 0.4761245967164058 2.4787581345935696
Ni 5.903735026468497 0.14313085600298833 6.221569997341212 1.8206284875238452 1.17283930314818 1.1783075253516029
Ni 2.3598372471002893 7.772416013069831 7.113860032101281 1.4765364658973732 0.8504013694563742 -1.4348894797805483
Ni 8.9661769612249 1.8111258111006836 11.922610424567733 -0.8240357349786517 0.4525077286284142 1.0528294635507351
Ni 6.5757749607780545 8.765010599650253 4.044994620789817 -0.8250958008120499 -0.47629968884168944 -1.3163104590923587
Ni 1.2026920854128718 8.135928309777121 8.99143650646296 -1.2900517825061462 -2.0784934224302716 2.4111813159848605
Ni 4.5673948513763625 6.520227414871069 13.482732814792692 -0.25282840092378395 0.8017954355232126 -0.10947808682818566
Ni 8.484983797120679 2.9601466399464442 4.342648223522842 1.737862362769207 1.0075775336914712 -1.0280442861862553
Ni 8.465733068493567 5.230231586473836 11.625615399393004 -0.6010712114938358 -1.3127767349074877 0.6314691070594028
P 8.70925666191588 6.935684781952786 8.944999283445737 0.9227002761311013 0.9443263390413092 -0.9189140696157916
P 6.090566537486502 6.044569304319478 12.111420482694637 1.2034421156357016 0.09711982237314887 -0.9345404632991389
P 2.417054690519763 6.562950523140013 4.2502541075594005 -0.27603852049166006 -0.05658021038788965 0.4235419375236835
P 1.344792858568269 0.26972597405366244 1.9514197176217818 0.7430945792478943 0.8692239014795159 1.1261979491405572
P 4.013317227864715 1.217955699192751 9.78324374191539 -0.25023852870942065 -0.3458863945227334 0.9673906770599403
P 7.224548907273169 0.21230870581949216 12.033526330749746 -0.2952567452913238 0.49329108119336335 -0.2197323897007635
P 4.295445474454948 2.3671453940791007 -0.21545430489779183 -0.684147668400041 -1.0534740391132698 1.9723850234052676
P 4.88893455555066 9.24835211504863 2.5766471710461403 1.6576555141013127 -0.2930175715481599 -0.43322111248466033
Ni 8.831609489769098 8.103721803258175 11.642229003352924 -0.09973412006754435 -0.5709386537745136 -0.667495661665657
Ni 2.409577677500363 7.743427342768769 13.583173397590185 -0.6798140740216937 1.5075115741226488 -0.9797821087457579
Ni 1.6656758614736105 8.894127450573718 4.868053331487196 -1.5662718228809926 0.3058332352555894 0.13233365127012048
Ni 7.791366535402564 4.441918001772253 9.348860244262358 5.4340211320611 2.5183369253274566 0.9587150036628134
Ni 5.639093796525894 1.663199159544976 4.371853605242658 0.22406444141721413 -0.12852790437078512 -0.6198343510339519
Ni 2.566651239587959 4.938656223057334 2.5996870659951297 1.2436045467872001 0.7860533421976075 1.273442198973923
Ni 3.737099292695087 8.349365603634547 4.234917318495266 1.6934295863771287 -0.6116772691444562 0.5527362718338739
Ni 2.833947418946484 6.074261583122993 8.700098493647953 0.3108882811809936 -0.7006240687885095 0.4790947350883233
Ni 0.04976200772748224 9.067449678344628 0.4156196661096161 -0.5962154260634313 -0.6495514184824103 -0.6203567991963252
Ni 9.051998435630761 2.327855895302128 1.4839591151961022 -0.30533161302882256 -1.3872266264869464 0.39451469705339803
Ni 4.788609364547569 1.1681402172190825 11.896988755487078 0.4317113607083533 -1.6457839594747075 -0.3838150512477067
Ni 7.2280106611052375 5.9013239946667575 0.2652801064628298 -0.0924445283846666 -1.0722662321191083 0.1759020227793745
Ni 1.6459279161714309 2.1768802735691244 4.215076496870763 -0.9265062801407528 0.606256098128885 0.8973330010109063
Ni 8.476681216791734 0.25113569927418566 9.82289817896897 -0.5178111778219145 -0.012011165528263186 -0.5844868247725934
Ni 6.373126330624906 4.668986537683868 6.188602655494947 -0.5353682128690714 0.8979459520045566 3.1782020670310493
Ni 0.9688782893244078 4.2348976174571975 5.363896562757158 1.1678909580039694 0.011115650297187307 0.8807231603683672
Ni 8.348343025944317 0.4743587801837279 5.019860149397764 0.6758304067835974 0.7597509568576528 0.553991998617846
Ni 9.032325541902177 8.77506751051198 3.076074114955262 0.09115537725959784 0.2780635213414889 -1.4161849613925093
Ni 0.6935787977866479 6.203153279325673 7.044093965576726 -1.1384543979104071 0.18253701159738886 0.2702833631754378
Ni 7.607762242049143 2.404586747856297 6.30355633633637 -4.967609391757083 -1.5138596278278638 1.5478616958049214
Ni 3.673605661433733 3.9405078200308843 12.225701513807714 -3.4198698233523235 -0.1881844396911533 -1.1681038453457238
Ni 4.645748694209522 5.184468889474296 10.612962341624653 0.18712771629186484 2.264252283399068 -1.2551644837106577
Ni 0.7061292971810685 5.562156552144339 1.464213984327933 -1.2449111814137654 -0.14274301952890256 -0.7418468228837224
Ni 9.427697231600538 5.603782031149455 3.7491938537799183 0.35453764243982816 -0.2063225440527608 -1.2895918121505918
P 4.463026256845842 8.037742088621489 6.493410549480913 0.17110717249389243 -1.4892737109583836 0.19624664787399748
P 5.494019104766795 5.155893002828007 2.442251380064938 -2.687935631596622 1.1290678144891846 0.6102549348756329
P 0.17020852561138755 2.0846043638340954 6.204585826236667 3.6909815959663272 -0.48369083909943794 -0.41278238501433434
P 2.521263800456394 5.737289399128227 0.3446462073948523 -0.020017580772507457 -0.8104831931051978 0.007518162753916084
P 0.5194854150970502 1.8561379923642736 9.547076140850054 0.6171470340097758 0.06270432100775652 0.039593188911589874
P 0.5430112689850669 3.8118881857824856 2.7607214748792006 1.5659167535344192 -1.1625214661619399 0.4017631510856952
P 3.7873369397702272 2.7499740895403995 5.025970285633066 0.8003260500665378 -0.7965850949668668 -2.2402410080861355
P 4.111259531406166 4.269965465219452 7.719259797926516 -0.16629843825133941 0.32663217427881164 0.08295072996161842
