# total energy = -340864.7204626302 ev
CRYSTAL
PRIMVEC
9.30401166324533 0.00000000000000 0.00000000000000
0.00000000000000 9.30401166324533 0.00000000000000
0.00000000000000 0.00000000000000 13.61736153306856
PRIMCOORD
 96 1
Ni 7.17860324356283 7.079487607249808 0.45896317404175563 0.1228064285059756 2.188101864188735 0.5550363807219603
Ni 7.514906049361241 6.764770108524166 11.945027022516868 -0.2071272993422433 -0.0717214369047023 -0.2450672689211263
Ni 1.9382396229829688 0.9360580060246374 5.063602285281888 -0.9601123982309724 0.4779230833777254 0.7010475294791734
Ni 2.513004247865463 5.659611690410055 7.820709374506529 0.5479139107445661 0.7447071751506529 -1.7835976600227927
Ni 4.557290995855079 4.669850929030235 7.145397225915108 0.45369480695797987 -0.6294127387510063 1.1695092103336826
Ni 6.666147584829618 8.09476927263851 5.293708171485776 0.29142220203658203 -0.8436923328673148 -0.8558063425220294
Ni 6.16992742645933 8.738197503640416 7.669352643071572 -0.3985960662116232 0.1289945595945585 -1.3299463047082385
Ni 3.9829450514977034 9.320479769951703 4.548934132573717 1.610494283034478 0.032125676889951126 -0.5149875923301904
Ni 7.816253683318103 5.4072217658570345 7.7442750578409205 0.5775726141512634 -1.6247847315152213 2.7035756521267245
Ni 4.996105402225806 6.44599606071071 1.6687535769876145 0.316431579596726 -0.32485348511183404 0.43125858944165085
Ni 8.562156298845647 1.1141647014099907 4.248956979535742 -0.6529684145837593 1.636407403355814 1.0485575756482588
Ni 6.241354324044522 0.6358631391136012 10.156168889291465 1.3283817884345963 1.932956127985684 -1.0476774870361505
Ni 4.583416660622466 1.3874607401839223 1.5238780200814892 -1.1348769649717938 -0.39309673365994885 -1.805238121110704
Ni 8.444320991054 8.906860627181434 13.027280824703503 0.056828578953269863 0.31246565297044254 -2.105686695015612
Ni 7.963080291471279 2.209060794652867 9.448420164817373 1.930660904193604 -0.010649252183730046 -2.315738881314134
Ni 2.097673166948043 5.520860964385829 10.07547240488015 1.7653785659116048 0.8375121721985318 0.6761088572559646
Ni 4.6312299765909835 6.500368704906083 8.61751609867913 0.9829857032847199 0.2320564584837552 0.6212026921363882
Ni 0.6136777232881624 8.686309030560746 5.749386099007102 -0.5200331251738979 -0.16765315250702092 0.21747804644894805
Ni 3.7046434544456903 2.0915883433163227 5.886431399692347 -1.519634839748744 0.5910840183741369 -2.112879870329942
Ni 0.6630662084322919 4.510798849543602 6.715034583744773 -0.22537159026441186 -0.6302588888013856 -0.6062962073382009
Ni 8.080617870889508 5.663556591357837 3.2934675451397784 -1.124316158736812 -0.9630624819982316 -1.8968418987616298
Ni 3.5824910852394893 8.484123552975252 13.444666231397504 0.31981515135697824 1.7347916942636834 -0.425496490146893
Ni 9.232826676015256 6.442302368078 5.098938921601878 1.9353328557479765 0.020348738859681085 -2.450548762038889
Ni 0.24264397232943233 8.736066884968148 8.599064382736582 -1.057615572085469 0.49283753859571255 -0.6178923968162325
P 2.021771039749918 6.5524711702541465 5.431611302046929 1.0460497216247404 -0.24980272672358267 0.09723166536066481
P 8.923403159929443 8.494655694184896 3.71360414808439 -0.012058473826430846 -1.9333567058582124 0.24497985141364262
P 0.7548484227475734 7.605238698658446 0.5079125098350943 -1.5560979676717845 -0.07611159555259796 -1.5597345359831074
P 8.067582950540825 0.33059758584279814 6.876604328789117 0.07052098883869791 0.6565484186255338 -0.534329487191912
P 5.630220317546746 8.757373071690838 0.7444567721141355 -0.04858639354913567 -0.5776530896802116 -0.7193797521294578
P 0.7707582827020714 5.312330150841874 12.124040859039978 1.4085158748830258 0.28917351521172135 -0.39887040291893244
P 0.8082041384674912 6.684532311888149 8.432428603338304 -1.5227631009650806 -1.1971377706842286 -0.30111860338873947
P 4.68832869620546 2.818194438641745 11.869614286332547 -0.31429165043558777 0.33184148639389305 0.4774952518116873
Ni 2.142899967672496 1.159093773761026 12.558380035797772 0.8929973497500298 -1.4911609006787674 -2.6036137323190904
Ni 4.727033384749735 6.514799227005162 12.94429648382271 1.667669189583573 0.576186275326698 -0.2819818825592886
Ni 7.03049268179929 7.8726546020573815 2.666823751189283 -0.4993632555293723 -0.7617577028750365 1.3620053900263125
Ni 1.513399842139527 3.5996383787460036 2.4685692185340673 0.869116172257058 -0.03683002434415592 -0.18140572620642306
Ni 6.579006211534982 4.262698074370127 12.970782213841698 -1.5508079229174387 0.21799740928752778 -1.7432182277644817
Ni 3.89087255201834 3.3976575894172343 3.230759436889883 0.7457258462231544 0.2671183351838948 0.3403299834808784
Ni 0.3536613003698186 4.313823618492915 9.663138146121412 -0.9928001182719806 -1.4649019669822383 -0.8775761300989532
Ni 4.37145266677254 4.228757039800532 10.261280961125347 0.6036669972454699 0.5743805895765269 -1.0752266002990127
Ni 8.9851445813669 1.5347432449088942 11.523814875823284 0.06690241824950413 0.10450120243888454 0.23238684523998043
Ni 2.5536069547902756 7.981092858063039 8.669302227630439 0.2932589981350046 -0.28740356779549214 -0.20714683972626904
Ni 3.397536637265534 5.994072301897945 3.6238520691153493 0.6823985469194184 0.5668745110074689 -0.6270830621765652
Ni 4.172942273796419 7.429541742295441 5.760294122288186 -0.1226022829149695 -1.7555903761765894 1.5292713343972437
Ni 3.525401669636683 3.1569721115441887 -0.003985838599126855 -0.7499272858990117 -0.23865288075435026 0.5087668082314593
Ni 2.8985624914411328 4.492525770625103 5.326702988068604 -0.6749109802931216 -0.5235172270677564 0.612134668396849
Ni 8.590198590016907 3.8508839098637013 12.148864892574828 1.2328779043983156 -0.4816293285847189 0.19727200381471832
Ni 0.39897648920512985 1.5008022103392988 2.144802638058867 0.5212726540079539 0.07931904674630211 -0.276540142718427
Ni 1.889328433637474 3.303054398763822 11.641373854468354 -0.26924206639511694 0.6554680410771615 -2.263135910406438
Ni 7.611844546943646 4.966955933665898 5.554249340662268 0.30939344180302203 -1.2923022691032195 -0.41909238639276214
Ni 2.686924137999633 1.337749405834868 3.108421917851463 0.2866417499288031 0.447566582573055 -2.2333131706180507
Ni 4.562315162156501 2.137643201079343 7.838153465985294 1.0902927506035158 -0.751517513204267 2.9038072527903993
Ni 2.4672192064408525 6.707289924431249 0.7364339228517006 2.4284776411714626 -1.3831676259262244 -0.42706177775148385
Ni 2.4363857117688017 3.4295331333962458 8.317294250134255 -0.23548553876996217 -0.8048704749041107 0.11360496451236565
Ni 9.238343954935148 6.776781587589229 10.453926105145145 -0.034546884736934055 0.3454925015184243 -0.889132981698617
Ni 8.855642042941954 8.784671041928556 1.565097582979976 -0.18830528153973378 0.14541311016189795 1.7804740267921468
P 1.0160259863222454 2.3092650003311963 6.29666760381966 -0.44709015715726874 1.3506765952770545 1.3506231163312998
P 5.507370147465347 3.181860342759559 5.941350189372707 1.8896762342511264 -0.2923308298937804 -0.552222822532565
P 5.250244480972654 7.332575332678026 3.779866388791957 -1.1138589679592301 -0.22802265473401376 -0.1997078669497206
P 5.367195907655718 1.4342506148688172 3.3961559219338096 0.18167312093519677 1.0942985293287992 2.3669534565147368
P 8.271219853946729 9.11933634167317 10.2923563601008 -0.07680322230298385 0.08309676862117947 1.2201928527314791
P 7.023831009444073 5.201612411977239 1.0814973860379218 0.5040969135596156 -1.4076121321218338 3.137492762237145
P 1.12714379768866 2.215006058109548 9.763893149290562 0.0716515028987153 -0.024940729105737695 -0.024051384522248902
P 5.676740375893231 6.200993521423112 11.035850167007164 -0.5201956188936911 -0.44163761868312973 -1.4152598784750787
Ni 1.9481390913991008 0.956657087860461 7.965489100092461 0.4688398901295345 1.0941648319644126 -0.2930466250138824
Ni 6.015880905250778 8.863438804720824 12.014107448359065 -0.6491372137631272 -2.572417509221944 1.355552435312117
Ni 1.1950816908978672 6.071230470671425 2.608446660371446 -0.6610208525745906 -0.3438040580724079 0.8166669533184064
Ni 3.229636442681399 5.1523755822233195 12.221609238212395 -1.2296506557102693 -0.5082304761120151 0.276908067580807
Ni 6.69086834383494 2.9237949710882662 11.045872448377331 -1.2438544580144772 -0.07163813316227662 0.7416280220046969
Ni 1.4642746605256385 9.289636971267983 10.70274235881599 -0.8925129539144435 0.7549995582155965 -1.7457101409483997
Ni 0.07362636594381525 4.911336551906841 0.9393199925158928 -0.6867761071618237 1.0404807121773951 -1.5490832269168482
Ni 6.884363874521311 0.8230980003477019 1.950346933368225 0.7794278664612898 1.2941182392660358 -0.22174067838004388
Ni 1.0778697518880629 2.776056569791499 0.022541759472372885 -2.1518644791232555 0.6910346253278615 2.2618195055878596
Ni 1.8309364564009658 7.270024462225343 11.707663076809762 0.9583452790282204 -0.25816549686598117 2.128312145724612
Ni 7.950864124149492 3.139434049547564 1.786079955340951 0.32500518019834995 0.9820919878258568 -0.50927614376771
Ni 6.924808413247745 7.563807934695066 9.541236054829115 -0.30819890727428856 -0.8730772137873352 0.6351295866301255
Ni 6.0392525825640515 1.5615667105514777 13.049463449325442 0.3542203683097255 1.112009573455317 0.9943106413792359
Ni 5.382733607143445 3.683672212143095 1.2525479189732804 0.30809863425099837 0.5241764579183102 1.457528814446619
Ni 7.838052982659266 2.6169393622231807 6.5688927508504555 0.43027462826182666 -0.13775919316106597 -0.027489463669520396
Ni 6.9302419560626145 3.2009056546466095 3.805738984441938 -0.8781330310436877 -0.3808834794232086 1.4422302364163355
Ni 4.605039183741912 8.789871984451693 9.341905048023762 -1.7897096864578017 0.26173290250226533 0.5134405595580448
Ni 6.064047773662728 1.076967262756141 5.6213284735943985 0.13255810857610073 0.5693962489880581 -0.16766060870618868
Ni 3.611696377869413 8.401727225631959 2.2730509957107916 1.3112281594734452 0.0635566417057228 -0.5756918521887827
Ni 7.524898557894066 5.0565907820879055 10.266414914764466 -1.5213286825113992 -0.3739157898561238 -0.44316793928472714
Ni 1.8527636677771369 8.118568934488572 3.5759326874138018 -1.339876419337757 0.45408998551386953 1.5007945671137894
Ni 3.5387250143471163 1.7494891382479396 10.441901600463746 -0.6892111989658776 -0.7108508887228403 -0.8793018545408082
Ni 8.398628989746081 7.398475647331658 6.814958738671856 -1.327681419933462 0.6826831680393727 3.0658273753813585
Ni 5.421987232376209 5.094197597255204 5.008642557950183 -0.8311880297527169 1.1846866894050694 -1.2114426173426749
P 3.234772257122851 4.8905606938493 1.4858171691447288 0.6997694340976981 -1.3574787058005524 0.9238451883688219
P 2.420568891930997 1.148626760633067 0.8950868602377208 0.1484935488594346 -0.06410222979654766 2.8706698468064817
P 6.263581607922473 6.566706308108171 6.964327202813084 -1.461625867334128 -0.042545843782010595 -0.05419936886053891
P 3.498196739515658 8.74899946118847 11.275706657440475 0.3887520835380079 0.6479956439595163 -0.3738419991953949
P 3.6623753294320736 9.271903525026303 6.944500353945812 0.6370067490481803 0.25092912701854203 0.5715618891808091
P 8.153561322376799 1.8945758962189578 13.683677917571243 1.125857792192319 -0.5691285971489681 -0.5349074711825691
P 6.068606739380684 3.2542641615700285 8.95789499198986 0.37587625601660424 0.4036505979163951 -0.17206696530400042
P 0.1257688385420567 4.078078570816266 3.998316209176549 -1.154189806367793 0.465027972582612 0.527509121835969
