# total energy = -340890.5674361435 ev
CRYSTAL
PRIMVEC
9.08656202386253 0.00000000000000 0.00000000000000

0.00000000000000 9.08656202386253 0.00000000000000

0.00000000000000 0.00000000000000 13.29910200568665

PRIMCOORD
 96 1
Ni 6.297587297495679 2.167454020859246 11.247356650284646 1.5272640741592278 0.05549263375066572 -0.12001652446566426
Ni 4.738614912406761 0.5086811974793366 5.960285023151912 0.03742369206409683 -1.5316814865006332 -0.10127832462621268
Ni 2.7636142783259143 1.587286112813257 4.8137562382785255 0.6775427614890138 -0.016672575559674514 -1.1821870629116673
Ni 3.8790443041695997 4.62388797843773 5.232851202003112 -0.8611367535960073 -0.28003915701062093 -1.1389498494895869
Ni 3.6301361066237683 2.9433101318164545 2.5256590228208142 -0.09541749497006147 -1.1249206250900303 0.2407922956948563
Ni 5.200739291291362 4.697652690140613 2.3527708217086682 -0.589710535065378 0.32569423584557455 1.0835006673823468
Ni 4.9550023039431546 4.109415914886917 11.263022792123394 -0.0676737491978899 1.7237040689909542 0.4096970612207912
Ni 5.74812288302496 7.975375569530507 12.409472523905894 -0.6957788248810662 0.45097355137207495 -0.8806665960988188
Ni 2.200756271215376 6.540489277446586 0.0081988050467493 -0.07320676320097715 0.732864416879454 0.4269576480734518
Ni 2.7794067233788353 1.6322464224345752 0.19971900189020383 0.08332893923664358 1.5466391362517298 1.4142895441420094
Ni 7.8523162580508155 -0.2685778786770496 6.6158377769358445 0.4923109766682812 0.550651107170071 0.14306157921058588
Ni 8.862287643339727 2.504583650521767 1.2453469657937102 -0.3790420553390956 0.5906430741819764 0.6980791908794687
Ni 6.86685133093666 0.8407732370743434 4.683344989346407 0.6404674539032711 0.32011571331653255 -0.6020978529861373
Ni 0.717401347855975 7.57591212337602 2.320148246202917 1.2544034371749169 1.2426856345173565 -1.3864419258021219
Ni 7.944335873154916 3.8550921262872646 3.607860399461953 0.07981526965643028 0.6986106379029066 0.4206216785530949
Ni 7.742359769221475 3.998041922358926 12.51978793194098 0.24860664953295253 -0.8379857694008407 0.3639998162939925
Ni 8.06903985238753 7.920474560894289 8.7915841944322 -0.9529978986733783 -1.441623198959956 0.68029846985728
Ni 7.188370246789677 0.8824333073152125 0.43896364056734644 -0.7364827303583317 -0.20046454261008703 -1.34513741062638
Ni 2.0156357401088445 6.479554791528929 9.207021816883023 0.2913432691695305 0.27515534655575835 -0.6377906784020564
Ni 9.324448368473012 4.986950656535829 1.0685951584465225 -0.6202231018319383 0.23181426056596205 0.660257749156321
Ni 6.640068912276825 2.1279729082269445 6.889719481952014 -0.7031265234953891 0.09480891485178511 -0.34406322527106553
Ni 3.6283551404382837 4.213338926434819 0.2932687940638742 0.7693779384244556 -0.1281016154666439 -1.4321150023592046
Ni 6.189484467349191 5.7200454059170625 4.694755894120548 -0.49519755418745676 0.4197778424955609 -0.4797881616109221
Ni 5.277965983181335 2.91764059368383 8.94349970139783 1.3759199432248757 -1.1439113072599203 0.8691040880722
P 0.24319184128415564 5.93939501672115 12.459370471410846 -0.6876261138669448 -0.30315003199647145 -0.7421982926858702
P 4.285213633206166 6.028079863508553 12.407796053185374 -0.6893623798317612 0.16473160798485179 0.1260655588732216
P 2.594504269764404 8.674686480760554 1.1895491134712306 -0.8269207698359307 -0.3359817338145117 0.7820987284252338
P 6.289945498710002 7.867000142518893 5.470106792221058 0.1297862022579184 -0.7715304659910842 0.30813591524683703
P 4.873577620330253 1.1118953531592284 12.441788882266486 0.5717426377330477 0.36886511480609374 1.2592646219219603
P 4.147933851929109 6.245121487521247 7.964619805888883 -0.4996005683511589 -0.5698094252660768 0.7759352799269992
P 4.825128070835333 1.1315405005725854 3.790005081457535 -0.20132251973500814 0.7328176228019185 -1.0319940148626225
P 0.38293135494085906 5.86684790434916 3.3398967723876525 0.011925290682676237 -2.963752008775147 0.9544163762874595
Ni 0.6760520380413486 0.15774090197335536 4.894454905573976 -1.1253787956733714 0.03531641591310692 -0.7398753009796484
Ni 1.8776381204202912 6.829087578554647 4.56338783019184 0.6078388692349724 -0.2204147604797688 0.2961939123936125
Ni 6.489004816186603 5.909709218109015 9.031180483065354 -0.7676794676761102 -0.2601529596096552 0.4440932793124739
Ni 8.995596596948126 2.4378065051282607 10.035595435586796 -0.3889485158195301 0.16321260023716405 0.06979053843057657
Ni 2.3257782801239695 5.493181208197691 6.818795229583736 0.36913585196897714 -0.39018418799884413 0.9487319243081727
Ni 0.7965216793023506 0.01044682052781522 9.19647504417133 -0.048133108061800975 1.238728963862454 -0.2765303725264141
Ni 1.518382711871774 1.1241349524033504 11.491926923050118 -1.0800651593382367 -0.530952343189563 -0.7133692842693199
Ni 4.156756903796995 7.111861393311201 1.39615300351828 0.28317667419833814 -0.48601717323976934 0.19558330325838574
Ni 5.774637471439472 7.826728498977729 7.782701379291355 -0.8648568827600718 0.429217390641906 -0.6526007468316953
Ni 5.568172605793636 3.2073383688145642 4.543265638264514 0.06509827516122982 -0.7860196607461947 0.10497505675150953
Ni 0.8443242655707079 7.519666303538519 6.9460943309723415 -0.10466086794520041 0.23750539741346835 -0.3589725382827302
Ni 5.290287361484995 4.535293997272036 7.173416491425125 0.5754861639358798 0.1790192282521175 -0.28861635715667067
Ni 0.9498001705936062 7.681125426752181 11.416986410202329 -0.39148182376434515 0.24592473182541516 -0.39413597355774055
Ni 4.650229922170996 0.4595192615102216 10.300207938532493 0.24406376735727645 -1.1295372979264353 0.3803373771117515
Ni 8.27706760672675 7.2441072191456115 4.526947989918119 -0.23253442656143827 0.705293706350037 0.6125673850588933
Ni 7.4444568284504715 6.077365376723191 6.890876201316362 -0.055297744131040244 0.4408261785254279 -0.9609932581740288
Ni 2.581328754616685 5.329450444441317 2.0159047023491015 -0.8580298325359094 1.0048215682128887 2.4460380186527293
Ni 2.5623741859283125 5.39954418502718 11.220159661051103 0.20457625078561542 -0.352563806542909 0.06944755326886104
Ni 1.3662100551967096 3.508594251026607 3.5906913402401504 0.0002812786858446769 0.40371076173036924 0.31508920663621864
Ni 1.531085725786609 1.0866074506377794 2.5259252590924195 0.42719059001986426 0.7061889644707967 0.5243458936166389
Ni 1.1631253906784267 3.406415859415507 7.868826541515232 0.4058743450405914 0.062195242581821915 0.7549103409358998
Ni 3.879107910104796 2.4366525117325644 6.987654449029332 0.4767352337172112 0.708792977752547 0.02470393050458326
Ni 4.025501513239205 6.957271711098692 5.837614616533133 0.9939182910368237 1.2191883227263647 -0.26731913834079124
Ni 0.6282630816162476 0.332060236627409 0.43841390355601056 0.05444490921244172 -0.29594682937981287 -0.5819501743936687
P 0.0062560980546236215 6.034576755460703 8.30113972722974 0.2775130481546576 -0.0784934655212132 -1.4447728003325313
P 8.64511880745664 1.5047892148641968 7.905425396626943 0.3758718851412301 0.21900682438864863 0.34244394450008764
P 1.7783856018282016 3.6906162644328826 10.028081757327728 -0.30916204251850626 -1.207006178837876 0.7957114341126619
P 3.9976693733099213 6.212582508387467 3.556033374808131 0.2390130923072464 0.12544720856293234 0.33711096232294846
P 6.82987810946351 4.116957761488714 10.12487272622774 0.6027552840644781 -0.6155809750742367 1.2512211827921935
P 6.234880931954709 7.735281337290391 10.174052835321195 2.1141011443315527 0.9953822771768599 0.37343370801338266
P 2.560102545385602 8.664863907053876 5.732059658419347 0.2743624183408178 -0.7146514934158531 0.22659697803108073
P 7.060113421748264 4.032634464543315 1.5989378114849255 0.8214782586641207 0.1951503294860252 -1.5241525251134398
Ni 5.561766579463194 2.7367725736732518 0.45855881188876374 -0.6170665584808276 0.760689152401206 -0.9546102374658204
Ni 1.642968565796167 1.0414108904000192 7.049135945989672 -0.2098189872417935 0.2455717193613706 0.26471383950746025
Ni 6.904378832702231 0.9347528236386946 9.038827733788333 -0.23434268341477058 -0.033887910996696476 0.43614137145524895
Ni 2.9027749779723355 1.8086438538571001 9.181554000430593 -0.9869356890714034 -1.1740101835278296 -1.1147850793179253
Ni 6.385636084931123 2.0415597019822522 2.490203257230195 0.5093944145131292 -0.06638639784503406 0.8967059089498686
Ni 4.220753561166224 7.042594529882884 10.453918950183079 -0.3925470318040659 -0.3231722407546692 -0.8233101696665369
Ni 8.158442537586428 7.821721803221595 13.144141065855115 0.29632066777946386 -1.3596410035591937 -0.07408916580593047
Ni 7.934422433826528 3.890693276872617 8.228938812876459 -0.581829075434772 0.328142440275751 -0.3188736133793153
Ni 3.3009844785472455 8.729696528142822 12.405136416437967 0.001903901890932205 -1.6815181796515235 -0.8479631923285267
Ni 0.26422268942856575 5.251705818507607 10.207765798287447 -1.360723180879779 -1.0398435928140286 1.5887352940908317
Ni 8.94234025606483 2.5571039798692246 6.015264176222799 0.021217514617879588 0.28820395220960043 -1.5084099175672023
Ni 3.4642700007572476 2.3280590072288505 11.27366224776923 0.5709849336314166 1.4877649876233412 0.932951007324832
Ni 1.374742337075129 3.592163363311826 12.245600918435871 -1.041879906517767 -0.34959006862656566 0.2660364149736257
Ni 3.0399366339411715 8.281856224990783 8.11148136697509 1.5735619287845029 0.570004057775386 -1.0326398759767377
Ni 5.804741251911467 8.028731862597681 3.237480312847676 0.05611226961253562 -0.08506751919430511 0.5358955461274513
Ni 3.3205660200254066 8.531727598126723 3.4156350853940416 0.024857939583944284 -0.09305979337116232 0.10570165050488893
Ni 3.412767366372924 4.1557664685203735 8.922141737015268 0.586665577591467 2.2577142251702345 -0.9037558738181145
Ni 7.2583640351916605 6.077701579523512 11.471007839620409 -0.15641923146441447 0.3926581034606334 -0.6149253437681087
Ni 8.168592227531256 9.242760174557157 2.4632334320509233 -0.41917466169392326 0.02829293340742224 0.8940782415190343
Ni 4.802575223527307 0.3341265208650581 1.3140640922106908 0.06132620971330728 0.7615304173555788 -0.01956686638833404
Ni 5.95323385090734 5.776609255430545 0.38671499942879695 0.9567023441081588 -1.0380199093417284 -0.838360122021124
Ni 7.957774898605589 0.282843781285269 11.078976292665455 0.3393259676963963 -0.8577598667039743 0.54715389265009
Ni 0.3175762565270894 5.160231397133756 5.721899064599914 -0.6876556815532996 -0.7737429002613706 -1.0406059249013497
Ni 7.561364537340505 6.160670978705456 2.329072158910899 -0.927674332306925 0.2117048914105967 0.13464275901927134
P 8.856481330112558 1.907723727767944 3.7482586888760423 -0.19518555359933482 -1.4497609975757422 -0.29000680974629406
P 1.7779312737196595 3.5237324636032272 1.199295360055674 1.221236206394329 -2.1556763966701777 0.7760646064160118
P 4.942281116903978 0.7456623735197228 8.191076925623001 -0.6184654957108833 1.8172742263396315 -1.2316620297133434
P 8.740636748996515 1.9067060328048098 12.385720250391316 -0.7122583105933281 -0.23512532721706605 -0.5132091602735291
P 6.433813037560918 7.753254557264312 1.1379647000273694 0.7384565662552507 0.7280420557901461 1.3389932454018554
P 2.2039638276616826 3.2879997812051145 5.959527203866864 -1.2243179306434462 1.5024256749593092 -0.4039925546368462
P 7.174858528841637 4.06858090449116 5.836204382084218 0.08940445600676217 0.1698542739233978 0.3934595163160063
P 2.5153966595050674 8.584266100598523 10.21285972504042 1.1157042486980848 0.04256127040097831 0.9176030641138518
