# total energy = -340868.2700475168 ev
CRYSTAL
PRIMVEC
9.23248595375529 0.00000000000000 0.00000000000000
0.00000000000000 9.23248595375529 0.00000000000000
0.00000000000000 0.00000000000000 13.51267642730323
PRIMCOORD
 96 1
Ni 2.5121686625032162 4.892045033669729 10.86725916902549 0.49868756961858635 -1.4082682776485942 -0.13891721802490914
Ni 1.4203902676584519 9.083205895602008 5.81495018130269 -0.01125757519169029 -0.9103330128149999 1.1797743397051166
Ni 8.726305685803489 0.3458553868432466 7.306776809085209 0.18343895458636797 2.5674984746537715 1.909898731945588
Ni 4.720219237447564 7.92334714928004 8.553456930136832 -1.3799036104629718 1.1520092537767064 1.959951168517289
Ni 0.9982717770306717 2.207081163918431 7.765437479147051 -0.007005741893871806 -0.25866891886496096 -1.3442439522778333
Ni 7.838555998213231 1.4258282018895436 2.6716589342327466 -0.5882779163839094 2.6384948604669916 0.1120713014766586
Ni 8.059378597430992 7.985029387986196 6.0678270485288195 -1.1247571029289727 -2.0293192746984663 -2.255885913712244
Ni 6.16840852033491 6.076019033322109 13.053353969105729 -0.7458744559858768 0.025347477625853123 -0.9731067536081112
Ni 7.441651426745235 4.279127988169709 4.158837005333847 -0.954209402482976 0.3491586375161019 -1.079056258457748
Ni 5.502275425755067 5.8854974530287025 3.69167690869621 1.0283235079895707 0.544570705303946 0.5243672337728775
Ni 0.11338231359116469 3.4603265057369987 11.987946323911673 0.3967968082193553 0.4345850827117226 -0.7876191440228306
Ni 5.066622110708304 4.93157853855519 11.042180617790414 -0.861143952684859 0.4503310326920696 -0.8035622976156483
Ni 0.269799090744242 6.29100670141245 2.8305001621992103 -0.35389409531855825 -0.02695750242545035 0.9122654539510225
Ni 8.798983815289324 4.527500325495413 5.812937499363169 0.9094205283030595 0.36323259911066474 2.444733440908693
Ni 7.746277301031966 5.991200184797418 7.464523987465282 2.1089152292552393 -1.549024605764771 0.2466220150027559
Ni 1.2932681684599674 2.2402073235468833 0.29000623276731724 0.9278568806313761 0.1895170424596478 1.2406439214969793
Ni 2.9024904714809434 1.636698181241231 6.4851391069652475 0.7999254721940094 -0.4959588578335137 -0.21103460481644945
Ni 3.7319000802829656 7.116677153400224 5.011541099464338 -1.8011937758380012 -0.0287125374433441 0.6735485527279561
Ni 0.6623366963526348 7.524051363948116 7.616014310109512 -1.8188971066550352 1.7925996064110872 0.20035449939478397
Ni 0.20823041161540679 8.815232990580874 10.85812454741557 0.9266983415469008 0.7184893791047046 -0.4950265758272313
Ni 6.290526612142473 4.177284435532735 2.108355421790524 1.0445425409515947 -0.8501203478808456 -1.3807754715449638
Ni 8.399946539564313 4.592709373838713 9.399093556264097 0.11432255940468053 -0.9043996780497005 0.07687264208833858
Ni 4.053172126757572 4.595719164262034 2.185459605046114 -0.3135982239129889 0.382651884177541 -0.05707411930517267
Ni 2.5826309953583864 -0.13148167906931915 0.9701062321091221 -0.4005339066642844 0.9252464395917227 0.47523962300829126
P 7.775304236893686 6.671135845889116 4.085125760668964 -0.5128121819454265 -0.8429479985021224 0.5907454040877955
P 7.8535495554140695 8.438409076078285 0.8928017039081758 0.40916484286640503 -0.8904079917562988 -0.04150994631832851
P 1.7114166901244714 3.784239043196482 5.99025016199202 0.7553908801167443 -0.3120630182153851 0.7584952300736808
P 7.172173626512439 7.937832919753016 8.284000364621749 0.4383167818400128 1.374955008208445 -0.6045334590108234
P 4.398227057067991 8.841065486300051 6.496800659982721 -3.2184048645021797 -0.5167349140386004 0.151449546163965
P 7.604484781641282 5.410116750891296 11.309637426846324 0.3264971913628441 0.29107973109549873 0.47206508193505153
P 1.018287806594352 8.257701628361536 3.727174893968071 0.9340180151367657 -2.1762956155824265 0.011903436305805306
P 5.527350857625434 0.7386671972846842 3.4969046918663094 -1.0445075739486012 0.3008265260696174 0.8493526164768856
Ni 3.0608460706858533 2.6788796615029287 4.3088685951962225 -1.7094305897910753 0.49945221569875276 -0.5538446744067042
Ni 6.357360578014928 3.1806745059750634 9.755679861539939 0.4288558935374292 -0.7875111576900566 -1.198362644230265
Ni 6.345339881293566 6.5016643335870326 9.685832412249779 -0.7017003325718237 -0.15195811036926732 1.168161952277169
Ni 4.370104904830458 4.467627654037633 13.348024453780598 0.7633445877461822 -0.757309951516328 -0.02180552591086567
Ni 4.2434905923598345 8.051651006681546 13.4555579875154 2.0445291496696854 -0.9601933879805528 -0.4559599488430728
Ni 1.7462600921416898 4.468754017324888 2.216578622226622 -0.7119212389688837 -0.6546797408479113 -0.3525386097319283
Ni 8.23706702223846 7.345153483479743 12.353180698787284 -1.2461064872734475 0.41870954913204667 0.5731742279732516
Ni 4.23702785218706 2.0561946458560567 1.998241408229591 0.7320989994683391 -0.23450697690677677 0.7341093450301487
Ni 6.577601530617139 1.7239821035175382 5.07748320719295 0.7783554593327175 -0.07291622854375185 -0.17224488564276141
Ni 0.7992858536081215 7.19077708572407 0.691042341702909 -1.2033536696869533 0.7963004738469125 -1.212900432835124
Ni 8.089919660990335 2.4212563732441943 0.5009814624589612 1.7930408077135638 0.6042781484669076 -1.6322095632243823
Ni 0.42575147385347567 9.430245810394066 1.8847215305976057 -0.3063428279021563 -0.5689895004679427 -0.2662683284787737
Ni 4.596965549866783 7.918647813925835 2.930535070836403 -0.39551177085934464 0.9109079114818635 -0.9516946064809223
Ni 7.4644187371253246 2.8708138121483846 7.2007832540087175 0.8510991668543472 -1.0166594413880814 0.7693337154500814
Ni 4.484855472841059 1.1477457247409963 13.212317065886879 -1.3971374578427551 1.091412723140572 0.3265725246854698
Ni 3.6919049510994495 4.902413115404053 6.395765873115941 -0.6448717536185539 0.9309172647242547 -1.455115577019436
Ni 6.666538067880484 0.5679677643497741 12.821584411283883 1.3914699751443325 -1.6695476375532083 1.076153482988656
Ni 1.991945776052712 7.262698151361095 9.800054882063405 -0.14626825907334165 0.3288975732742207 -2.1471701589713796
Ni 2.7393986069779857 7.218132941626831 7.200702931380857 2.3952445901499457 -0.11409038878921642 -0.05856613046966688
Ni 0.8260702186298895 6.224098875652307 11.44925015630159 -0.8379063223131569 -0.0415737096767284 1.6038135285801927
Ni 5.131766531649877 3.5058426615252567 4.330758819410008 0.6381460048589461 0.6776576898003231 -0.09223755458018308
Ni 3.3831152256442594 0.2587090286077601 10.269837004713995 1.2094289293467557 -0.6928678218818584 -1.4908688233596452
Ni 3.696604286453653 7.198024587203539 11.23846603906934 0.6970924014861672 -0.43576881860717853 0.6125393600344354
Ni 2.832037371111735 6.165611077088694 0.11474318202183188 -0.3039360182328766 -0.6688987126607706 -0.9507841788515109
P 3.8126197050409254 5.646431461551794 9.254710401312726 0.13475434489647115 1.727899338019224 0.04794413197944646
P 1.830645013826209 8.540621928153703 12.444458594490365 0.14457698741384778 -1.810788875725604 0.2810753115846192
P 4.785797585229307 1.675871619174209 8.65770646861527 0.09565712178469332 0.5690023559837492 0.5979491209250863
P 8.552541067529491 3.5173925014626017 2.192580621467916 0.6850979481284524 1.413183198451708 1.3082940165457855
P 6.5420195297230315 4.566073651840918 6.320189666286915 -0.8456733678530854 0.2430358403133943 -1.5802413976872074
P 8.06979284159512 1.7218770967184056 11.554040718457347 -0.7947084467694443 -0.45691948454286474 0.19165131519383125
P 3.3304438932361435 5.2551125440902675 4.120447405458967 -0.2178583126065022 -0.9013287524338607 -0.12683149050496867
P 6.153378033190227 2.3778359917691074 0.8086854475651247 -3.5905211392557193 -0.6579452989730604 -0.1754065712001947
Ni 7.237992018929172 6.432882313176784 1.636979772063045 0.7170984122944488 0.8875502105925296 1.1225251282746602
Ni 4.9350499532765655 2.899785353094339 6.695693335297065 0.6417828302805849 -1.0164324129789397 0.2808773366412001
Ni 8.659407092529307 6.844180330258147 9.467642918028126 1.0308560446034376 1.1132843264026826 1.5269236601006735
Ni 1.058864582393418 5.380028079144047 7.62264969776976 0.37791462660287173 -1.9886192258759428 0.012796637544036024
Ni 2.9557342180186486 0.21056438406637468 3.944539003944801 1.0284998856664351 -0.1644539288434329 -0.4395383129519398
Ni 9.066310446293182 2.216396742253188 9.79947415869645 0.01135039201581271 -0.7171976568764745 -0.49937071172854
Ni 3.0706417382905884 3.7624780737861525 8.297891562998831 0.745145291129336 -0.5647083565940855 -0.7001335023053361
Ni 7.3517270134840516 0.38344176043950995 9.68284570304136 -0.5414393587638159 0.17970159903112276 0.05772795083908767
Ni 2.558654229317391 6.902594268934072 2.2813860574306135 0.0748106173529873 0.21220394253420224 1.5641434636840805
Ni -0.18437182139471367 0.4490625776566751 13.122809037742542 1.2515749665871867 -0.6664775048137876 -1.2208217445647298
Ni 0.5292725691895819 3.4644349619896917 4.046182211636418 0.42643442858013003 -0.18785893803093454 -0.42085950559551394
Ni 7.328608868637438 8.697574189492524 3.4464759302981456 1.3547656777447636 -1.7757046304279613 0.08591778300974236
Ni 5.789793503555866 6.8858280744287015 6.959474691691858 -1.3771173059670863 -1.1553390894808877 -2.040684064891982
Ni 3.7371256673369517 2.754124422085952 10.35915576689613 -0.031022159413127217 0.08325077770054048 -0.6246520841375693
Ni 5.611901964057253 1.6049199645631003 11.20999489886248 -0.9861980395744308 -1.1156345718024139 -1.5934154731753203
Ni 5.528929612724784 4.65814000184508 8.219301872752098 -0.3650675954368745 0.9906223938943712 0.26434462909349954
Ni 0.6785951041301445 1.072408639298362 4.015453728612065 -0.0957234562462545 1.2125883009113438 -0.6295945157445093
Ni 6.112071891000233 0.5402878481897787 7.163205189649821 1.129730130663532 0.3809001915937569 1.1361946553419529
Ni 2.1052560762533803 1.3047256835377012 11.755636665661104 -1.572244752634976 0.0032177356063492974 -0.1019313848291793
Ni 0.9614526230177763 6.620190988355726 5.38743622587924 0.07518445575263825 -0.07567425090486321 -0.6678476456884369
Ni 5.963262682279108 0.008504042818775795 1.5532014247061703 -0.6074303209426442 1.014391471289511 -1.4769624976911984
Ni 8.377271554043833 5.019582594736463 0.018516673843596503 0.7905520013989095 0.056789498185218334 0.34937486729196604
Ni 6.560992288373107 3.5831647314495294 12.09734481981062 1.2437104762374451 -0.5349933460281561 1.7447182093487759
Ni 5.691292110836814 8.163890338510726 4.9678677478739175 1.5334516910271785 1.0730905277926164 0.23353432858086234
P 3.279258991067765 2.8779228263384375 12.422000572389972 0.3717758606949856 0.7713178357596457 0.8186700997913643
P 1.2358698032397644 3.7784595069848286 9.245886914479696 -0.9467274922836342 0.5563967514045967 1.8231998477954472
P 5.493938490932187 8.367669768644282 11.468032725740866 0.09351616418229056 0.5512545450820249 -0.03340994291901343
P 1.4785549292134268 4.408198141905986 13.538350305371628 -0.5216290089061081 1.2731822604443168 -0.8340627801973506
P 1.2999709532677313 0.003840714159820574 8.872653513767384 -0.03636851132670511 0.5530193502919314 0.34202871133954
P 8.797072690695375 1.8584901914849081 5.5855053634458525 -1.1232599495581557 0.49914008377497265 1.4306831550086845
P 5.059254586911341 6.514728301221999 1.3867249308498706 -0.7417360083374709 -0.7746826384668206 -0.5734197683251544
P 2.1275248323915705 1.7126723082151818 2.364664004048396 -0.34777846933912365 0.4682935307077612 0.04931401574377958
