# total energy = -340868.230774551 ev
CRYSTAL
PRIMVEC
9.30344641702823 0.00000000000000 0.00000000000000

0.00000000000000 9.30344641702823 0.00000000000000

0.00000000000000 0.00000000000000 13.61653423809465

PRIMCOORD
 96 1
Ni 8.895964854432947 1.998091903084926 1.3145360564212083 -0.5577398956960524 -0.6606390437551396 0.5266148921564737
Ni 5.839457055914509 5.2889349122478375 0.5507714760330872 0.5320499471291159 0.17482370211353115 -0.8030601611682492
Ni 4.524414892003264 2.985001508657653 4.771465122990275 -0.16653729373502288 0.03858840179615935 -2.351271784113422
Ni 7.570865664846512 7.010658633364971 1.2169373204839795 -1.6725925950271194 0.25037454006665266 -0.49161652170441783
Ni 1.963715668237724 8.867226508169615 6.015812257576236 0.47535403709896845 -0.7169356614643395 -1.201355665420318
Ni 8.010193015849106 7.1899174406818585 7.8014571686161505 0.5831259398693248 -1.192313352712392 0.39038216294226313
Ni 5.270579212287478 5.746236521903963 11.161296397771979 0.08718970774363048 -0.10470174848546485 0.3367286392828652
Ni 4.0364584261031515 3.206563087246591 9.89190810656498 1.8110115332593713 -0.6780047887270969 -0.8766433338720386
Ni 9.251272780021447 4.583408046310736 8.536954157134248 -0.5303761589711189 -1.6482776724308388 -1.2366070324234444
Ni 4.407144948769438 9.076163309847145 6.66180729965305 1.1580140652098896 1.3223096140985873 -0.510213825090631
Ni 6.632045574273836 2.6759782294466454 0.4177535888951048 -0.5209800624681995 0.5540794161253296 -0.14448237081751247
Ni 1.0898987584167135 4.385402794280152 12.926189971375711 -0.1786772715316665 -1.7415855772570652 -0.11285857326464435
Ni 7.007225661603505 1.2906206168276444 12.0015046070827 0.5483666820112685 0.9423257636715126 0.19615151705702993
Ni 6.648205660858299 1.1251495172356714 2.4921393354138517 -0.13468749621427772 0.5153596309576286 -0.18412595335106355
Ni 6.585509734840627 4.358413495960332 2.6216730818345737 -0.02527831495081453 -0.6270483522838878 0.2160099465438538
Ni 0.5549012759380055 1.3828363786153224 4.485272501509994 -1.2546908865083488 -0.10284386934111965 -0.5038552298624548
Ni 9.248481746069034 0.6183024032009865 11.538052488940108 0.9730000528269177 1.3033117328398458 -0.5864588608972996
Ni 3.5152607458298166 4.675726146010002 2.6790260385226787 -0.4006814879857422 -0.6798644676436549 0.11590533051076812
Ni 1.4475604559717465 3.4958816667535726 6.415607403676875 -1.4694826443743854 1.9844098157802859 -3.9053419227219
Ni 2.0703796824523852 2.614538268707559 8.159504028856617 0.37772847873399457 -0.3807742075388539 2.8404051343846697
Ni 8.255720272642751 4.759150150847583 0.6942501584247082 0.8683718378918658 -0.8165124300184131 0.20270140236040574
Ni 2.2631470940989438 2.1316335742613113 11.4483467970203 -0.42373811269488953 -0.9233934455433839 0.41293999363812106
Ni 2.0167825271195756 6.0717082945411835 4.08914012229957 -1.2978067438612164 0.6885843640151561 0.14993285240912244
Ni 3.494821073851656 3.910071105291448 12.218075816964724 0.7263952642153426 0.8452748468630862 0.4005722161013875
P 5.1353443138466295 5.772928109935527 4.484632424390241 0.1795625023500972 -1.1070553147738353 1.3682711684303661
P 2.295951046486288 5.948242255933004 11.900292412521749 0.9309293489091128 0.028475995952505793 -1.1642019391881564
P 0.5342318088310963 5.596050984924697 6.112394126810138 0.762968435353686 -0.08901853342225315 0.12521195262367468
P 4.328326149953336 5.400780946167477 8.283386861868356 -0.09505239832115887 -0.13263781277410058 0.3607262877490433
P 3.997737481736695 1.7368325182461883 8.124264434173469 1.1714377948149632 -1.3973865977390836 0.291416288499311
P 2.3467385609736704 3.2091122315897933 4.268306825496027 0.993706946356966 0.42635806681623994 1.0013114981771014
P 5.989242544693929 7.834581159563371 11.307850799579157 1.1216895197472423 -0.15414380516667647 0.12179315675011282
P 1.4929240611449424 5.074713752953743 1.4231044861360655 0.05321026547439223 0.5064150201698311 0.8657516266601993
Ni 1.4620924394173025 0.7163560776724585 9.495816662519191 -0.22118223477341262 -1.260685670639203 -0.23722051918319795
Ni 1.9985756823033443 1.758518852056426 0.41822527363306233 -1.3070318620039103 2.5341543519756873 -0.4546502288927138
Ni 7.078331903264443 0.13054968277939982 9.96434846245517 1.823552860259492 -2.5203264449536595 0.2201226831606467
Ni 3.419518977815592 5.052534336478578 5.814818738527271 -0.525489520302779 0.4290024464176224 -0.9319379926792853
Ni 6.205705834596462 1.839905402108747 8.671240104031277 -1.052457167812981 0.9061097187622716 -1.1231046549272143
Ni 8.421358834271869 2.594247451873527 5.734398816567135 0.22971366928319148 0.5419389241080538 2.004282643444813
Ni 3.6696328337377 8.623131982138208 8.88996320109061 -0.46285333352879643 3.224743662236014 0.6865215679488564
Ni 3.4908205918531996 5.583556456264402 0.22185184611998832 -0.9759871604796997 0.9626081680696325 0.6708344962309027
Ni 4.753661117407841 1.9608129929272158 12.006025151740955 -0.5175239855987991 1.04079387254244 0.5358492662705481
Ni 3.841355849383075 7.775308901860657 4.652061899472156 -0.20737361102509444 -0.3668987351083423 -0.16337612239822186
Ni 0.9517890950048813 6.639441814247727 13.525113295500454 -0.43401249803770414 0.7947536981850829 -0.8732839304815024
Ni 0.8084750836164527 8.774564180949552 1.3341495823494551 -0.6963555233201427 2.605430730923171 0.2913311849846724
Ni 8.17120776456373 2.1790811514523076 9.874261329228531 -0.3041892718942632 0.8038451189633897 0.18938463064684158
Ni 8.037293955527023 0.18161350962807088 5.800644007427624 -0.08216911460058751 -0.4956976337523269 -1.1145025150805
Ni 3.167116474052507 1.7404422554913073 6.080531683209407 -0.8074513482574094 -0.06056670583946343 0.6755455285533268
Ni 8.438821403367458 8.18814003720836 12.710667259915143 -0.23999833903865117 -0.8775388491031145 0.34244214472787476
Ni 1.1408816452807644 7.912916179161055 8.067469684275846 0.9512927430568133 -0.281054999869645 -0.19631915298314576
Ni 4.6269388725218485 1.053875813537588 0.4347816870387677 0.13452320272227153 0.32811415814097683 0.11888832439849203
Ni 3.395730065094538 7.207007871917125 7.304794537473815 -2.7007762350047164 -1.1366571968006682 -0.3112639193528575
Ni 6.225457051533028 8.83068257028604 13.480164624041516 0.3604241831275921 -0.3968698275491358 -0.23322579620150802
Ni 1.373821338949033 7.793599477695461 10.898470312541285 -0.17505998649405335 0.06267603887298238 0.4221054621874731
Ni 8.925196283361203 4.847653837478554 3.861458736597645 -0.340331269032459 0.11078446434443501 0.7267878716680708
Ni 5.315021776256378 6.482864809517438 2.5688685801442483 0.7371465891945755 -1.1202319613651095 0.6006930022188107
Ni 8.098101281903563 4.087692506022919 11.644873731400757 -1.0095066323933841 -1.8606605637450666 -0.8060079309426633
P 8.258520610041671 5.916880337754406 12.460599921225576 0.48976866986240164 2.657399667791294 1.2894704560813794
P 8.124523069986392 9.1783058490589 1.194220164800651 -2.4194240156096263 0.21218825880491843 -0.4150889216603239
P 7.364022138633291 3.744506971234394 7.367035524957244 -0.45037808387992107 -0.13231642487893988 0.42393608763830865
P 5.166185239020777 0.504598471013692 4.378641979702761 -0.19279545610060345 0.7229276173817162 0.2981034707114995
P 6.455028897565387 8.360235190714056 7.040728302823603 -0.037725282464915674 0.8285410790481731 -0.42119040657237133
P 7.869515601201057 2.741641954900381 3.660560112703061 0.6411644799702958 -0.22016536347312407 -1.4125777036572253
P 2.804347184364561 0.010065398777046881 11.148523696061092 1.2963478999275029 0.76681943366866 0.1754903891632526
P 8.91525089904411 2.546409129929193 12.886879188500647 0.18779131801779272 -1.2553282629820317 0.23421464247733856
Ni 2.401526557459509 8.938081556774836 13.388035384306365 0.052779605694876844 -0.7024896612423385 -2.456438645160763
Ni 9.108734676071787 7.537484898775669 5.115405167290602 1.5590570503001084 -1.1764684152603353 -0.07273856531530698
Ni 2.255378716264732 4.52115868572545 10.159241711628814 -1.8259370442209522 0.13680428544696438 0.8502316766477294
Ni 6.2095760683438055 1.5416834242935722 6.025670189496155 -1.0502871567448555 0.1477042201889198 0.47190361665652275
Ni 0.21365271871245395 6.782966083527237 2.2251871716568448 0.17474862590122162 -1.7973281222350077 1.9796830997285777
Ni 2.5987410165369096 1.042023222686347 3.859347784584971 2.269138922067408 -2.043592753898345 -1.1334790561830028
Ni 6.652624797949617 3.89516698398557 5.057140472844709 -0.881858816634707 1.4451834055073884 0.46618676877740356
Ni 8.36984565095686 0.22633238595825966 8.026715936847383 0.3354991377511383 1.2659194082343166 1.4679497526696266
Ni 7.683679257202986 5.900627216704863 5.998083609910519 -0.49254571838690664 -1.3782496197993166 -0.5184971481453458
Ni 8.247784432771395 8.847493898126066 3.449626791404907 0.782781099204239 0.39625019168726594 -1.233147356009618
Ni 5.0114875304851125 0.3057279984578604 10.645910580532215 -1.746461674402444 -0.49566318096996576 -0.3385739200217201
Ni 4.211400434240307 2.189287032271626 2.476793300398842 0.5944290235869698 0.6831652498821138 -0.3361177451717437
Ni 4.042207956045119 7.621188007008492 12.421193312851475 0.2579577517305493 -0.40194698496172715 -1.0317654437915842
Ni 6.392621378389464 7.842610033899809 4.659128797439662 0.1225014956710471 -0.07637487651631363 0.27293391342440737
Ni 7.113973406836739 4.7291651427521755 9.536216878980348 -1.0774490618716284 -0.20693240972261784 -0.24616307308846636
Ni 4.761336460776972 3.570681376678202 6.928092406295431 1.2502097108085437 -0.1737770060165717 2.703598792055176
Ni 3.4802890904061 6.689261770298272 9.933030270475161 -0.6193630678244881 -1.2733637803275037 0.40974771195306847
Ni 2.449830051729245 7.368534310189689 1.6883141143621165 3.1596196760431714 -1.0123569573579856 1.4124620040149674
Ni 1.0268958186642765 3.3128735704939465 2.621618191500176 0.23538963662204623 0.35807522327944136 -0.25034780059377526
Ni 5.2972708003190405 6.520999636753888 6.562270655808198 2.074920874587665 -0.9344633302043004 -0.5299228734837841
Ni 5.968086507334649 7.187684613519929 9.113859944753067 -1.0327918281735697 -0.13575733223968878 -0.29059173571548663
Ni 4.628585582553771 8.702471773958761 2.5313682479596467 0.062374962692795806 1.8777607137604628 0.5974739810608808
Ni 0.09126122817595311 5.884960212785327 10.450839635530267 -0.6548008398068077 0.38456761314301513 0.5245179004181288
Ni 2.0483491211213503 5.372526379122564 8.050285288230848 0.26869493564239527 0.5479460495340821 -1.4326451638310618
P 4.830814599299004 7.468760339420789 0.8473606989861013 -0.17675100104323108 -0.7921126610178101 -2.262709621502297
P 1.346748309610641 8.39103890210217 3.545242032546622 -0.3946769336628751 -0.5285943844803477 1.2764478185694663
P 5.781729170332131 3.6990038143635777 11.362562507803629 0.6922502429025175 -0.5656828046922129 -0.7939222034227229
P 2.996370320290476 0.45844407288731287 1.6643084313374248 -0.772733999380882 -0.12934577228639013 1.1979808354108143
P 0.830833126264571 2.717629759463134 9.99868934420564 0.517713733012102 1.7239629790792956 -0.5049708315241368
P 0.6569238006898067 1.02052295780627 6.736535373039568 -0.02337544150114684 1.0741487938538017 0.560052602989629
P 8.922916938966734 7.942473228717095 9.540983034626416 -0.2060186396590968 0.6386903073981903 1.8577901841758067
P 4.472920315581271 3.5942470066830636 0.6935477482133512 0.2275400586706404 -0.8310653881319235 0.3200840887476487
