# total energy = -340890.57302318484 ev
CRYSTAL
PRIMVEC
9.06660930935096 0.00000000000000 0.00000000000000
0.00000000000000 9.06660930935096 0.00000000000000
0.00000000000000 0.00000000000000 13.26989919114801
PRIMCOORD
 96 1
Ni 6.632550892413303 1.8032216005617117 11.597374309368092 -0.06403460978340585 1.2229051094563197 -1.4523428993703051
Ni 4.587069498970198 0.42283672465088734 6.1113459932539325 0.11482623851397644 -0.0675289960899095 -0.23607689249705793
Ni 2.717362454501328 1.5312867963741497 4.786744335968933 0.06496817734126875 1.7209380762100426 0.8919475683292767
Ni 3.0699810123135727 4.259320649686159 4.408818152413057 0.16045072122131077 -1.109312229128812 1.0868389877269604
Ni 5.068044040608112 4.43683578759128 2.75510946781357 0.9817598012974188 1.3735511858823828 -0.810979416015326
Ni 7.470559430453779 5.926778846856927 2.492763509320296 -1.0955491139064488 -0.048867672234980356 0.6057421346069438
Ni 5.064698461881569 4.821486675053597 11.452652189609406 0.41686246862097887 -0.7402578811300478 0.5497926158245178
Ni 5.562346497498109 7.885782923514752 12.733900949228175 0.9734487103285623 -0.06177769542842909 -0.5241648879540843
Ni 1.8956919459059234 6.455833616101506 0.40181216500595224 0.3313401212774423 0.4617490447210241 -0.010358460416188611
Ni 3.0120453807075807 1.7339527076869419 0.12673306081198077 -0.607991849873069 -0.15584458990786706 2.012312969948457
Ni 0.6310559339853804 9.231802631275936 4.570444964680253 -0.4977259770362654 -0.09296003456850441 0.6397945962059627
Ni 8.736883644972918 2.5017947585601594 1.541192973383963 -0.928968111417684 -0.9149432578935016 -0.4357001701527722
Ni 6.654646218582912 0.9261903773205811 4.754285875695155 0.22687440006218346 -0.2891989691330181 0.8540837034039678
Ni 0.8238555613680252 7.409133154377003 2.6351899636763787 0.07696623024340939 -0.05781511123625527 -1.0194485740974444
Ni 7.708294985436676 4.087372409716263 4.114331971622431 0.21048875961530847 -0.846981802251864 -2.4363112782832688
Ni 7.667549644523167 3.9193409448408554 12.829179223384338 0.3913157305001261 -0.419999985808696 -1.7135980909052038
Ni 7.878765368137124 8.908958817469026 7.069233235691032 0.038920845434913615 -0.1005239629586914 -0.7848912035687063
Ni 7.014826328313686 0.6136154048840837 0.3338524904729516 0.33572693749122823 -0.17500959287209214 1.0737245618321896
Ni 1.415605931951481 6.761904203230626 9.134069119398504 1.9826676362781985 0.9664707363488324 -0.17586165645974228
Ni 0.13012125260089458 4.850599556600835 1.2895392669021046 0.7326533293099124 -0.4748922669712015 -0.09534678963312612
Ni 6.30468417721207 2.101476770719883 7.417449048165581 -0.05927215539775598 0.09623073489997619 -1.6952632971517578
Ni 3.536548712226617 4.416472183743539 0.5787561065431261 -1.1537072103044195 0.006838877298704352 0.5403762076066243
Ni 5.816275016181837 5.494510128847713 4.8270182132136625 -0.010029616321860146 1.0900749781657548 -0.4864786862572201
Ni 5.238686688879845 2.985987946398407 9.500690148173549 0.6816745242692002 -0.28089096348795495 0.2398877816027159
P 0.39278363574879316 5.210960998511908 12.250106692186588 -0.6134973530723304 2.0644652264719805 1.5075624819652425
P 4.001439089471882 6.217590331013766 12.855161404838688 0.4180721726583639 0.5035292139816039 -0.5918586917566323
P 2.41848168832112 8.389940784404079 1.4755724839768383 -0.14832025650636388 0.5114500114905772 0.06684199732521393
P 6.483287308198992 7.948451325026586 5.684612440048388 -1.0119674352290509 -0.4636277498009757 0.872373245741775
P 4.951084784314325 1.1215848682033251 12.708276898829919 -0.16196844341741784 -0.4387644109003927 0.2981821464682348
P 3.898378944798124 6.195640070588397 8.090816126441366 0.14784177420804862 1.2324827258424258 1.194593664106136
P 4.6794945112693345 1.1985241123048038 3.7311507814814484 -0.4699148683612681 -1.7888617366352098 0.17408939505066792
P 0.28441499149673993 5.50347700516357 3.566855666181132 0.6971433093287607 -0.28831502386616803 0.1029557123286356
Ni 1.529310275608875 1.1507158829685917 2.51710100789932 -0.09510459171533298 -0.09549925605059037 -0.990429818267591
Ni 2.017066640790026 6.605459864676416 4.550221893272246 -1.3100729628230794 -0.14651534208714123 1.041327890669039
Ni 5.964269275134044 5.532680552800957 9.41146292887401 -0.5136917563369024 0.9197393937305643 -1.6085155620415523
Ni 8.726484244432688 1.9761671675232606 10.261666056039692 0.5489276967210611 1.9404362384128133 -0.8810013537304181
Ni 2.5397747837240874 5.240989607569661 6.622515062894576 -1.724290023401411 -1.690916847257604 1.3085858367545915
Ni 0.3496682832387564 9.061966911206541 8.931836591996632 0.8153909148194601 -0.626136896213212 0.6037364170308248
Ni 1.527778018685336 1.0923541207388936 11.559448683858255 0.7434769022879777 -0.8071129910813842 -0.2624502402842641
Ni 4.273482692967624 7.039569104315682 1.9315395046295183 -0.43724617448365344 -1.6942407694245145 -1.4679381827054008
Ni 5.7394083049524784 8.000892591569475 7.971785149987646 -0.8520443043764359 -0.5354918829311294 0.33153706777959674
Ni 5.110711502632807 2.989415124606085 4.786678149723125 -0.2799388839873308 0.21310511419223296 0.9403118185652772
Ni 0.45040193603925943 7.178569287124987 6.669451084443542 0.9216772341832256 1.642134535647578 0.6457664975186814
Ni 5.037698100234833 4.643790204968178 7.182080784796505 0.34795844656041364 -0.8783862847050743 -0.21463800589699167
Ni 8.041456600302684 7.044048009169103 9.154451763125177 -0.08343589712815308 0.37160899609981807 -1.2306551857153836
Ni 4.449773838655716 0.19729394547139126 10.603445482774477 0.8277687196585227 1.0396294199206935 -0.2980368791396222
Ni 8.19109191548661 7.292935493240478 4.503047419906184 0.016042912395475596 -0.4832169847868129 0.5955019449361744
Ni 7.00430906185626 6.069822737286934 6.801964108502601 0.8666160315430236 0.36403349774540533 0.830990311919614
Ni 2.3035352192286687 5.308082514280826 2.441249756879644 -0.3426172368531583 -0.56885220355913 0.44543925181740707
Ni 2.558143733588523 4.895823802367765 11.637794159017963 -0.6167546836673636 1.1956719847719794 -0.6158658533045072
Ni 0.971414623087512 3.1425682840878406 3.7374139949890255 -0.5567734180177251 0.5162713441386205 -0.0937601618722966
Ni 3.7357965119407455 2.6863818514969973 2.4936665435781924 -1.60471958533423 -0.7707640201387048 -0.612660458993332
Ni 1.0242276206000165 3.206678276433063 8.136358610184724 0.6231353903827269 0.8930197183475329 0.5813904452354568
Ni 3.602508292810904 2.7867582799023083 7.405705069508423 -0.5962632485822311 -0.6758100950686232 -0.4576249952503216
Ni 3.9522890020014465 6.834890405801555 5.940177481659329 1.9346083188771261 2.085342584141621 0.2401847440178444
Ni 1.0249982823662933 7.148078281007468 11.547014736255052 -0.4752807606588717 0.1404413679789194 0.04624334723825584
P 0.26183097510122105 5.385874019629716 7.962324143480471 -0.3418358786024435 0.8566401512772344 -0.4495095652320388
P 8.426515485170677 1.7451953028655693 7.97040521209556 0.048891069273748054 -0.5625625138956762 0.7090912257192562
P 1.7680612908014552 3.0512947311336123 10.367281171133882 0.40543828594443726 0.39746863747539934 -0.31084174421377436
P 3.9936780721550225 6.1089904882318296 3.847460868569759 0.2610330482217634 0.3808634248185505 -0.8279420120115935
P 7.072689427047558 3.97220834200745 10.543837061805213 -0.5876549380879299 -0.8151672288444283 -0.12966664596091862
P 6.347768703251456 7.721903965568226 10.492695040334178 -0.5722265193480015 0.9025083745642585 -0.7516201002204024
P 2.3055570730390182 8.443279645239453 5.819341343350717 0.02680760711114738 0.4910992157483672 0.009891033861466838
P 6.868717924036603 3.893981639425838 1.5317972464616956 0.14490403173596336 1.2035634717049142 0.8879027088359418
Ni 5.3057795955910105 3.2375591467382288 0.12273105959274994 1.118819654398615 -1.8389959342874393 -0.03224523318695092
Ni 1.4609299104175772 1.0965338274948186 7.037186399466534 -0.5687480738810979 0.19790089564796887 -1.49147020438907
Ni 7.016068453748744 0.6257882341476525 9.339819491098206 -1.6965671035648457 -0.6154321082011982 0.32892122742330454
Ni 2.4760365223484815 1.3158913660042666 9.220589049246158 0.6692481255803894 0.488135762244669 0.9551373136138841
Ni 6.307558292269831 2.0728262862324125 2.550819726826188 0.4833208573545289 -0.015571886296328023 -0.46890159660540537
Ni 4.145380574194375 6.886153013172491 10.603935986322188 -0.455782542724944 -0.2986434023753695 -0.4588940917707322
Ni 8.282302002177733 6.887694336705045 0.34088001912049537 0.5191808044759316 0.6647888042574551 -0.9203993959120664
Ni 7.706508863460717 3.925116374783425 8.325202476054114 -0.5634492873760039 0.0764466102945135 -0.03598361718346061
Ni 3.317236506762244 8.475991970565653 12.785348515423017 -1.1245215898793988 -0.4829606458016328 -0.9884289857874784
Ni 0.30891296905532994 4.9003752400933065 10.076404407392134 -0.15476369813886248 -1.5176844008905928 0.5609218929684598
Ni 8.591364570281812 2.5768028149414386 5.967061790710672 -0.3103447499726978 -0.45904372997471904 -0.5527455278052545
Ni 3.6402888525765014 2.7890158655470487 11.483491353513102 0.7379521158150065 -0.4030093647879704 -1.2664570259053414
Ni 1.0915018594914814 3.2652576372791215 12.61724542433639 -0.3350232265559843 -0.9858524833095537 -0.21234972408344718
Ni 3.0404691999696754 8.571309231140582 7.894223029846835 0.599260126427026 -1.9095817149258016 0.3966744237088781
Ni 5.819983259268981 7.83615230576652 3.549591935955628 -0.33603444142931804 0.28305583234975773 0.9636926593830629
Ni 2.9935948313620107 8.679065879284122 3.5824747135313104 1.3987420833257136 -1.2928324305750765 -0.058104103231583805
Ni 3.408102062310797 4.484743749626657 9.368203417280636 -0.5718850768481828 0.31633979121386807 -0.21215483446382172
Ni 7.4455174563542865 6.078200284016814 11.230143097806335 0.7219871078453178 -0.8511906981268889 2.0630963711489114
Ni 0.5035522114071227 9.02688820092742 0.4860101362848578 0.3732856124712926 -0.10871961139560632 -0.4955387395769595
Ni 4.597269434112098 0.21755328331545845 1.5984785291235781 0.4635339045355888 1.328630156999976 -0.0819459428461879
Ni 6.133588198489584 5.699252293624945 0.34702627337177894 -0.7303043694617616 -0.17558963374527822 0.515908561482563
Ni 8.323845204684567 8.69271112585173 11.301110166549618 -0.7508230582404036 -0.051394809532208256 0.1599663253857245
Ni 0.04804577449240581 5.111726962842489 5.849331872650608 -0.005560781917229133 -1.4898149281738342 -0.9928831649040901
Ni 8.120481164477617 8.846498947964538 2.5729005464213732 -0.24060280539186948 1.0011253503082242 -0.017721328539163028
P 8.28314519681613 1.6744757525483958 3.547030618908884 1.133643349675009 0.8004756882705246 0.6382462778822364
P 1.77812522680813 3.0890480910721645 1.3738723306553338 0.9248209220185297 0.6948051481138874 1.6776913497062653
P 4.678760115939118 1.0528962383055167 8.468756816571666 -0.06964732798449295 -0.06563666416320309 -0.5784084797889975
P 8.686001835180614 1.5727393327908314 12.381731188562172 -1.184022316348193 -0.4929007877334802 2.094291051584161
P 6.644700148493433 7.757934669793923 1.5312795430869377 -1.461711742179715 -0.2796709750379248 -1.385946217112626
P 1.6143732013878136 3.277751424501822 5.91574750366835 1.760948040944077 -0.4978627597244459 -0.0034074830196521963
P 6.736844095913105 3.86199464282084 5.888212212089728 -0.22236237112444285 -0.03924557576418402 2.8980261273322476
P 2.3659769555151264 8.416424349336959 10.501877701944592 0.1736312244673268 0.3827130764327796 -1.2557504381211149
