# total energy = -340894.2448990238 ev
CRYSTAL
PRIMVEC
9.03769929496710 0.00000000000000 0.00000000000000

0.00000000000000 9.03769929496710 0.00000000000000

0.00000000000000 0.00000000000000 13.22758646283580

PRIMCOORD
 96 1
Ni 6.376602759718911 2.072787229275596 11.589005284309852 -0.13310678199071915 -0.20693240972261784 -0.6439433282670136
Ni 4.611657633978039 0.2189527187333198 6.162031517463592 0.7911538966489665 1.055990120666904 -0.9049133844613254
Ni 2.8287997888077197 1.6636325198861297 4.756944068115284 -0.03034724483328967 -0.8173256699483278 0.6512956548670267
Ni 3.267580075538118 4.486386088058985 4.767685373383647 0.5895225874242879 -0.7501615133970048 -0.5000849641867451
Ni 5.2193615528253865 4.375394106569057 2.74268678514089 0.3388662544511583 0.3609026654259075 0.2032292498394177
Ni 7.245821536997378 6.0792624624289 2.738017909834506 -0.2848396637230578 -0.43518466396893435 -1.5253421745461668
Ni 5.0856668714329505 4.4564803420488746 11.5097455677991 -0.11328151973467586 0.0420395935695534 0.3417050094515341
Ni 5.616993195982491 7.699604404077364 12.430478325640587 0.2000228270869781 0.5789381270402223 0.1917438749076375
Ni 1.9793103084588608 6.6768260829917665 0.2594813761548193 -0.8530413781823823 -1.528342137714755 0.7699754627991385
Ni 2.5244462370892253 1.675417679389661 0.27091677670682696 0.9606651854106487 -0.7214939702589833 1.021143445301364
Ni 0.5410310057419411 0.030077462291220734 4.974022368074805 0.5902095861889836 0.6199629061920161 0.3624075321062081
Ni 8.796518970107337 2.215682288255912 1.4286984380008971 -0.19488833407389017 0.605340271182835 -0.14951247704225218
Ni 6.901946127526628 0.738628545494514 5.035199456414801 -0.8993446321242963 -0.45031920561752764 -0.3527820932013021
Ni 0.9086592957396707 7.31466169032437 2.458002881538565 -0.775689225354464 0.03169167467632607 -0.2950960513437434
Ni 7.649544589284375 3.778905972187877 4.034995499905828 -0.1631526935335061 0.054712046830899315 -1.156753196219595
Ni 7.706536319214794 3.903373162895416 12.700929660848617 0.2516341235053666 -0.8558860467200292 -0.39896861905969355
Ni 7.905763356098109 8.696408378220363 7.057539153610058 0.5850642945426181 -0.10526122053336065 -0.5081960233296539
Ni 6.740740690360611 0.867947173028354 0.4968384651435003 -0.04328966392657061 -1.1682493697846525 -0.2868271264667318
Ni 1.9116179429056026 6.43689324978644 9.085420767835657 0.23205183049806488 0.7001720688527555 0.4391439057269986
Ni 0.1172451654320245 4.962076337528972 1.301068052641336 -0.11025044621783592 -0.4767612018591402 0.6607819970909071
Ni 6.325277667065112 2.0603513554436494 7.099179448009267 -0.08888020807217595 -0.6853254907582261 0.48088756532268795
Ni 3.400380024728983 4.24011782785061 0.2319416997444203 -0.6195317321918685 0.3381563728683273 1.0009322604608115
Ni 6.041683709962885 5.721604561974341 4.774311814294681 -0.2911113556643825 -0.6691339686000283 0.015441274255734699
Ni 5.054821204726239 2.938390926951753 9.573769218533132 1.0989910497084623 -1.0942566203472703 -0.7976677865080842
P 0.2037784221026228 5.48011724454002 12.356311352519592 1.0221770287722007 0.6654457211151636 -0.16645964641955202
P 4.205458252163461 6.030178719128532 12.590227789496772 -1.22468097040982 1.1278583675621159 0.5292932103195852
P 2.499899846589539 8.627495923301325 1.596014263464719 -0.27394307141521207 -0.15016862256901234 -2.406699626064423
P 6.311865721740542 7.745642442812785 5.841871030183996 0.20913815912468497 -0.3246156580694151 -0.6334992501155541
P 4.650962586954157 0.8125930741577805 12.720771025245897 0.47506041711794955 1.6261047358782252 -1.322019079441362
P 4.241256577925338 6.252144606710377 7.962437862793426 -1.1821788353815512 -0.4084801580945546 0.7618019258494106
P 4.699748086187332 1.0137135089828047 3.877838951894399 0.43042709467929097 -0.08308725553948271 0.3519786234634003
P 0.04227293332961415 5.590413323206504 3.679702765281082 1.160703953337227 -0.252444535221804 0.5633618698685201
Ni 1.4076396955475396 0.9226225407035937 2.9446856843092757 -0.6226692493795857 1.0027420599760408 -1.2919199460631363
Ni 1.8126280256953438 6.6534365179648205 4.605726192120549 -0.9395245467772917 -1.2937865669582298 0.9522021422449601
Ni 5.951523624681269 5.539377436920891 9.188397214077366 -0.1684702490916776 0.5739427307081599 -0.4787970013422464
Ni 8.664252245157813 2.3329373951568426 10.157053274666875 0.036612509016711134 -0.3299203581117802 0.8918382964449222
Ni 2.416626487950324 5.371402763199548 6.900726038160848 -0.7327057798144027 -0.45292039068580064 0.4389500445486376
Ni 0.46540805931111495 0.10949985738407492 9.221016077329008 0.6936556078904763 -0.5434864711008317 -0.3832928601956495
Ni 1.2222945643370966 0.7606904725375125 11.414124001008295 0.6762484681576224 1.3242610813980031 -0.22364740848445352
Ni 4.273069278425667 6.914183171980448 1.531780625320971 -0.3710461816178126 0.5447403981125908 -0.4494082637674841
Ni 5.668282137840266 7.986759214587868 7.973734082780744 -0.14718074358528202 -0.3715963976943278 0.5522428771372231
Ni 5.187160231267809 2.7723774339146634 5.074260391517761 -0.500988192727305 0.28311496772246725 -0.8180522637017072
Ni 1.0805744062275315 7.552027817012056 6.93423149968496 -0.9154070849037976 0.07545930668057972 0.06923106638268076
Ni 4.743580926365344 4.5202413085346205 6.782074606763525 1.7729100984019597 0.5119922571472925 0.047318068359673345
Ni 8.037749912378453 7.35278270473073 9.095632463942282 0.3173348081372857 -1.0739112239216988 -0.6908998995222101
Ni 4.670845524766863 0.27909227922745145 10.409885615663146 -0.243454930128684 0.24057015238172122 0.24353052056162577
Ni 8.090340282893061 7.478750153473229 4.482630924122086 -0.3886039879959179 -0.6543807215502536 0.49254494705595814
Ni 7.183804846419747 5.975717544919729 6.8460036744507775 0.6046861825386037 -0.05774723411279732 1.56363875613352
Ni 2.388537319440374 5.311844326751487 2.5076325018588803 -0.18453810118781766 -0.48285034547601363 -0.40657059977666754
Ni 2.4473637022689663 5.357656423011763 11.29761540804524 -1.0963911501917698 -0.14793304837027427 0.8941155225148729
Ni 1.07105770917445 3.365639109750782 3.758565726805478 -0.2964913890293733 0.18196416981305438 0.3806921893480089
Ni 3.6455637610566654 2.737934763003653 2.5970777051491396 -0.7534435265823863 -0.3083284908736174 0.12251640806938256
Ni 0.9980873274018189 3.2631064145302595 7.972729090651303 -0.18560536611006745 0.5950777129145622 0.46557921710039174
Ni 3.4232273278155834 2.8632514974177354 7.513876978198977 -0.11102049161464106 -0.5785727732810035 -0.8258735595183391
Ni 4.056047012199981 6.79020401701922 5.7263014541476425 0.7440050068773058 0.5025951322031086 0.1548968812826171
Ni 0.6496704741806663 7.302388495074528 11.13166156382159 0.984935370811923 -0.9448711558011855 0.4615472131228632
P 0.15684926624523313 5.884527161951455 7.990441173162821 -0.16654217883102929 -1.9843676496884406 -0.8340882341186473
P 8.441879661120709 1.5608648444914568 7.991168707932786 0.5661507454675668 1.1297437575102864 -0.5756265461684862
P 1.7984749890522997 3.215062006615557 10.117476286950685 -0.2153409455012872 -0.2179094775594118 0.19643948061109395
P 4.120476768412154 6.094725965427782 3.596818931469015 0.01285782979927463 0.27031138819989575 -0.1369058440218352
P 6.896080660871879 4.086070248297167 10.551261437440589 1.2550259012502643 -1.3862069269731803 -1.108859972082742
P 6.283912118715679 7.7745450042332545 10.16965905724013 -1.2059026613610522 -0.4248855960357715 0.5940757540126091
P 2.6722035781346483 8.436664908794377 5.737968219794198 -2.366686833116911 1.2722774892418605 0.6331956028322063
P 7.026765788495393 3.7603877269250425 1.6922576239471223 -0.11936449270396216 0.3948574251047974 -0.61039326022571
Ni 5.19946053961467 2.824009808334659 0.48780799629692945 0.537236633536378 -0.02880741114999555 0.29220613139045803
Ni 1.4467006306505013 1.0179521898165134 7.0262425057229585 0.2667678938230115 0.00785240616488325 -0.35439751731753805
Ni 6.95127388870015 0.6698064675655339 9.206677767856347 -1.4206653657613662 0.7009125465632058 0.4404132593577254
Ni 2.6727368023759888 1.3664368257802093 9.152801332773217 -0.5831922743308859 -0.08357165137506897 1.5292376529458307
Ni 6.4062192993608384 1.8524029390197618 2.834962595759758 0.4886201580802552 0.6177126767052588 -0.8469406646012833
Ni 4.10328706490317 6.805540992232022 10.36001740008908 0.5828233210272413 0.6420376266038684 -0.07135788291769646
Ni 8.183302054866466 7.197795204480688 13.434465462953376 -0.36193727733800896 -0.134862074118929 0.12270641259300157
Ni 7.515298608252586 3.6729208759471477 8.41480813751881 0.16034144933695613 0.5110890286067327 -0.651018232835924
Ni 3.0495636624217966 8.285898013980031 12.398190242172554 1.2146032744588435 0.9306053899107908 -0.5827374461816544
Ni 0.14950342449333884 4.654631892750502 10.039856912809482 -0.04387947499176959 1.6099533229293435 0.39571411667813783
Ni 8.710796395037558 2.378541624339986 5.853974316692531 -0.2971400783569657 -0.6023109974382079 0.14898000157754987
Ni 3.4296621695076954 2.8054282991787844 11.407549978751495 0.0069247521442913 -1.1579819264203735 0.11559525546951706
Ni 1.2789880502003261 3.4528800182535324 12.49409017009274 -1.3513684791377565 -0.060554621654605394 -0.33164145456794497
Ni 3.2004028588281894 8.303928223496552 7.941392676888577 0.20499636904216956 -0.39484302692709417 0.6302714872068759
Ni 5.5407059786747395 7.846665842299342 3.6044377117308843 0.40605123693808776 0.87355903851976 -0.1350847316526964
Ni 3.03323254031836 8.324335347851592 3.603233890223315 1.9407542838738638 0.003566634305335793 -0.01659132869977788
Ni 3.4204527542208103 4.520819721270991 9.302048990384693 0.07992351309952042 0.3700686481958917 -0.5172733030405737
Ni 7.351354748287818 6.140312119212912 11.209280937962793 0.04202005318552764 -0.6092989987202668 0.9536478735525511
Ni 0.7245360614348083 -0.07391662885853577 0.314488427383571 -0.04124975067840638 -0.10373527080713747 0.6746348438135994
Ni 4.562176231921418 0.6854850678007532 1.6827870191589702 -0.5401286103721924 -1.5757260263153572 0.14529432519584656
Ni 6.159426852610127 5.5041755992933945 0.5307135685569478 -0.3682768464027915 0.25030589161224637 -0.354967273778079
Ni 7.922790381024989 8.71040777398031 11.243712763634996 -0.6525904624190503 0.9772948235475297 1.0635622765872068
Ni 0.16545496323853254 4.727331143552959 5.898921505157954 0.02388040616202339 1.0297787523788589 0.01728372678111217
Ni 8.167630684790453 8.895572151210636 2.2199065087712118 -0.735099733967876 -0.10170178531687647 0.676597623966925
P 8.393220689673614 1.5587861737201285 3.7174541377981063 1.2644680204997707 -0.07130183286878042 -0.1655708160566955
P 1.745920769333715 3.2939791943339882 1.7013450302974296 0.45230795391278233 -0.08649499566945104 -1.547441063327735
P 4.638427298433146 1.1396899954243087 8.242307384135374 0.7775848997152802 -0.29682768932286946 0.12467356362170141
P 8.428413489602104 1.4719971501676667 12.419274290183127 -0.06711813380473602 0.9270621526442228 0.27633496868615637
P 6.359340754617881 7.734498959938663 1.4252984556349244 0.7049633195938116 0.20035938449079044 0.03981636066598949
P 1.9201676061650663 3.208952522087653 5.904953265474409 -0.8849186865069535 0.5726967741162008 1.0705006555782532
P 6.8030194742094094 3.90586756782101 6.009636029288405 0.48725721629445756 0.866004880321586 0.936604287806703
P 2.419301646856033 8.370608366761164 10.2408101502029 0.11886595580098885 -0.056701052236470095 -0.6956302151183439
