# total energy = -340871.3332387129 ev
CRYSTAL
PRIMVEC
9.20849746893927 0.00000000000000 0.00000000000000

0.00000000000000 9.20849746893927 0.00000000000000

0.00000000000000 0.00000000000000 13.47756685498398

PRIMCOORD
 96 1
Ni 4.936076850150861 0.3364609951934055 5.024598134694781 -1.7364333436321642 -1.2458763735405125 -2.097828632423774
Ni 2.707132453218634 0.3378155651462206 8.597326571554643 1.1021033700851988 0.7158182600304446 -0.021382579440834142
Ni 5.1793745573114665 0.9564958230377122 8.591962621877451 -0.05847717030028639 0.42170874096968664 -0.3644572155463852
Ni 6.173404215343563 0.5096138950217688 13.351160814192411 -0.1027273983679134 -0.29553570998432327 -0.3459450156748106
Ni 3.0170996808305026 6.817345223028135 1.4501320543944278 -1.0307424018437088 0.42633261289494323 -0.7796582373045411
Ni 7.486416219844129 1.2612602496751386 7.2837758699620325 0.09336858286083274 0.20140865169091118 -0.1544669928340501
Ni 0.3102388782822158 1.446498381359888 3.295251550271223 1.3121067054236564 -1.3841644426218547 1.2270193887350094
Ni 6.8013316462236135 2.8610893195756293 0.05875665872145959 -2.665254387949023 -2.3209451081054224 1.4399285848663523
Ni 1.8220669437362305 7.390942519838785 8.836041209609089 -0.2608975510851636 -1.6295361301572775 1.5136518826924317
Ni 2.2878603626569745 1.649407619363142 4.6682384976860245 0.2603391074785323 1.394023851914438 -0.532355908405309
Ni 1.5363272725203936 0.439044575964 11.194736096046071 -0.5116302458221834 1.6985003160318168 -0.940221058623684
Ni 7.107053756580228 7.545359811060776 12.177615184697721 -0.15620223035760195 1.395443872190416 -0.13827341379332317
Ni 8.261099472192655 8.27683679407818 6.98504577160523 -0.2840886444896462 -0.12287147741595612 -1.3306556720704372
Ni 2.0696281851466902 2.5827440716916104 2.1080801073218747 -1.3398949312805182 -0.4819689713123247 -0.20544502654381394
Ni 2.2476836889375194 5.473503169567511 12.854498670622947 0.0021427573746156644 -0.02095834741922197 -1.2398484221788777
Ni 1.4624659156779114 5.755651526836387 6.8336654427927455 -0.2270410075470348 -0.574420955896159 1.2028343068483738
Ni 1.8616266481365928 3.0351483355383024 6.566971706542287 -0.019878998312114152 0.0014562728305523307 1.0384906783305599
Ni 8.999335492228182 3.732507836059583 2.651253449903392 -0.23918638466031708 -1.1418986477052655 2.1448826484887835
Ni 7.2737275577083835 3.8000521637543354 11.523777804964947 -1.39191246199839 -2.3335136887990524 -1.7866780987203295
Ni 6.268224112040614 1.1085096964644294 10.984594504263477 0.1995021786968177 0.5814583223589147 0.13568688401306955
Ni 8.95977578782782 8.836124086084789 1.4894458919168827 0.20251705426374156 -0.35070309918508635 -0.09386891953601899
Ni 8.822642846037738 3.6207350958334206 7.534956971661082 -0.5872204216536726 -0.16549394007217305 -1.192006362994934
Ni 3.8126770135524954 1.6921718808238686 11.184507297245345 -0.8630838500200491 -0.545608402539841 1.1150524740466992
Ni 5.428022401403315 3.8106879781357175 7.335880310234046 -1.7432202846470106 1.1672163005344478 -0.035225141750881275
P 6.4665291013939195 0.7102320588968081 1.9416991364078564 0.7601260808088844 -0.8765967969048194 0.47887696265056234
P 7.551824176165305 5.5274557552476145 7.0997532599208695 -0.17127660819222115 -1.1425815327049031 0.641646818923353
P 6.799305776817635 5.707196414044324 10.847392498743645 0.5255013473773207 0.8670580041764486 -1.1206888463968698
P 4.560103113893322 8.946727347153864 11.87936945329889 1.6056811779165507 1.2997278721433292 1.2145202278267342
P 1.9132310670052217 2.1767690512310045 9.431062075387953 -0.44138667901458817 -0.25470504912120656 0.9773549873615038
P 0.938355083356913 6.45745873155352 4.969838884651207 -0.6203580847479059 0.9243236706671372 -1.3316103226742229
P 4.448560586099656 8.074710278345417 9.04201871891267 -1.1012330516651034 0.8968365209904618 -2.28512167064891
P 3.2621101684888902 4.537063453648977 7.386541778979165 1.2179115128964701 0.21511571686435854 0.22393100116314338
Ni 9.00399499186193 3.115151760079817 10.022579107944205 -1.3126072992091589 -0.31114230617332866 -1.3606735585887664
Ni 1.640447751490341 4.176780996790465 4.506319043713807 -1.3585030333000088 0.04819610008925248 -0.3314301098880873
Ni 0.1663496620231986 0.9529229260853517 8.846674261441283 -0.17137353878140166 -0.47263175307179894 -0.4089480988699086
Ni 8.941331167736125 2.1154865017001825 12.141616406203228 -0.32007431855563584 0.41352183428352013 0.25034162994618825
Ni 8.232792551492768 5.606519913064539 4.084767850070424 0.805349214312742 0.4232904836345097 -0.9014012575430089
Ni 1.6170121258621006 4.265247030350586 8.943686701345438 1.1736137194203595 0.900849498804597 -0.13060869815921378
Ni 6.805530720992366 4.281859159479602 8.90921100830435 1.0709765667734072 0.24089256871814638 2.1943393604580144
Ni 9.000016921028374 5.05086076899409 11.701425372325392 1.7573132724049672 1.7242339733524947 -0.6664687630630393
Ni 7.021276604231678 6.917994098516021 5.5703857696597385 -0.489157518640964 -0.4305147692970908 -0.23715187072879157
Ni 3.963576658805925 3.988964485861744 5.203513712133419 0.44751670317172604 -1.2260775936470305 0.46647241833862235
Ni 4.214388499763249 4.71297337756893 11.227203415826052 0.2579024730125816 -0.29871719303609845 -0.36807270081178545
Ni 9.10516875169591 7.934695076900467 11.013139925043431 0.4672257515648792 -0.8391764472748322 -0.7010606421052958
Ni 3.648922306068408 9.111062189967846 0.42395276973919704 -0.16972006233837866 -0.676069519377597 0.5795755035139051
Ni 0.1920045355007146 1.195272158024069 6.013003242576099 0.203087839165547 0.25353545429313756 0.47219672241690935
Ni 5.752060212889427 8.384990594865483 7.088903808402129 -0.820944754758154 -0.06248449168746659 -0.09948060929584157
Ni 6.4516850037464835 4.310681756028282 2.0757877489905923 -0.30803101423785656 -0.062320969526408795 0.12730405926601301
Ni 1.4382383592818795 1.0784071187910627 0.05181621430652642 0.6739414172910007 -1.4202694158745282 0.8865071140399958
Ni 4.3611719467236245 6.954045365445122 12.802812296128348 0.15261734121982104 -1.0832258164544053 1.848387145694352
Ni 3.987748964218158 2.815930848816929 9.285329317969495 -0.6231086509098495 2.0773793634304867 -1.4493462786358264
Ni 8.81806622287969 5.737262157728492 9.117601143900503 0.14853185829653776 0.11420763109337105 0.11298609998144413
Ni 5.677646346208951 2.072630155266457 6.0137445266087415 0.09075891315212756 1.3397825740723701 -0.26342983058871405
Ni 4.5960807128440235 7.991999555597733 3.0221422539519263 -0.23794068517867406 -0.5952319791042394 -0.19717018812953138
Ni 3.8271067288214358 2.2246348201958743 0.40844197688724876 0.2279637764716203 0.004946545371997933 -1.655744413121529
Ni 3.0006348876582845 7.871045943563572 10.962666309643229 -0.9316582566553375 -1.32556231670793 -1.0995600348380548
P 5.404246061374978 2.897849640796822 12.020938128238335 -2.230088750143482 0.38012268999778404 -0.10464518421591656
P 2.2749408409452174 0.3760695046294571 2.811865297259024 -0.2813959281488315 -0.4311138363336704 -0.7051476676904759
P 1.7431132878869045 3.1148294626743205 13.437713322013611 -0.0016907574388616042 2.2339510613123656 0.6050502507462417
P 4.887594111866896 7.37342795797438 5.250388646788821 -0.5058033547277611 -0.6307268295767395 -0.3923176894020792
P 8.232074288703375 5.556462521742293 1.7819501252492247 -1.570311025947373 2.04118363023622 0.10352392612727977
P 5.340587719540783 2.8502325012590495 3.8253377764901257 0.11809282508039017 0.7409150550980723 0.23184871334832327
P 8.968892200154718 2.9772360960192437 5.042092437865127 -0.28975432741585583 1.3385183626479658 -0.7894721380711693
P 7.021248978739779 2.131361951045207 9.049363416359068 0.251980708211508 0.46639708501599675 2.2275027345838603
Ni 6.90912631561622 8.397781197615041 3.6402506641610946 0.9232620621718421 0.2871114904763701 -1.2529222246437002
Ni 6.598938084069153 5.45468100108652 13.066877927249417 0.2176042876141672 0.3729220584842868 1.3028844154944401
Ni 3.8970913083006615 5.865140559732176 9.2028331532089 -1.713826919086558 -1.1044147918271947 -0.9768317678681822
Ni 1.013505629821381 5.152872502082361 1.3491176015637358 3.0923339063123194 -0.8794851741962079 -0.6784110230265801
Ni 7.065864148157784 7.496950740755213 1.1233832613032246 -0.9743110583288574 -0.5744857476958235 0.977774848507742
Ni 3.937617904917513 3.6970367044603756 2.2883695925576593 1.8148774439726807 1.5970049902987915 1.345190889572135
Ni 0.24710081654546473 8.49803410771903 4.687295482848165 -0.7458495162852122 -0.6425330781830482 -0.893625727362648
Ni 2.785791437154363 8.632597878762441 4.695516829237513 -0.6173840897212464 -1.5226353171379647 0.6412349281969151
Ni 1.3785949222704397 8.53593628260541 6.860458486536529 0.21905927489313884 -0.10206739618641131 -0.7120757622688768
Ni 4.36704696800096 1.1994620242955227 2.464601813883108 0.053050342857760245 0.2925946250781284 1.0362913566863958
Ni 0.5609669219141104 6.978457091787152 2.6628837819931634 0.3197668146175461 0.2830571179013383 1.0733286119453513
Ni 8.549343854674063 3.9437875981084445 0.33340561578929934 1.8977962922550995 1.7957697766089524 -0.90251094566742
Ni 8.710207094005982 1.8330250555231096 1.2481869460584734 -1.506804006532663 0.3351924051439969 -1.0136638490948673
Ni 1.6688099231740272 3.4066191166161905 11.32576564582578 1.8207357025256707 0.3217226527923362 0.08826751418884153
Ni 5.9786997484345195 6.5517997863909745 8.503347410661073 1.7011678355616509 -0.9674395280200049 -0.5182228114380365
Ni 7.367230639291548 1.9336647225136954 3.6016642979253315 -1.4699472427156297 0.470406463285706 0.3769262945476734
Ni 3.177695873740724 6.138540844566149 4.741124674664449 -0.7940947244448453 0.5397938527405929 0.16739655641152462
Ni 4.509576089208782 4.4144246866089345 0.0012818228241458108 -0.1573098615994839 0.8130990334614902 1.1856541955246613
Ni 6.907929210967232 8.699322650197503 9.433056635903112 1.3291240659172594 -0.3531533604977918 -0.5876528812054008
Ni 3.3646559944205547 7.261618383759018 6.9812316120236115 1.5388116697875112 -0.16694815602019633 0.3069565502267552
Ni 9.094035678460333 6.71935760325992 13.399356247360616 0.74932436220769 1.0016575686626104 0.2208348787363229
Ni 6.867743328750478 4.192370982719193 5.265388368040625 0.4037009915383563 -1.144555882822455 0.8466491015027935
Ni 5.290143571331941 7.2543989218758975 10.706497885806554 0.9853297780368643 -0.8740501192235657 0.30083423937910125
Ni 5.456577951530298 5.563525439171315 3.923562054638948 -0.3433551434604474 0.9884061029693428 -0.4265295593970977
P 6.9439528524044345 0.12647778956436995 5.525856239266621 2.141205713857828 0.7821090128378789 -0.5222890110876102
P 8.6904732842923 0.13845620285207738 12.770897486186364 -1.0798874961097917 -1.4545003120329403 0.2700715042749478
P 2.5039653772909825 5.301156934102619 2.883674080053359 0.2418546755210996 -0.36179123867844787 -0.3900407204424444
P 5.086460819555496 6.309782060355054 1.5560527945865053 1.335717659974377 -0.7593946019594986 -0.46013104950162687
P 1.8763234098272301 8.116387937124756 12.872962628558973 0.12301314520014299 -0.8346628756751948 0.9617190805964598
P 3.3337338604874973 1.0720808811460325 6.4376134990225085 -0.173521695472656 -0.21195711663071884 0.9819768024042314
P 1.5172012236285053 5.993368884633257 10.701255488293723 0.47909756330180064 -0.7141236459368411 -0.48744362127365076
P 8.967161002662339 7.891544058553145 8.78808795991987 0.23559429643368457 0.5916419477601359 2.1363152185347465
