# total energy = -340891.7782764658 ev
CRYSTAL
PRIMVEC
9.00450124535603 0.00000000000000 0.00000000000000
0.00000000000000 9.00450124535603 0.00000000000000
0.00000000000000 0.00000000000000 13.17899776151589
PRIMCOORD
 96 1
Ni 6.5708005414385475 1.9364809873872173 11.559733555870547 -0.5814284975622438 0.2793022788445964 -0.9345913711417323
Ni 4.726246505511809 0.29559615944402 6.190781781728796 -1.3002564909532897 -0.3835386576578685 -1.5130535869868007
Ni 2.7291202033938324 1.5399227601054593 4.587318759797411 0.4014307074469409 -0.49689113983979594 1.8993605514184257
Ni 3.593147103912022 4.215268083087696 4.8649086184445345 -1.6013398702287196 1.0964729112722986 0.33350884679398696
Ni 4.8107087255822645 4.505005914133226 2.7291202033938324 1.3352126953135006 1.3263583302466642 -0.8397192071521797
Ni 7.099986065033499 5.973513976223889 2.522051796255003 -0.39236422636929846 0.7878407731153334 0.016312621117094486
Ni 5.10594830678377 4.538484649124905 11.224855260492909 -0.12467459206296592 0.13410411290698196 0.877140071002799
Ni 5.453287931197179 7.778799382968616 12.075230436933397 0.23758870115589406 -0.07515437384565121 1.0769201859513515
Ni 1.7722208788024345 6.65994510206728 0.30193712910005577 -0.46632278013463563 -1.7210753731188553 0.015033240184038624
Ni 2.9323698016273436 1.5426511239307628 13.65054178670825 0.04930218866923767 0.7106477715730987 0.5974629253172871
Ni 0.5140192424366706 -0.016747471546806128 4.6545850841675955 -0.15602610979105386 0.7541919747126365 0.39105990573557814
Ni 8.531440605206258 2.185734581605799 1.1455094049794348 -0.3061438245174728 0.513741121517599 0.6798906928959001
Ni 6.984449311758016 0.6004921675968639 4.585473737527429 -1.4461457694206576 -0.20383397330295216 1.9079958584959205
Ni 0.6513838067646894 7.330447265511458 2.3214675303392798 0.19057839384462663 0.08260543080705772 -0.44976847532038017
Ni 7.736901439473113 3.952588777768362 3.7664261207721323 0.04669946093906796 -0.4150151309995949 0.6873687464405001
Ni 7.445182618191389 3.9196232993378786 12.66348818892155 0.7626820144615187 -0.023859066005784718 0.15032803096501207
Ni 7.957745832804457 8.627698721683142 6.7767722003466115 -1.1579541585062316 1.5633397368358624 0.2030107060707084
Ni 6.800712467351016 0.5937811129467028 0.40825597462648405 0.06369085329074192 -0.32144934452629154 -0.27167253021348053
Ni 1.6818697150298378 6.486482393385269 9.318552858453891 1.3369697872139232 0.34005256144977564 0.010862396635800646
Ni -0.06435606962319376 4.9090468818071535 1.4545267732736695 0.46956931209639124 -1.1971195158517836 -0.5999548385012055
Ni 6.1339201583491665 1.966709097491324 6.884576788550185 1.9005178049513205 0.8973522842846158 0.5930267439228044
Ni 3.4828329612592337 4.209883391445677 0.46715981884960733 -0.46171047817360483 -0.36376301769283803 0.11799769426342258
Ni 5.856437453264819 5.733571036115419 4.788061504932029 0.24387042039954773 -0.6464717511158221 -0.13062541032976213
Ni 5.308090351385228 3.0037214681346245 9.274205690666367 0.3201907895288421 -0.6042771200256432 -0.5661054940519282
P 0.17724820093335694 5.459212892903614 12.50186099645069 0.3052917609298226 -0.30225734497887297 -0.7368560545373504
P 4.011874412837007 5.918676564685608 12.54948940442944 -0.22697775840926718 1.7733893520312234 -0.11453596096706725
P 2.497533440281672 8.494837308342037 1.6620823239205813 0.06453803178238562 -0.198457025261755 0.04591038937886933
P 6.195150765649711 7.644245123425672 5.855125497458395 0.028496564777796083 0.27705513468163256 -0.3755291570898307
P 4.776986869061597 0.8906667169444636 12.566161238167227 0.5561342417718292 0.39744883998105746 0.041699179510999156
P 3.652648847006433 6.475974140632367 8.230520984727521 0.6713150354117472 -2.316510726483153 -0.4386787931651219
P 4.840450592628397 1.1492084540204734 3.900100640560186 0.18082002890628213 -0.4545494416487913 0.8620227557453863
P 0.1616560068742949 5.591182860638434 3.567198833168202 0.19139060533327684 -0.5811721585770636 0.5811418195597604
Ni 1.2001199030906613 1.0925071107599553 2.512773558348756 0.6642157053628045 0.508122489779241 0.18972607314666035
Ni 1.6937286429437812 6.891216707641864 4.435668554516111 0.21167095284886775 -0.45625151194156266 1.2485212673625272
Ni 6.150263327797767 5.508944752333159 9.068454642034606 -0.8859594690666419 1.241525038550352 -0.23240304318989652
Ni 8.47299238873746 2.036394931299987 10.008288636191299 0.8669932123767843 0.8450763576990349 0.427298062132006
Ni 2.228145781662499 5.242888759111222 7.08670262504971 1.4912267209196963 -0.25561881918472745 0.5398082509182961
Ni 0.6285240798891173 8.989940795373377 9.010046045370531 0.6741733307961485 1.3868291339382115 0.17416549970424197
Ni 1.8456255715544985 1.2118977904949424 11.398739379825164 -0.8861911254614738 -0.23389042636870042 -0.06794680035361847
Ni 3.928519746398605 6.487211757972232 1.4512050128276153 0.3797537366941395 2.181370201891856 0.757372172212831
Ni 5.336355480255288 7.831664808771778 7.981951732590534 0.5525028156668292 -0.26525557094354313 0.6602202110501663
Ni 5.501371966930253 3.1510080921956534 4.605532164119001 1.371562437587128 -1.0431204637930873 1.1267445656726467
Ni 0.7816960458518574 7.399340703225643 6.855780394116782 1.4162078442106447 -0.5247752678445736 -0.09008374146197388
Ni 5.044132406913441 4.982577637574248 6.9336026950955585 -0.28262465834961 -0.92250975738685 0.8455571539901955
Ni 8.348289053369044 7.213163639027695 9.162671438118103 -1.9093436307730667 -0.3734519628458278 0.2928944157067343
Ni 4.263045965784268 0.30360836449931766 10.402182431605377 0.5310351327113564 -0.5827155918047836 0.20101707267944735
Ni 7.947669796103088 7.1472596956699475 4.433322881986435 0.5802817855523102 0.49813169711511635 1.2844269801202008
Ni 7.36313360440866 6.210053214926534 7.020768066388313 -0.15532522706928734 -0.865279057899155 -0.28521093101954753
Ni 2.1215324889509644 5.285651134709793 2.5781678469457368 0.16440584921431686 -1.237715949216907 -0.21652159607294966
Ni 2.4220036852762363 5.163243947115147 11.371814120714857 -2.0995690121536486 -0.9612691375432348 1.019088105434232
Ni 1.3497206839276077 3.2634472971018145 4.0104345931153365 -1.78148524166548 1.0102198564103249 -1.6127002895468612
Ni 3.6624367396734465 2.628656984915572 2.7443414120086613 -0.3296231385863356 -0.7575434076833727 -0.6342872932344882
Ni 1.2256476636343439 3.427095099613591 8.333370395990288 -0.8330942456364943 0.1933994082331895 -0.6138539650808009
Ni 3.830379689197336 2.651933620190852 6.893472335160804 -0.45670222632573604 0.2894735629506434 0.6204601575434089
Ni 3.758901959675024 6.644853558267911 5.833168922040506 0.2598539403119976 1.712325394840367 0.16844736627354215
Ni 0.5105741203259077 7.344116098141197 11.330630234154489 1.3303466254704506 -0.8510274330761473 0.39675567056877475
P 0.1802241885381848 5.582646593620652 8.103963622588049 0.20625929491499317 -1.2416407381926098 -0.6784812141428831
P 8.412689245047497 1.6219177468817465 7.695348368368727 0.11294547655149581 -1.5158429768064796 2.97726212744644
P 1.8455805490491304 3.244636894359044 10.511093672990896 0.5403831495851598 -0.38356436868948135 -0.5634472304934748
P 3.7564437308819287 6.227044708452436 3.673566303000428 0.7038559454622458 -0.5204115915592393 0.601929445729073
P 6.9527444634778375 4.028532739823184 10.36215832478329 1.3232462669802436 -1.7611827826627025 0.41483823910209844
P 6.337683013143874 7.594405209983243 10.013178080274269 -0.8075655052377705 -0.12805456427879236 -0.11715951463284338
P 2.4769581553284743 8.60441308190679 5.769633162465117 -0.22697930107116393 -1.0562310330331166 -0.3817203735022071
P 6.810167193478306 4.008335643915078 1.6942527049062654 -0.3196074062215464 -1.050803434259642 -0.645177714894747
Ni 5.279492055975444 2.780436855012332 0.5242105367517818 0.7732567046535715 -0.3621604490924086 -0.025756797249129836
Ni 1.5601378650157123 1.1092194647525742 6.875825313956744 -1.0670458642604332 1.6464313632507195 0.3150557822951219
Ni 6.867102653766739 0.5261338981811048 9.156306156309169 -0.6278875603557316 0.21208310068562183 -0.6506641919306149
Ni 2.589172247707795 1.701850702912177 9.083729877655879 0.9230550883673588 -0.2032225649711984 0.39447073118934
Ni 6.409061693154375 1.9315014982935113 2.625915114338658 0.58116907325327 0.9693431728006208 -0.8835539449489428
Ni 3.971498230022942 6.584712495597274 10.480834947583139 1.036393172371583 1.9008633612161974 -1.2616038115780983
Ni 8.009404655463754 7.081166657789654 0.17911483400591613 0.07565753873431486 0.9105518136940255 0.7509174177264228
Ni 7.694580284427149 3.708701866189652 8.246375209767825 0.11031061003181002 -0.07051070442605276 -0.48499335996094545
Ni 3.0561006508798103 8.373654732893401 12.742219044058654 2.255964075248347 -0.38603211350368355 -1.6365884090183684
Ni 0.14796466299187178 4.731505134138797 10.27557194290957 -0.41957189713234194 -0.38493785199824027 0.4161065642915608
Ni 8.527109440189854 2.3637715768332046 5.800498791245235 0.27711632693687116 1.4571657746802453 -1.1675456588494084
Ni 3.9266738236785144 2.5742697984309713 11.39084513373393 -0.6845611017883759 0.1699748586616621 0.10660230794228738
Ni 1.0629453337352954 3.234578866659822 12.70028328165864 0.028663686483279667 0.7513475632853059 -0.5803807730240198
Ni 2.851815535022834 8.430743269700086 8.07376972958802 0.5774232330575926 0.5806304271409807 -0.09256125646818898
Ni 5.702748628940454 7.755711842215883 3.530468572838842 -0.44712692393247516 0.182861227706027 0.20557461014314274
Ni 3.353519321341129 8.466689237985934 3.6861915139557357 0.05802748435737748 -0.5509056463830383 -0.049703023652082144
Ni 3.4516593785423977 4.477605217366232 9.269843009896203 -0.20162616701835598 -0.2092877973286718 -0.6287126273601882
Ni 7.1593347316096585 6.034105263948206 11.280641746444347 0.6193221872842237 -0.06522528765739735 0.4934692586424404
Ni 0.8950032846615139 -0.03063691445284863 0.216500622013435 -1.732539665004713 -0.09410494680622503 0.24020119907807663
Ni 4.775708229909145 0.26087210195386007 1.8249620424907795 -1.1567817354646852 0.15391574831627042 -1.0087882661701206
Ni 5.8485585148254104 5.5814039724724935 0.41559464300147575 0.9341424565297718 0.1933973513506605 -0.39059427895306925
Ni 7.711454719439093 8.660340038074978 11.38938190230947 -0.3762704061312294 0.9211972092230135 -0.0859596919912713
Ni 0.39199204478733074 5.118239450749248 5.866999733024163 -1.790898307449264 -1.1594261150660676 -1.7322020791596362
Ni 7.974539227306738 8.782594149151372 2.562708919502564 -0.7827903551756196 0.7756555439030512 -0.8024904047077082
P 8.381434621821 1.8476335752939135 3.616276965819803 1.4991387766779214 -0.6641012912721272 -0.8038628595752028
P 1.9419917420442663 3.202288725809859 1.5828895378784011 -1.6930804305678262 -0.00562505949626128 0.5224862147000808
P 4.631249019185229 1.0869063110921702 8.42255277552353 0.5003307616489642 0.1096863461842498 -1.544850162672107
P 8.726343030944534 1.3985070707444236 12.290956671854504 -0.973302157448369 0.6777800743108005 -0.4505601179837402
P 6.271598979764654 7.725780880647204 1.3808033211836002 0.2520321302747337 -0.9987946452925185 0.009806701677776659
P 1.9127091045528883 3.2359385463219374 6.020311268753544 -0.054486303973338424 0.10421092489197537 1.071320066155755
P 6.995380776061379 4.122305614003753 6.200257218208555 -1.0207662644676032 -0.08009166324626853 -1.4885129215329589
P 2.360773077975692 8.255758800336633 10.532641444060044 -1.015063557655871 0.010505527517014166 -0.6806285995031891
