# total energy = -381162.5151973863 ev
CRYSTAL
PRIMVEC
9.26623771481278 0.00000000000000 0.00000000000000
0.00000000000000 9.26623771481278 0.00000000000000
0.00000000000000 0.00000000000000 13.56207554128949
PRIMCOORD
 96 1
Ni 5.399408741629096 2.326298168678964 6.209477115597604 0.4448329856919758 0.6738871670142975 -0.3654491471460093
Ni 3.1327944081249024 8.109078950780932 9.211619429451861 1.5405142543009147 1.8744812716782426 -0.6773136761973433
Ni 8.287018507815725 6.701240968204751 8.58179605238641 0.32141026375824 0.010825629860594259 -0.584104244622194
Ni 1.735473605012062 6.9986130592509745 12.660617702916682 0.0652913650086424 0.013345053848338307 0.30699280278132934
Ni 7.282669567135244 1.2391461304791929 2.4239494850282575 0.25569852338272736 -0.2168959486932329 -0.5935309372527326
Ni 6.188030409106065 7.829720425264867 13.06484897042913 1.134473558885788 0.7381187232998578 1.751346513298571
Ni 3.174473944006926 2.068483645147272 0.2967410602784226 -0.9878363465088019 0.014065991174762872 1.818062526568882
Ni 8.736199366393118 5.169096410738099 5.019255792033374 1.3047145267246434 0.20208947980801972 1.7571003850632128
Ni 4.163181475934882 8.442366978038521 4.444562821078125 1.2482888396367469 -3.1026291175907406 -1.4970592684410733
Ni 7.7785244635600685 3.533438715134922 6.28783890552502 -0.14462095327790575 -1.0279761519524813 1.7067957232713895
Ni 0.8959478623087925 4.0170065807505955 7.032762850611493 -0.9014642495704605 0.563649576312268 1.2560250319387403
Ni 3.888335608038771 8.919643068451016 0.38331180992968905 0.1726691176643736 -0.3255803359755296 0.3188281048533606
Ni 1.1819641794058335 3.159416308211397 1.2108748401332488 0.6166011888086348 -0.8922951814766826 0.31595772528410104
Ni 4.449489679510422 5.6569267455635845 3.260336753119867 -2.5037109478841653 -0.1760660591610645 2.0518850758141243
Ni 5.148738487142544 9.325263344951619 6.479796426517645 1.2693659720220203 -0.743691332291629 -0.2848664031959352
Ni 8.628887070917413 1.8210843724673795 8.03425501029766 -0.4770494225235204 0.9060313001158525 0.026088469556935716
Ni 1.6926450556908714 1.86060487503226 3.445296411618473 -0.7115499716723939 0.6705982118503806 -1.6106693751597614
Ni 8.412353635059002 9.069014815542662 0.5050664630367235 0.09389308790573507 1.321811591416246 -0.3402435944146592
Ni 5.810245909793012 7.320401685879487 10.352054186021757 0.24926639460413846 -2.0900441033823487 0.3020341732244734
Ni 6.584412246906274 9.10736777219355 4.505687556170559 2.5314279541834597 -2.38190802094204 0.7651466739519274
Ni 0.6606187904825961 2.881901763940447 5.156409078472722 -0.7526223162326716 -0.3085434350979009 0.17413824601073236
Ni 8.686189483077136 7.167619963419991 13.00684417747353 -0.846804396133735 -1.9191410764794625 -1.0424974854971079
Ni 3.5605517258042862 1.0799151067805046 7.691134578521526 0.4444249516202798 0.021503678399730705 0.28099329339377416
Ni 5.478820396255362 1.4929113082615642 3.927712483923756 -1.4008997530986647 2.473666064782643 0.01457841203480715
P 6.47474632712776 5.756798252396944 8.126042651612238 -0.28604114023032673 -0.7635813863473365 1.146332515106903
Ni 5.36553137764851 -0.09254654615867354 9.305129664301448 0.7773768974695322 0.20485264437545367 -0.7366542229391894
P 5.73222419077864 8.46024155000749 1.6660055497532926 0.08830659495689307 0.7716111986303485 -0.1713894796210016
Ni 0.6505667761373717 6.679511641472128 2.277397453981275 2.3065068211929054 0.2690664600492011 0.6633998943297285
P 1.872799243467285 9.065308320577609 3.207878729879469 0.5320689732925096 -2.0100316301134478 -0.2645922263279314
P 4.6115005744329 6.498199174019135 5.259793415909211 0.029107458888917612 -0.328626321890705 0.8159645279347432
P 1.6673574937917954 1.54188337298733 6.96796405238495 -1.3556154273395686 0.14875657271283413 -1.4849683987148103
Ni 3.9219905823214547 4.9511081756059045 11.828679155406876 0.5228338278474867 -0.9450524185740564 -0.76956691450681
Ni 5.85936623431738 6.151716024685955 1.6967509254884092 0.2882875130623422 -0.5177165612255793 0.09592400229283479
Ni 8.519462073311628 1.1240501955768762 11.38884793037883 -4.141366621824783 2.4400098101807783 2.05212444551844
Ni 5.8912884222039015 5.810440500778677 12.351795322299667 1.7625220702994162 -0.07479981871970988 -0.6909868028090616
Ni 3.229774848885521 3.454045592983481 7.227311211584691 0.43721480702508575 -0.37423100710369744 -0.4139370674440678
Ni 5.858106026029262 1.9309819481812085 8.476391675193968 0.75089170669481 0.9936082159955727 0.21708106812084552
Ni 1.8535995995483092 7.18109307261796 4.5260853245869885 -0.20894095551221437 0.5019988933800065 -0.4477640432958418
Ni 8.21893946154511 5.1940967192773835 2.9195894047451088 -0.151225603078617 -2.691487867724255 -1.2799802572027568
Ni 7.406605492529212 5.136710910980947 10.499080648424265 0.34235652699260394 1.0930044931077239 -0.30412807963902455
Ni 4.844703971396639 7.323255687002577 7.677490970555164 0.45314844753620664 -0.04943022960666971 -0.3466258437919192
Ni 7.2499226841189985 8.838433763766698 7.7750023667195265 -0.005599348464648421 0.7434658465443841 0.11610047724070972
Ni 8.208477879506246 8.09098198911406 10.703813530937687 -0.5712875524735 -0.7865107414500002 -0.3799596820573585
Ni 4.38065080177197 5.091584334781423 8.4116327217883 1.2938490447650492 -1.0002925699942837 1.0353151088160557
Ni 3.0663091546892596 7.029395499935743 1.911466325566462 -1.1348579388084006 1.2083279829730933 1.4647726404932258
Ni 1.2185750834231472 4.963404472652469 9.26032092004518 -1.053085031204967 -0.4140501959831643 -1.548311124637514
Ni 2.8140173086554965 6.166477140884281 10.305658135296703 0.09894273451450056 0.9531709339161325 0.5214734571648503
Ni 0.10032647909032033 2.9707279157779487 12.805514783961767 -0.9182790071349541 -1.003840178136226 -0.08199247981340718
Ni 0.4244261053295423 9.13534254294229 7.934939477709058 0.5294413058616754 -0.3708101543476065 -2.2508396095375884
Ni 0.7396088313065874 0.45072646697781893 10.175692669218334 2.73405068078713 0.5451247780352031 -3.1642468904025374
Ni 7.323014764829849 2.852509258867575 4.2600108770256755 0.8706146111794555 0.20964620910935508 -0.9331204430231608
Ni 0.1809047530068369 5.044687907236087 0.45719244744435433 0.3737635805489757 0.8904645560258471 0.41414506968981574
Ni 5.755463914209524 4.795889432706886 6.312033978033146 -1.1390940883769352 -0.17038957760157752 -0.6953939307378217
Ni 6.676750302723163 3.768513892056012 12.191233666908525 1.015625086586296 -2.612178591169966 0.5685920079192078
Ni 4.8850955002783065 -0.1883307156693211 11.797852236782528 1.0384960776471985 2.1870425696862847 -1.6163831377150872
Ni 2.1769820190117932 2.359971675436473 11.747998026255079 0.19233291464188812 -0.6274129347121582 -1.052144778778885
P 7.581792977052454 1.1079084100040695 6.168004216809882 -0.4193862634840971 0.2525347809427651 -0.19430983586260084
Ni 0.5901953861465843 0.36327542477235236 5.2095861617363415 0.21086182668401107 0.28269947745160345 0.49285373654562853
P 2.3475549173035444 4.968714026689908 1.4109986961576282 0.33366594119714144 2.002336318351719 -0.5115677680153642
Ni 4.769749376965849 4.008907889251954 0.22011390999465277 1.0833078346452505 -1.5684472332657569 1.929141125114968
P 7.415343554409326 5.320210210463321 0.37831267484557346 -1.4847992201267977 0.06634654574603412 -0.5946385684946147
P 0.5103834300640924 8.844892331243303 12.101873779796056 0.3871988801182751 -0.686862753338359 1.806823977540585
P 3.1068489433695294 3.969442984111549 9.91706364341807 0.1357280216636501 -0.7313073568049793 0.005626602158158052
Ni 9.548672328970204 3.181219764843323 10.595276238876034 -1.5097124384287097 0.6652932546976993 -1.1413836557420602
Ni 1.5797359528179364 4.3196418946471935 3.438094691901374 -1.3406130403934655 1.519726371021286 0.6933789571903219
Ni 7.834603732381325 7.043081732594201 1.7788692480629056 -0.2632827634878885 2.59102458280017 -0.640125240072504
Ni 0.9839539521352759 7.587843830082904 9.314582153086077 0.15918805245880327 -2.193351028402816 1.4830287584899362
Ni 2.4151706517035283 5.131206765957843 5.698079032536829 0.8708557806559841 0.4573642853897672 -0.7103274121192025
Ni 6.654363073134241 0.9187993303920872 13.074125400702918 0.21165501200926773 0.9365693208037097 -1.450038933827477
Ni 5.4062008936525565 1.7112053292283758 1.1541923392564308 -0.5491364702977575 1.0032927902731883 0.05172802450191091
Ni 2.77317173414061 8.439466645728366 6.503869184691925 -0.6627530047743488 -0.6096180726225824 0.4257679986407248
Ni 3.31408834310307 3.3389218593689267 2.383439348307707 2.1281676497269477 -0.5083531177328084 -0.9852148497255548
Ni 2.632806769814043 6.330952854958518 7.848739377554296 -1.5078995535896869 0.15780659873024436 -1.093198354286085
Ni 6.941616432925868 6.914568285918392 6.342154809366651 0.055622474460310656 0.6412333855350182 0.5855695163138109
Ni 2.619417056752788 9.179514696688312 11.373929288144492 -2.5696831410099166 -2.150708768252257 3.391574833062372
Ni 8.640738588568171 7.566837269868464 4.818469400033991 0.5009123451840469 -0.04615233018634632 -0.1958329573753466
Ni 6.654251878285289 6.360465821117756 4.175125655959767 -1.060857218951218 0.07259844019301691 -0.9901847921363206
Ni 4.493254118810288 2.3252788825635746 12.25013450502193 2.1368440944550233 -0.7846544049675519 -2.5400807447624514
Ni 1.375155963221822 0.8545889382412458 1.016731413734983 -0.23998419797126408 -1.6554253392192138 0.392475298025866
Ni 3.251365182056956 0.9753548838163524 4.921514593181178 -1.235036602612531 3.0168625154468818 2.321634677973279
Ni 4.011483903252666 3.426682393903975 4.614008018276758 -0.31462640806718717 0.3740397170284977 0.5279233265552521
Ni 4.219779654051246 6.102002660967179 0.2731362470934809 -3.0478754188886286 2.0350996288256695 -0.9650095784222735
Ni 8.990186933873392 8.976676759725773 2.7108822330054076 0.9903331447887267 -0.182897223150285 1.4033710974572928
Ni 7.552381939504756 3.1254092169070335 0.748763873870269 -0.018954943835948 0.08808496586439024 1.3200421582206492
Ni 1.8994304097911927 4.537898850664354 12.529254888236487 -1.0742338973684402 0.18778051938451532 0.6119752600008493
Ni 1.75292193006005 2.423436135475597 8.96529133381687 0.2564649692351067 0.11566287548265887 0.2361907923671029
Ni 5.662078773565008 3.821266581646132 2.7825306339273697 1.1772564583792693 -0.9478721474110386 -0.7733415510578939
Ni 8.153936806095489 4.119741354944459 8.516521896180599 -0.2558221934447852 0.4122316547171868 0.2154587020260741
P 6.305850617807695 1.6125106345464202 10.755946309244903 -0.4848594054862424 0.10699671516722864 0.41292405279852107
Ni 3.869867996875393 0.9082367463654266 2.5950487056050453 -2.1740340732417587 -1.436638858371487 -1.079066028649761
P 9.525228748316241 5.406302822264095 11.058217460011186 -0.36344574356273535 0.6685675545735971 1.4206188287941468
Ni 3.5934005374320708 1.0067488961703532 9.98549851320533 1.0709827374209944 3.8915728939622656 -1.0208657661599452
P 8.906142160540808 2.782336042941704 2.591793476401987 -0.724032934630753 -0.15438703152573413 1.3983080811120885
P 0.6827623180275656 6.465591284564078 6.816393427155285 -0.30699923053923256 -0.16474857726571626 -0.8431398027979544
P 3.71251801937147 7.396903741958186 12.022400041379127 0.9570910949061452 -1.5787753546646424 -0.2585460201338515
Ni 5.245301947219594 3.7248421151302717 10.390041126294845 0.5032314802355269 -0.8645372946371239 -1.4680227719994072
