# total energy = -381164.530686629 ev
CRYSTAL
PRIMVEC
9.31750603997049 0.00000000000000 0.00000000000000
0.00000000000000 9.31750603997049 0.00000000000000
0.00000000000000 0.00000000000000 13.63711191744009
PRIMCOORD
 96 1
Ni 5.178008412626838 6.635378195085175 10.212137757747568 1.178247875758261 -0.43666433383825437 -0.8128038708185744
Ni 4.942219600292166 7.829845222116533 13.405703696216563 1.9388647801606351 -1.8964307793661404 -0.791449059291882
Ni 3.8249574297772497 1.069789476337838 13.366401523241425 3.0854333225377446 2.065365369688746 0.07457124764867157
Ni -0.3351143603615757 1.3129018485592976 0.9098554138687237 1.8083951786824468 -1.2048027434286541 1.8327818350569274
Ni 7.748754965507482 5.445374253531896 6.413902004050878 3.0692757389412755 1.3695811454910414 -0.050203360327268375
Ni 7.699362865049642 8.921586743102301 3.0843601068492794 2.6503533024674737 -4.263574754625129 -1.047452515509538
Ni 7.997420571434445 7.783611756266353 7.555546224835191 1.1427921060538127 0.6281577832979827 0.5969394487136493
Ni 9.378163182761812 6.180711844200208 12.12130596267719 -1.0429993648341909 0.4144623438199184 -1.059890998383207
Ni 8.108736818212375 6.145827100922683 10.082803317446649 -1.2756050109531967 0.6292404748392002 -0.4678199335054524
Ni 0.2569097354280185 1.4997551182407762 5.388323162963445 -0.7904537852581484 0.9716759346988556 0.4392611480311531
Ni 3.4527137388904054 7.370296497973708 1.3210928682749146 -0.47704787986162367 -1.1715126139169567 0.291704252053375
Ni 1.165182104990425 4.606034658466224 8.080179593407012 0.1323210528646302 -1.4539534383905348 -1.9076934967641532
Ni 7.576958785873139 8.68390647700552 0.5438674966561666 0.2607036899068026 -0.3002313156877798 -0.5207617758098063
Ni 5.878647610141971 2.537669405809275 12.239812529003004 -0.841165709790719 0.3554593829231491 0.6959726860594272
Ni 7.547757721388161 0.649484224880983 7.970714735114456 0.17165636012914307 2.006658856986473 1.393829990736077
Ni 5.665388527840701 5.242755763330767 6.118304119307439 -1.8813833981147148 0.10877026212788364 -0.57900137617799
Ni 0.9048444590250666 3.7348944146809506 3.4797410291748907 0.8531295670208147 0.9877203897562279 1.4677913727148915
Ni 6.755219960051923 8.508029229648004 9.702627633517027 -0.6726936609268286 -0.9964909368600064 -0.15710700156005844
Ni 8.106407441658053 1.6412694026689354 3.7369917853304617 1.6445238618153613 2.124138473962897 -0.8235531389152786
Ni 4.014084170975746 4.114480300467016 4.46410854026326 -0.8048221381646785 0.73816706003929 -0.8928610812824815
Ni 6.533500582105355 4.084300897829223 0.5582267054876281 -0.8841147025484194 1.1537051534218905 0.4063425429262615
Ni 5.156438385733817 4.079819177338708 10.36045475346497 0.6106681111536515 -1.0388313494994303 1.4975218098997887
Ni 5.110009252253075 1.272370696514098 9.172553773064932 -0.6555467168338968 0.9634283499780828 -0.8885385426477279
Ni 0.9382169710435245 0.75555937441169 11.080426844630352 -0.11801312088239028 1.1358298158033664 -0.5671246793450619
P 3.559147612410478 5.496592585208324 6.451636040729648 -0.348431015321458 -0.5674841195670097 -0.48882507500220984
Ni 8.553340262382672 5.248541934691702 0.28641920936878895 0.35650505057884413 -0.14043982531702268 1.1753677259969888
P 1.0912476931562505 2.879519391415327 9.740020649468246 3.91435543907442 -1.4415725482276787 0.11376720112184278
Ni 9.026902515876298 5.821028151694267 2.636271915353717 0.11844249511032505 0.6018566835096086 0.2719900614538993
P 6.525608654339313 2.8040475910553004 8.762103647934103 -0.4365159811858482 -0.5619948143176644 -0.34827983445557437
P 0.5734887806715446 3.703904389002253 6.042263019317535 -0.5066618460733144 -0.8059822199110508 -0.22753054558894362
P 2.910556004625111 2.9725174209700715 2.5165922749951495 1.0626657329148668 1.2542160037544592 0.5022004678678512
Ni 6.091636484762941 3.4286466203311528 3.0754003928707356 0.10978327677343029 0.4803846575443404 0.24487572173561056
Ni 7.0748383758235285 4.8146070351402 8.529931891512982 -0.7599689864057299 0.6588349006668653 0.03995262913353764
Ni 4.918991057292469 0.1076796241013238 1.4449337069101233 0.28409867179197523 -0.0519437400571428 0.9442952286930576
Ni 1.4764986227224273 9.011249105431254 4.885168509723716 0.513421019174019 -1.137030520979687 -0.4586894319590939
Ni 0.5999719285929402 8.457584250987612 12.953947202523256 -0.35995084303559943 0.20341642614955935 -0.5296341385987718
Ni 1.7896879592041044 5.266357006579156 5.139705076318191 0.348320972106155 0.7543351851587202 0.21116881640146862
Ni 0.6189628697650151 4.872217176081686 10.330249261809769 0.8445834772230165 0.7226591942116779 -0.18178522103302885
Ni 6.032843020531859 0.14965778486206813 12.2986022662316 0.6671776162046058 0.7289283150498413 -0.2720759362994863
Ni 3.1655016097425257 3.9125885757508363 12.293488818819553 -0.29857629658286 0.502180156152877 1.454229831980373
Ni 1.8557490782846713 6.2978422148577256 13.363238229880654 -0.15034422891492816 -0.08468956702959608 2.0781321824361116
Ni 7.122469467606301 1.408704447485445 10.472129724232264 0.2026654069161477 -0.7018967648533461 1.0737443593265315
Ni 1.3988558434137723 1.6750733152252535 2.7790254281087754 -1.1446301877038159 -2.6865004418119924 0.8444322963571328
Ni 0.4600136677030681 1.7328418537724348 7.732106445398434 0.6435885160307562 -0.23571025318625854 1.0292858719028404
Ni 1.28957081299121 3.3006520374242774 0.889716555930679 -0.6658205879560791 -0.6995462623432984 -0.6862775702588504
Ni 3.2438711545361287 2.177268265324603 11.137797525662057 -0.07310700439831927 -2.2468418012321045 -1.5944395435644605
Ni 4.22197636969586 9.069893489562862 5.333501751632793 -0.6674979756585021 0.5355147657492648 -0.33797613853672115
Ni 4.672123730065442 2.9308495331663633 1.3371953825196305 -0.6886309009823752 -1.1094076170560958 -0.7394212441613652
Ni 1.8526929362454008 7.196189576797478 3.1867203666511537 -2.485882918563809 -1.131190260148826 -0.4251887290984871
Ni 4.289584194808496 5.107801003279578 0.33560259768736156 0.4498306960168834 0.08331428394862425 -1.051775311254608
Ni 8.45686680300888 3.0823987717905403 9.737361433193831 -1.7992747044384174 0.9466313330254018 -0.1200142104728191
Ni 0.763837046935128 3.5789007255911267 12.139498393566443 0.2161888953238793 -0.777694428709951 0.620044410162229
Ni 7.805927183656757 3.0694660731609456 6.850358220784778 -0.2285777559065354 -0.711496235616323 -0.44407039649433844
Ni 4.461827614741269 8.880151792954024 10.47870229311794 0.2551832743092057 0.3696762978534795 1.6626583666325427
Ni 1.7657233332132416 1.2383058937836955 13.1645722258169 -1.8875355337590396 2.0269798279320126 -0.3586334097757566
Ni 3.879278491024034 6.842571580838991 4.2688117464476765 1.088707665504583 -0.9916508351588856 1.23840577619508
P 5.630140401820702 7.843514003737294 2.9953918987335117 -1.0048215682128887 0.03572470709511912 0.8026639541710949
Ni 1.7202445853666624 7.397037740817322 10.934727136409387 0.8703528728776366 -0.004656010714772626 -0.2689913838368916
P 0.5003072233397269 8.805965808451983 8.568265975592144 -0.5945578358553502 1.233225260435405 0.14566045028601365
Ni 7.9994517877898135 4.129118102734375 4.353729634610789 0.6191195843551144 -0.3615166448608226 1.1401366707088365
P 6.26032061732071 6.872983921132217 7.881241518161712 -1.7526050682960201 -1.99014491849185 0.6696857273384402
P 3.294921771100646 7.579157717340419 9.334725900527438 -1.0028500463088148 -1.0256197359051626 -0.9590186509461613
P 3.9043425827485367 1.1968523086229845 7.227737721098591 -0.07029318909860797 -1.055559975108021 0.3256908934114649
Ni 4.009583815472796 1.6096737390861142 3.8854038196112786 -1.1715126139169567 1.5851180090532184 -0.6101785731117427
Ni 0.3175024101096593 7.03502467175706 6.355167240108964 1.5423795896444277 -0.23800264876486107 -1.1871384933796716
Ni 4.469020729541015 4.661063850185523 8.333011988114345 0.2651807518415497 0.30169992981350624 -2.470422618144681
Ni 2.766525993518284 7.4620832517202045 6.673920991303604 -0.00952028078560941 0.264107573382029 0.540633575033069
Ni 8.873070488228885 8.277383680745276 10.641761447172332 0.05880987104935679 0.6069569808506514 -0.6078568669571015
Ni 4.728336245074337 3.0079612146206323 6.330756305570293 0.5337180788601582 -0.4746228153598987 0.7922995802176355
Ni 8.131033610590345 2.848603905786368 13.255804587943468 0.1459209030362519 -0.5201907337976848 -0.44088582811876975
Ni 7.213119485594289 0.33214114412763934 5.788913503015142 0.7294371363654598 2.2291706092045867 -0.42817455119968834
Ni 0.7662428270404316 6.656379854098939 8.774295604819423 0.13685622173082237 1.66443577024794 0.13541177597481194
Ni 2.6171943213738214 0.5339108095123735 9.30509250375398 -0.6096270714836468 -0.5599860114177517 -1.0695267217007578
Ni 2.410802241154691 4.9783063018717195 1.866252703043419 0.03598773094851867 1.6637533994689346 0.8336359770725772
Ni 6.7686837565359035 6.105333218902353 3.9778912498253156 -0.01911306668036708 -0.8319151377267285 -1.4106200657102221
Ni 7.144430829760447 7.3273521118182305 12.003018357747488 -0.9574955294334154 -0.86547728995289 0.5639809915097578
Ni 6.49999482974799 7.648340201003776 5.508983936726694 -0.8537592301850135 -0.7335658138218528 0.5870039347674924
Ni 2.4868144568753205 1.8341604163792165 5.741428696079982 0.3514507759843883 0.3768360488267123 0.1245871745554822
Ni 6.643568283050169 6.71463290296942 1.5357840512817829 0.2716383345414354 -0.732630446491777 -0.7374726050754267
Ni 4.681478506307599 5.43343852806755 2.4369657986128335 1.1052162046825675 0.1443137064501321 1.485103638741094
Ni 6.7650778816298125 1.4757625397312617 1.643476719891811 0.5049003832975175 1.3539755777433005 -1.32515453974655
Ni 3.3548240185715854 8.787181715917932 3.1417317196316037 0.932409018778433 1.7639919699767235 0.38133265114548515
Ni 3.070835746574887 5.364125599317151 9.976283722869377 -1.5021587944511678 0.2829182783306289 -0.41968476856112236
Ni 5.184521349472722 8.654379299802937 7.267353894033253 0.3697806846418277 0.10431428323905904 1.982432380338941
Ni 1.9194062807611776 -0.09660390446083443 1.3375690145189438 -0.5790602544403834 -1.2962859363413157 0.07776095823056285
Ni 8.471951845574669 3.4834987794323227 2.1207342963512126 -1.2715143858235909 -0.5416759002546543 -1.5986163006499694
Ni 2.801056671559551 2.7877512726812648 8.310579160145604 0.35852130967792445 0.09774717154450263 0.3037077042721543
Ni 7.520690365826941 4.390884122402843 11.771868731758403 -0.1732987808285725 0.9997775780310781 -0.9548958870270394
P 9.019942338731985 7.303182500690587 4.320263947530158 0.1830067521449558 0.2959092912736581 -0.14525010222147244
Ni 3.5745960377187407 6.092298027704368 12.068516699452529 1.044093626339634 2.0974704777534074 -1.3606344778207147
P 0.19282485941613833 7.352500061098689 1.0627715306549772 -0.29104193587902777 -0.746102769946599 0.6602909163871016
Ni 3.0877842903841324 8.593023521362099 12.46801595952618 -1.5931735323678433 -0.9648116034788546 -0.8342216743727181
P 8.399759807403127 0.7809095135770634 12.545802228430583 -0.6646183401178618 -0.5360557258543994 -1.1828532357407564
P 6.51806147430331 2.5057662645212826 4.987800840707135 -0.3980574200993338 0.1213378143802491 1.238231969621377
P 5.685281403614609 5.54132593255752 12.102514416138167 0.33656845955591713 -0.24114556526921696 0.7619680191136297
Ni 6.080977257650364 0.7813306648580849 3.6770429503284356 -3.5529012720204163 -0.17854408838791186 1.0889886870801115
