# total energy = -340860.7030901089 ev
CRYSTAL
PRIMVEC
9.40201381219141 0.00000000000000 0.00000000000000

0.00000000000000 9.40201381219141 0.00000000000000

0.00000000000000 0.00000000000000 13.76079758426417

PRIMCOORD
 96 1
Ni 6.435330503658157 8.103012683829132 8.936949674454366 -0.9774475470753101 -0.11565079129780081 0.15101734372255282
Ni 6.303307427272191 2.528333112324157 3.1305678175094176 0.1751836565561112 0.1028667521592551 -0.02711022595323073
Ni 2.8355721160373477 3.6421708714249044 10.943136314699013 0.24004487600587046 0.46926977857810154 -0.07284963697187453
Ni 7.928163435036237 3.0209046101065806 8.851027491847299 -1.4091576222320827 -0.6081761979697333 -0.5746207306117911
Ni 5.426419217457807 0.36773720107205216 1.7846930612809493 0.5152863545175319 -1.3863344536899802 0.2465687931673173
Ni 7.838421214262555 2.0300075821568733 11.202390261087672 0.0480649738280269 -1.9342213678513527 -3.7996621265938826
Ni 4.385136798085768 1.8135356187107479 12.627816395439577 1.047212374474274 0.179926056337103 -0.8471196133813087
Ni 8.869361418563766 1.1136967288952357 13.144121396406812 1.6279412748663318 -0.496687508469422 0.8335117927898872
Ni 3.7587276352731327 7.2408010174016235 7.642059217920969 -0.24425042944678585 -0.640966762137193 -0.6636865723322118
Ni 2.0080538801656163 5.6095046302525615 6.475583344915188 0.17917966508938174 -2.00730523232122 0.5850686654179923
Ni 0.3540140218744338 2.952533166474708 2.9862168207590245 -1.39206055754048 -0.5574280208825884 0.17252642143892222
Ni 3.2699545510258137 4.6158622143022345 8.24081893884243 0.5957788527466449 -0.5867547948711636 1.0864507511496064
Ni 5.728092229060153 1.0223373617650235 10.208296548479709 -1.617618295673769 0.06993400598697633 1.181572826366436
Ni 0.4478085105531407 6.027480551333214 13.632794819308902 0.03624741236780854 -0.7338352654331555 -0.7305725355214837
Ni 3.3071395152122895 6.0899099223062105 13.30341595373318 -2.027115067958296 -1.5587225497788253 -0.762710296596293
Ni 1.9650490694983742 1.839325342291912 12.062068084822826 -1.372393932349488 -0.5784609302934876 1.0822724514022006
Ni 1.7026670731514744 9.113456498262703 8.11710912297067 -0.17646252326853482 -0.9130254720454986 0.40439081851652936
Ni 3.5050989136816333 8.310496322177338 0.4676260750315868 1.0760416400011403 0.0022792829524799457 -0.17415598662254525
Ni 7.284924667699255 6.776557786899567 7.341275636814715 0.24674902749892344 -1.0761845933369079 -1.418987463838311
Ni 7.947841849711913 3.1591894276172483 12.886326642544507 -1.4717220752278652 3.0935176422077757 2.2067606169405027
Ni 8.18520508760111 8.793336735779482 6.364616078212058 -0.9474749119726199 -1.5976814475405259 -1.8864896089930285
Ni 6.178251243038482 2.229038810188103 0.8513213139579262 0.5461349644672723 1.0272588141704824 -1.7301068871935044
Ni 0.8850435164984153 0.02853323117904368 10.584158969791952 -0.7180438069268538 -2.4522027527025445 1.5254655874979084
Ni 8.424900024888094 4.286067779720939 1.0803158194520839 -0.0654857404076356 0.9522548498597664 1.8679393567946667
P 1.8125954173406724 0.24759074839287615 13.639138357952799 -0.04184136151581826 -0.2586324092000707 -2.7255094760853384
P 8.998657910976515 5.056600410552409 11.679366638744657 0.6456775373493009 -0.17749482118779109 0.5573768559296789
P 8.405390846459031 2.1136572980524684 1.3186747305921913 -0.3996828715178988 -0.4879226177925985 -0.10530518639741863
P 1.9733980576646426 2.7624432534728944 6.110179723643663 0.6930547410816839 0.8581445037369028 -1.498909948496567
P 4.9211173931245655 6.083497748962298 0.8901845375899867 0.21347740992998718 0.0975643661097352 1.5496475840607504
P 7.841213612331678 8.233042533310538 10.49578662241447 0.5368810499691721 0.3102277647788593 1.0649517007355658
P 4.199531645619213 2.7710743020501853 2.884097789149671 -0.3355778135078737 0.5423744689835757 -0.5639568231400416
P 3.17458052404538 9.147162717379901 2.7231108693571664 0.8826831123082153 -1.3412789561122385 -0.43309281443691217
Ni 5.716584164290432 1.8744888735327263 8.005096352344014 1.651133653822395 0.886513541797899 -0.4832452669215871
Ni 0.1799846286762452 4.784430917943026 4.607995549438815 -1.4714721640005883 -0.8195669005740208 0.5596839067963006
Ni 2.223820692584185 3.242575887129222 1.639750677868779 1.2832149620899707 0.30957753278937006 -0.4737298712319841
Ni 9.054468264304182 7.9169938427597435 8.469068804851489 -0.7852421591502218 0.5539811999845685 0.22306479650810618
Ni 3.467744713248544 1.26168442454508 0.9637646968120758 -0.12462419844100472 1.1846810329781146 0.4503220338310051
Ni 0.2970726062985664 6.9552242532549675 6.306408211390698 -1.0262640543573809 0.8064313916333273 0.07525850352368328
Ni 4.378094689823905 7.780222749454897 9.877403958698165 -1.0079464869951158 -0.20511772511138224 1.9681100501789974
Ni 0.35071015425998936 7.030214714532169 10.550031540460962 -1.6039392555247796 -0.584066449405723 0.9260414246891921
Ni 0.7968563887908371 3.5919641182628856 13.356849477997297 0.6999702372545945 0.3298655936144448 -0.43282361993592555
Ni 5.7624189810816 4.938069223827022 7.1922320950262755 -0.011622414730276759 -0.7937291135753104 -1.1391316264830897
Ni 4.217517697828752 3.1675196117561146 6.275363702352184 -0.48152802712016424 -0.11140692841978232 -0.11958200803140696
Ni 3.0576570816628217 0.4831224740131671 10.569035830754292 2.3321494614616736 -0.4732161648203593 -0.18770107229683158
Ni 7.077600863583961 5.836619673207939 10.548436018735943 0.2364098503564445 0.030899003571701625 -0.5203719965705554
Ni 5.310699232828946 6.851369609916455 5.319814485111825 3.366237382738848 -1.659503108833013 -0.36176269943335765
Ni 3.5176506019721385 8.092538840566494 4.832792055815586 -1.176284324273987 1.8736814014847667 -1.074085030495402
Ni 5.531195258138994 4.389866010977247 13.18434415122 -0.7204369897493786 -0.461846746641153 0.5138835606327343
Ni 0.3659423566565785 3.560429764310562 10.041116522262518 1.539127401255717 1.5160363237642083 2.0379419833704713
Ni 2.3856387503878365 4.504420145907215 3.947780506163754 2.266913375170999 -2.1396743648149665 0.36677300816375547
Ni 5.198288757022749 7.6037751583328745 2.800941678973366 0.5589616839182954 -0.24204493715503478 -0.019677423824269336
Ni 7.793216332389336 0.04765786724774434 2.5204410620237456 0.496121608663623 0.6744049871909805 -1.1583431664145343
Ni 7.639681448656049 0.6467381968364023 9.059297138540888 0.12590023693995092 -0.7760082992567797 1.2715498670472165
Ni 1.1885649639943279 0.6659803580763624 1.714458138533588 -2.1764802207894065 1.4025195480902748 1.5428637283696975
Ni 8.273950694922512 6.682105157261807 2.0502623402724045 0.6359986194986401 1.4149397761314986 -0.5818427022815269
Ni 4.186312414355955 0.2614041869220217 8.32526876610396 -0.9147018313066569 -0.5128324936604007 0.06698803598477494
P 5.040062268452786 1.0867223515877769 6.227297787709827 -0.4346781566461611 1.1792750314711946 -1.6935730539335287
P 5.372226010486671 5.957285117043396 8.937789274277844 -1.1572386204964458 1.1424570913118972 0.9275411491631703
P 1.068783309446741 4.966566727354003 2.2945031511837026 -0.7982606828970767 1.6110948927329543 -0.5739956954332823
P 3.7002471100544523 2.3362687764451855 9.415990734320037 0.07515128852185766 -0.4453798593343814 -0.26987764309658685
P 0.21990087784278994 1.5647301301477343 9.625072714997371 -1.039468468862797 1.4746451624119314 -2.3112553916214837
P 1.6369752034243168 6.9835431185216335 8.533538412797549 3.7289537043347263 4.071813396215994 -0.08336879133564352
P 3.0782098836126672 3.513278665601288 13.369151072723362 0.3584686020631181 -0.10027250906951764 -0.8871840855023624
P 3.5262252384672244 5.965934969648089 5.170275457201357 -0.2810318599411934 -1.0043770244763026 -1.2059134599943295
Ni 6.512295387812516 4.016718891221782 4.883624042888704 0.8106050633950427 0.49713153798537607 0.5072850814796103
Ni 5.38772052906551 6.858364708109815 12.637737400296611 0.45528760536639656 0.6723074812320035 0.02086604481573181
Ni 7.492850200691397 6.018473422207893 13.01002235539572 0.6550178409136204 -0.439294829482566 0.7870617288574638
Ni 2.8982929494350675 0.6528598479569622 6.297257231455757 -0.22095854879838073 0.252064783284882 -1.3974297922721934
Ni 8.918157869670672 1.0513895841003489 7.385295864961638 2.624996054649608 2.6507579941050605 -0.7223735446504591
Ni 1.6270372749426214 7.957140441261957 12.36546636593926 0.9773416176250652 -0.6899994991951278 0.39868271238815856
Ni 9.288409169206306 0.8842528071461819 4.299313336622559 -0.28002604438449835 0.050858477412764024 0.8430536708420513
Ni 2.413581535106473 1.623962816462475 3.5343504587074146 0.3801535432357195 0.33759638659979924 1.6006163617991336
Ni 5.966198226031709 0.4756535143292893 4.242467821586439 -2.1678279444310466 1.1659104372388307 0.6708938887139284
Ni 6.65726503706442 0.17117776244275035 12.321252456310102 0.047045017203944786 -0.4561998327680208 0.48166069604328665
Ni 4.584233840212903 5.3624855242926905 10.948297080019357 0.4751462919635366 0.02186620394547202 -0.2519143737499468
Ni 2.331784015909926 5.977668682746628 10.580306024577384 0.6423736697870485 -0.09344443040409067 -0.43321519894738936
Ni 0.06659352284105986 3.6112100403083263 6.918075956921924 0.250659161186607 0.12176975971134513 0.4128476910346309
Ni 1.479011971237974 6.605582167751383 4.160164474052792 0.5760032127816145 0.11205536063705863 0.7057755310824619
Ni 8.668619024039 8.205428819071429 12.938616881942613 -0.18731566393295482 -0.7155171838502581 -0.38997695708404445
Ni 1.2607254191476032 7.663534357414857 1.1649395839670769 -0.11261817511906412 0.45201253415955056 0.1019864064368308
Ni 0.7105082949631262 8.47583073310507 3.3394702197250674 -0.4800151900200636 -0.5222368176934361 -1.8145503996505654
Ni 5.093616138492272 4.9393290936629235 2.9161191674116944 -0.35279212050363107 -0.06576701909348029 -0.004669380451211313
Ni 5.747836457831733 8.615939541273685 6.602816095320622 0.5225044695325259 0.12198161861183507 0.6882814880627566
Ni 1.9193928909675202 1.9561829705785647 8.016723822687736 -0.09830535804081779 1.6430912431338929 2.3916689569835454
Ni 3.097925906343145 6.5906235639534865 2.3497522042934342 -0.39670964782218776 -0.4248588565628941 -0.456172321964195
Ni 0.7374826722705851 5.345975588234169 8.563867428593436 -1.6998817697603756 -3.78298209483504 0.24830223091865625
Ni 5.539506638250459 3.59351545052351 9.441187190836683 -0.7704881407694989 1.3006154169546054 -1.6081939170360755
Ni 7.79013247189549 6.372158373602801 4.744131066617491 -0.41725661873560393 0.5152940678270158 0.0009536221625209383
P 6.141545781550744 3.503171500872979 11.3214479605803 0.9006643793769844 -0.7036456292236527 2.5514763881939024
P 4.608585055697852 8.743139384631165 12.096676897255296 -1.0060670105842158 1.5168475068115943 -0.9882425808082852
P 7.320877968090932 8.450022205496506 4.32556940008328 1.5138226039423412 -2.1048176621470978 0.9963099311974519
P 8.059067671791814 5.010822005843445 8.291252280534637 -0.7772270021552291 0.25079594387478743 -0.546528086140633
P 1.3485120210715293 8.732148430614986 5.338680565803756 -0.4273841940879091 -0.004351849210792505 1.1393565980097022
P 8.68997099715341 2.662490445820195 5.172807419490971 -0.8702351163528496 1.3968363816625684 -0.3870440997079657
P 7.282602370315169 5.116350207620691 2.995697811374863 -0.7401349823989382 -1.2078525859985714 0.7104341129003958
P 7.038403868465524 8.419409248886854 0.6759953830704039 -0.07917480785895396 -0.1992512390282762 -0.11043607986608078
