# total energy = -340863.757393931 ev
CRYSTAL
PRIMVEC
9.30937612098896 0.00000000000000 0.00000000000000
0.00000000000000 9.30937612098896 0.00000000000000
0.00000000000000 0.00000000000000 13.62521295922970
PRIMCOORD
 96 1
Ni 1.2731223252430695 7.381236612995134 3.5082467009216605 -0.4990074148518503 -0.9625042955019164 0.17719863010361095
Ni 6.545636338117119 2.19949832489894 13.486780582050534 -1.6740918052804654 2.0469626988118423 -0.04840615921752953
Ni 5.102729614504802 0.9356481380907739 6.78546448104883 0.604576653543933 -0.9125557314979316 -1.009158762135662
Ni 3.218083693227219 0.8635451595706789 13.709280252610029 0.9620643797510207 0.5717266968934476 -0.7918601786873717
Ni 4.914642983040153 3.1858267055997684 12.090087462472905 -1.1768553662861088 -1.4210060369302366 1.6088073822503581
Ni 8.421196308478573 9.259514921130675 9.763541291326318 -0.6982581396594942 -0.7485792565115496 1.8548447283942375
Ni 8.458452430985082 5.479238014967891 7.167474722691667 -0.17814813850107386 1.0039916161124256 1.1822991630094994
Ni 7.63552221675958 5.096175813843987 9.74133191314946 0.8484288191110356 -0.30961249979236355 0.27524404961482274
Ni 5.743214679084482 5.324218286837357 6.422815879483215 -0.4996013396821074 -0.8776321801478691 0.6737804662331041
Ni 8.10825232692464 7.038837765971288 2.925783252817262 0.08727943924395937 0.36516118359194527 -2.517756370233638
Ni 2.533099811660754 0.04306982778020183 6.835741627680741 -0.22206360893710142 0.4049459196890509 0.08344206777574018
Ni 3.1072741914293713 0.8757432348631027 11.083306382834845 1.0284065546216803 -1.4215691085225581 -1.3774975721246405
Ni 3.5738508040989783 4.982675902399868 7.974700950646245 0.7848703776331 0.08419077301630662 1.634985583307623
Ni 3.277803339873711 2.287127480609529 5.107220457457612 -0.4756080620913035 0.6167821944711894 0.7858813353961175
Ni 2.3911876848518494 5.329366371731434 12.538575026756105 -1.30915045100881 0.5520014505503784 -1.7061668314381389
Ni 5.614503247356595 6.061390529915939 8.91579414272354 1.0922742998099189 -1.2466374200762531 -0.03911033573790038
Ni 8.930270222308154 2.580987241489211 11.129482749365776 -0.49839909184389014 1.4674738414744728 -0.5356440922382776
Ni 9.221867804834742 6.92865199236133 9.947236690160699 -1.290439504862868 -0.18112676151342355 0.4224060241470273
Ni 8.466123356758537 0.6319269552792708 12.122242977902623 -1.8937460334451255 -0.7092120675678367 0.5898745714470679
Ni 2.4578241978207642 9.048387584217847 2.1630158115329325 0.1731044054295793 -1.0331327564527562 -0.015379053559231578
Ni 4.007667722840447 2.8341184826372645 10.165375849030523 -0.31429576420064576 -0.5300450008839452 -2.8103227131769923
Ni 0.23031396072240212 3.372414527538294 5.75691156390303 -0.6553384574778327 -1.4409961068989183 -0.6912544546481515
Ni 4.070748054200794 7.348402444059487 3.568660827013176 0.9803765477966471 0.0830214352985538 -2.890046708671197
Ni 5.555965891454312 6.431875764146717 12.36173319048776 0.29674927067645024 0.7731410050113137 -0.23807952474938354
P 2.831279122975974 5.656320964073046 3.4356791845422263 -0.7364711603941058 0.36738647337803826 0.0633892628899231
P 2.911507324815329 3.269862442198036 13.023986368824804 1.9252600448930066 -0.9117455768918105 -3.239957136751659
P 7.6945995164663055 1.6950697896627493 8.703213612226687 0.8664908188190691 -1.847982711167082 -2.5730443441726654
P 1.861754165844423 1.2609363521393664 3.8433730634622267 -0.37999439195003587 -1.1732157126509923 -0.4835640837135865
P 7.744088158956212 6.2952420534950315 11.766992537395462 -0.18911569325617106 -0.5454410237240412 -1.3713927447784835
P 9.200893780844945 2.3777914928761206 13.474994912112193 -1.5334174953551332 0.9822506248909085 0.04193314989867617
P 0.9509434427579891 9.286512111352783 11.250106195278157 0.8804197701953353 -1.151740830606668 -0.8538733871653745
P 6.0686332243962156 4.394844668129238 0.834357473190204 -0.5638331530779838 0.13007082337787276 -0.6508148585758662
Ni 1.4967707727933925 1.8654220599642544 9.485900325206963 0.24020762683597982 0.3321340779336473 0.0019509530787837368
Ni 7.864132561685208 4.602080685899707 5.069873103066903 -1.3690921216697647 0.7380361908883806 -0.75690603120969
Ni 0.5795794034386024 1.9275528349788587 1.946866066301199 1.6636911787724316 1.9782137142719027 1.1682465415711751
Ni 0.2746051786257559 4.851637126687315 1.909137958434599 0.5320684590718772 0.41178042611238114 1.4516232475954614
Ni 0.3335121167528029 4.575102114429476 13.194547169147336 -0.8307843665563951 -2.3427835441367524 -0.1962510187493717
Ni 8.700607917901458 9.51464767810554 2.7615034884405434 -0.4855060379313058 -1.2218712688751667 1.3757114267584951
Ni 2.5425860657422468 3.8060824962647435 1.1902344346980394 -1.815455427963338 1.2605409175312225 3.345610707627432
Ni 0.43661997183659873 9.264253393483452 4.9310870646981995 0.03938518666584185 0.4608244760242257 0.6470757032484082
Ni 4.635817864301404 8.589025737900702 11.789964353461693 -0.6353216480362736 -0.05382527335057182 -0.6729127189161702
Ni 1.8860609464202596 5.5676491582573275 9.678124974276345 1.1166432155725867 1.3022637511913056 0.12443316547612118
Ni 5.2420071879230665 2.498003464372013 3.4656684081910196 1.5818627353407142 -2.046344091391237 -0.6624652983306011
Ni 3.0275114583869485 4.573296095497376 5.902469242329512 0.9889946284829613 -0.26218593087928393 -1.6105642170404648
Ni 1.720540242230918 3.956205492651545 3.7148599214418327 -0.2914250302500594 -1.7296332899911953 0.18720433516607113
Ni 6.038619796369981 6.344321083443638 4.329983453151826 0.8919357412547348 1.1647848082748198 0.027117939262714587
Ni 7.362543386110309 7.897078443132119 13.04799431843301 -0.13839991206885843 1.3807831848544478 0.6356834022510665
Ni 7.79717022055844 0.8048700249045044 0.7970091878619016 0.6129273395014734 -2.2295269641027406 1.0019409042309841
Ni 3.808177105850942 7.331599020490208 8.922266020876094 -1.875155672037448 0.37994425543839083 0.822270415548113
Ni 0.8454225974308931 0.48560032240025464 0.24486917000249409 0.3646469629596881 -2.853699537500731 0.06046309038206361
Ni 2.779640014644237 7.0925901026411005 5.337594929123614 -0.5118642162098603 -0.0427823852728489 2.4554459422301904
Ni 6.731265294333962 4.3832638044615475 12.16141496997731 2.1297843593947645 0.46404195452025887 0.30715992448681295
Ni 6.45432997891076 8.043002910970586 10.513527890384461 1.1383849781250521 -1.7085479300758057 -0.3248208321016858
Ni 6.788638978243912 2.829212441517592 10.019054801777072 -1.5901843678325325 2.501192809448002 2.335394964982165
Ni 3.319081112785721 1.856522296566897 2.232709523560103 -1.1120864494398395 1.716694213332024 1.3600994312528512
Ni 5.917393102896776 8.922208302745275 3.0382721660344436 0.5132623821089677 0.6941975964368755 -0.4765534567237083
P 8.430105381251868 6.788341078213875 4.8673615935853025 0.46337269636737616 -0.67504390632656 1.7251706262341515
P 5.153484332122367 3.4731978314502063 5.207093304402724 -0.008357113715443672 1.9929517918130257 2.38522731512326
P 3.080993823154539 6.9206086915503295 11.129523710619905 0.9518262469627803 -0.2538393586868015 -1.0050712223298497
P 6.137541225094163 1.167656405234012 11.757046400142599 -0.28769153134955616 -1.197098432805861 -0.5229335866501446
P 7.5190619237669685 7.167214060165384 8.291541836968099 0.6398437042763432 -0.4167022888940307 1.5499409469314533
P 7.163425144158349 0.9877061683397501 4.207452516109614 0.2218754041856953 -0.3250589162544208 0.3909287794743525
P 4.883652070540361 7.647615096103898 5.756924597029344 0.16339694833382826 0.48663475221911023 0.22479026383964512
P 0.6018977013139413 8.037203169760803 1.5471838363140078 -0.8790442300040473 -1.0564770876056515 -0.7339422233246651
Ni 1.246534747562262 3.9578532521926872 7.870849276424951 -0.07332529105671243 0.02652118621898013 0.1603069965545949
Ni 0.9505338302166882 5.4941702539735 5.733189412136141 -0.3265678966997795 2.0294095204194273 -0.9229514729099588
Ni 4.46101571230122 4.470306469488001 2.529193597516893 -0.2215447603191539 0.7393160860420687 0.2831357936580737
Ni 5.668218346522652 0.8199558686131 9.731780493436396 -1.3712114820056127 -0.431838630314837 -1.4992025400363211
Ni 5.449960027640812 -0.22464361983816544 0.20250778573122413 0.7958860120173131 -0.052312693360787324 0.953113598315636
Ni 7.002140206021099 8.579232274413233 5.78917599903123 -1.2305058046217132 0.6982033751621588 -1.3872561941733013
Ni 4.146963915010589 5.334542384753329 0.2127536848893113 1.4110368415326666 -0.09552342442030645 1.0391823050809457
Ni 7.531210659366917 3.5412772976896134 7.471031129549055 -1.3332360312031037 0.7682759636095284 2.2334134436413406
Ni 7.809225862399003 5.790897302642288 0.6577120647541661 0.2616107751021043 -0.5264958500801062 -0.9029056100026772
Ni 2.4762009059236756 7.958902008740748 12.886426375267224 -0.6560449966265541 0.8696882427104442 0.1660611254295527
Ni 7.895151402312817 3.35550870083369 1.394826589701929 0.8047869140513688 -0.9157675535670099 -0.5450322183213968
Ni 1.5591249728305245 1.8826630242026492 12.21624347050563 -0.7950010383091985 1.3655848798474546 -0.3025165121775306
Ni 7.4835001076812935 1.8793116488647323 6.202605384467039 -0.10335114799484137 -2.619491065670979 -1.3540995049156743
Ni -0.43213936919732254 7.773412693162985 6.696261109867013 2.2496234777422996 0.12056828320407624 1.1556568778316225
Ni 6.104781531166025 6.807918695812873 1.6168905814674923 -2.5584147671849484 0.9435177270970847 0.26978405494151597
Ni 5.755949905368566 8.2571371763116 7.886640770829697 -0.46773225888765246 0.42787013258539214 -0.032991110214039956
Ni 4.1934456290723086 5.011944580351008 10.94178152606499 0.3151252020804766 1.206809746556354 -1.1757076258349106
Ni 1.604452324275851 8.429733006214322 9.264136095346625 0.4829233648057941 0.09589289194458324 -0.29732956865995247
Ni 3.792714232416831 2.5471383505762506 7.536773011490264 -1.342331822856785 0.4668441998557444 0.7020070651789652
Ni 0.10797107307415084 0.5358337149652539 7.990260641590118 1.2257199531972955 1.2498896084649636 -3.7890424420965068
Ni 3.7713119771338555 9.421274637440797 4.555398820255306 0.22291438697317092 -0.37374455438558213 0.14249567940478686
Ni 6.84824691237914 4.809353941173931 2.880561097320042 0.5675702515229128 -0.7087371848139472 -0.14355651656913343
Ni 0.18000981690026904 6.775019361245656 12.897817327665765 1.4233691378457745 1.920429713383899 0.2347949404608408
Ni 1.9956043730904496 6.2972528786977815 1.0879504593848146 0.19116152004160625 0.7637269107862653 1.0279046752845975
P 3.5607152746495316 0.25615678832811706 8.85762823092121 0.5965938924487725 0.8298235453050224 -0.13769054470665965
P 8.83899179122961 3.1777461672850134 3.386777963674049 -0.46840897323970293 1.5959014728219676 1.0504103125862814
P 5.194696939402807 1.3784206764852318 1.5554952471520418 1.2764231359791178 -0.5193111594062089 -0.6771666090965177
P 5.3726922073499495 3.7533914284519385 8.553663142460115 0.030252885347270476 1.0563017383700517 0.07960418208688871
P 0.46367581112712086 4.120609071728247 9.989393268161319 -0.6371610152378576 -0.33707419554774204 -0.6307880218319781
P 4.0355772319045435 7.553162167830273 0.8434145650409245 0.138371115713452 -0.30212878982080865 0.5935638473731971
P 1.9747699897397328 6.489947651252066 7.49563860296771 -0.06169104925189375 0.41917209059076194 -0.1142377130003581
P 1.4556233311445237 2.0493660191362 6.669841100953102 1.4869502050315295 -1.5852923298475536 1.6492125255402823
