# total energy = -340863.4152789434 ev
CRYSTAL
PRIMVEC
9.42348351013406 0.00000000000000 0.00000000000000

0.00000000000000 9.42348351013406 0.00000000000000

0.00000000000000 0.00000000000000 13.79222065739221

PRIMCOORD
 96 1
Ni 4.4343615030367385 8.6826940187254 8.43330812490666 0.9639114602620883 0.2727963594052786 -2.0645739841357025
Ni 2.548307825725878 9.31483071394329 13.217153647966926 -0.6881470193674213 -2.35853412210279 0.26628246954616075
Ni 5.578353550353589 2.3378343222347016 8.244672602028443 0.7637109699466654 -0.5758119227064147 0.5835748544812853
Ni -0.02490249744015149 5.626064647204981 13.640450871728806 0.19822382620502635 0.5784347050412426 -0.8436974750736372
Ni 4.628626614944982 3.680567636112059 6.683958095372628 -1.4230006987627624 0.2133200584165165 -1.8604687594492346
Ni 4.955103200055875 6.586854752217289 3.9193219558704113 2.533228754837624 -1.8934447001546233 0.20729390682709462
Ni 4.193412453976255 1.2492335108041783 0.6252829956840157 0.5854507313477595 -0.12175407598206127 -0.12665151328367866
Ni 1.8682338700531118 0.8634389242414865 6.088727530849736 -0.6395585689357566 -0.3168979777101833 -1.15317653461193
Ni 2.816236307985163 6.424996999991436 3.9689318846427106 -2.9880368494644407 0.3404184294296267 -0.14333257348378542
Ni 2.629990580517081 3.4190000052007274 11.104144794561082 1.3498612984646108 0.6328035096001102 -0.1984606248061808
Ni 8.257299127541216 3.562962562301005 13.18614944497448 0.6509472703886725 -1.3343925134050503 0.35256046410879927
Ni 6.519005671172451 0.46074614710523826 2.1498348844912796 -0.6254753513698131 0.8237896804061167 -0.0817489963440334
Ni 1.6400630645894063 8.20609191831932 2.460394263658724 0.3576417352864486 -0.06709242277312316 -0.07874671918259986
Ni 3.6896330272183278 4.290615686056465 9.114823873551629 0.0717458623847345 -0.05308813807423115 -0.6279945182472411
Ni 8.733373512872502 9.155498455289662 5.339010262877833 0.36509742023354547 -0.44968208625416106 1.8509471931120445
Ni 6.052675167757883 7.854181351300091 5.616385787324265 1.084416494328397 0.4109774705951116 0.4960498748854232
Ni 6.6595380802865725 7.653941750866512 8.276008511639331 0.4392313232344823 -0.4969824140020215 0.4701298125855516
Ni 0.7433111839032517 0.5168092773635798 9.657367741946508 -0.8013359793882908 1.6933190289411935 0.9327273213498001
Ni 5.563549257808945 8.035743607479384 0.802975027198709 -0.9457640999291003 -0.0567838417582635 0.1987421606023416
Ni 4.957440223958531 5.049780938563861 0.5216812183219384 0.17724542418114636 2.9513137830117944 1.248372914710121
Ni 8.40675557550943 4.214342010781892 1.9051748676369828 0.5747081481192747 5.24594673558525 -1.343663140073699
Ni 3.7219178816154965 8.002290241130886 5.93322026414001 -1.3900684668111156 -0.5931540135292881 0.7309705422908508
Ni 9.412599355032208 3.298068441721781 8.400979922485488 -0.9224596208752049 -1.6635574814080447 -0.6538058228833902
Ni 7.015698638354583 1.6083907366183363 5.256629227960878 0.31185090220457906 0.15008531882658668 0.05759939568102338
P 9.388560048678682 1.4861021915184933 6.839797068700795 -0.8439844101864368 1.0320354096235194 -0.21428730742579224
P 0.47158032606041206 0.6137005921406531 1.7464673859379747 0.8054314896139032 -1.327937758918642 0.1514480035020682
P 7.12769673949596 5.574207217623072 13.921039804041389 -0.05648045158523176 -0.0796715449897144 -0.01118635563412267
P 6.673682728987725 4.054331261317814 7.26903862584088 0.5796665205658146 -0.5499725930458077 -0.7097260310897776
P 7.619414107401472 3.0867562482010222 3.4120162615948484 -1.0482606132331302 -0.8563303333462995 2.466127847424069
P 0.9191439621276469 5.087861235300276 11.62467634789865 0.6058971721275694 0.07940337892999229 0.048402816783419865
P 3.4535182251822887 6.828925195811707 8.046423241305511 -0.8507176151452124 0.07526107462684457 0.18645537281518856
P 0.33023372797375183 6.566471757453402 2.963106952086891 -0.8906900417730917 -1.4222854178632924 0.2872845257191246
Ni 6.031067120141797 0.3811478668594684 9.741955756694116 -0.48450922123567525 -0.6233053403016878 0.24643432447198205
Ni 2.7516948696412604 6.262771731909921 12.743943059264744 -0.8361718561205536 1.5278855097933106 -0.6264477425854115
Ni 0.9067417155216592 3.5324022053803925 2.935605457903383 1.1039365666391954 -0.18882721548147482 0.0903616777137089
Ni 7.073982883668795 4.286403388941598 9.340036647551448 0.32696153259377236 0.14216092177318743 -0.9647933486464094
Ni 0.4588294105657216 2.875962346271578 10.747836287802459 -1.5082811052988216 -0.3838520751332293 0.2753206684890291
Ni 3.0405152147722694 3.117090441518152 4.782494195529458 -0.17971651142945821 -0.743401826075668 -0.3174417660287952
Ni 2.338946293285159 8.598862709701109 9.172033841749299 -0.6350398551297967 -1.0882258407721581 -0.9277923459420279
Ni 8.693521601242137 9.02225982238786 7.905810732581822 0.6263330713844181 -1.869113579608426 -0.5915247054559813
Ni 1.1802064943245336 8.073154836888829 6.745334185616119 0.5387340440175109 -0.893299454371481 -0.09211671273160264
Ni 5.437613824602941 5.804102520563333 10.027302605814969 -0.5788417106716741 1.3420754838716047 1.4178847176924354
Ni 0.7398282644096167 5.1144260352260265 9.402804586304708 -0.984903489132723 1.0978520510080125 2.517088397632336
Ni 8.142558792707613 0.2624034938958701 11.074946131003104 -0.009393525399758016 0.17055438531421593 -0.06612954463922159
Ni 8.41126000061213 3.6216802878552263 6.008649595294912 -0.16521626093075417 -0.6277813737951704 0.04972924890432726
Ni 3.258367305827072 3.04719646455849 2.2361879176944024 0.2756050324986673 1.1572260220909556 -0.4118812133563035
Ni 5.977390958248547 0.08826694269759591 12.298785238529556 0.5688722581637881 -0.04424585719225283 0.8272197891335882
Ni 1.8144917437755124 2.0164652651691273 12.929462236156636 -0.5899617318442355 -0.6019186470957957 -0.17456453491487356
Ni 3.5536615841077754 1.6752032344805456 7.199566820941053 -0.1257454565296415 0.3680225643001404 1.6663342728222335
Ni 8.649890872736915 8.752889547156371 3.1453571225601102 0.5427475360522782 0.19779856574214968 -1.5810052724364256
Ni 8.3405650275568 6.774391496921918 6.512673090274932 -0.020042263362855806 0.19466413387822604 1.0540589650824619
Ni 1.7810760713609293 5.534920715001414 7.548165033517607 0.35404964705981606 1.5605686018486287 -1.1690651808177284
Ni 5.227140321111764 5.6838306009278785 7.694514558982977 0.6408559475909414 1.0146416396271043 -0.2833736207004926
Ni 7.862049960004597 7.64628988228201 12.66412709655062 -1.1132056506459473 0.15246230369919547 -0.34505515687068966
Ni 0.30781526077851973 7.289224669800068 11.305510501270335 3.3657846114721455 1.2249074845983292 0.44879634121509804
Ni 6.608377988482068 5.451739626337138 2.5041710561578627 -1.4434504819766818 0.3926105380521496 -0.08316104620021161
P 0.6191991947503285 0.02146763771225653 12.019809606588485 0.3472729904576148 0.008937925919578156 0.21178099606417075
P 1.6190863903663768 8.663394724561533 4.575761814979225 0.4226572209258849 -0.40712210140476335 1.36427618833836
P 8.813850061778464 6.71475026998681 8.57026526438906 0.5209988315212769 0.12590769313911865 0.3952675160590225
P 4.023591858211111 0.913022467260046 12.135940847583509 0.014887715745109845 1.2144752335214115 -0.9178848570203288
P 0.8987930072075867 3.5079765362042505 0.43214493239979523 -0.6141684109974261 0.8382475077026597 1.4383758956672519
P 6.492129896291911 0.21189550714807476 7.244557358112216 -0.8516007890811139 0.3579438399078997 -0.35568229756723263
P 4.07198144587295 5.219846544899445 2.4434847649049938 -0.06744337835463868 -1.0282139789949 0.8548714894125858
P 6.602931215031524 7.921257706699697 3.0917610602764274 -1.0507147312005776 -0.45287076839478785 -0.3357649898180153
Ni 3.744383466228121 1.1955761958778854 9.665643445137281 -0.5442678293515465 -0.33923160821037707 0.5239985375795492
Ni 5.3548567926951955 2.356426855137683 10.865290585877858 0.2891056380882634 0.8824095469318545 0.6628985292132776
Ni 7.851467388058297 7.310540589428321 1.16907924503318 0.22478383608174193 -0.4686455147305413 1.758884987767461
Ni 0.3875200263875962 5.345112910778479 5.156097621516079 0.9585669081207233 0.2936804019431394 -0.7353691855791787
Ni 0.4332154401229472 8.207891803663705 0.31170998650016307 0.7996503641557519 0.4391935280180113 -0.835285082640226
Ni 5.133414354435103 6.798751201713712 12.543927737737949 0.9062313319418006 0.38352143126668786 -0.8573490044188008
Ni 6.209104993500149 5.2330111513188395 5.483911398932566 0.8158220888196078 0.26731759567889446 -0.09689793617032989
Ni 7.993959881735937 6.258031719720261 10.647801298936976 -1.4789301629405303 -0.41217611888890304 -2.135113999137794
Ni 1.826280521607053 5.486352081153484 1.4360182615272281 0.5209803195785156 0.3631048152835488 0.9558153135175153
Ni 4.803092988065001 0.6918344630538718 5.577091745915825 0.7145368222148597 0.632403188837898 -0.10482516143720655
Ni 7.934902910776492 6.729450904213192 4.369333812945348 -0.18472887704238508 -0.32672987619894056 -1.797460019827182
Ni 0.03777403352336609 1.800573258677842 4.410242097073646 -0.7887180335139642 0.8252413252509787 0.08429644535623547
Ni 2.1010410293882145 1.0880919433226866 3.4468134166873723 0.48978203959884037 -0.027855074539055252 -0.4257767403914732
Ni 8.521392252024773 2.1867476116247158 1.6229443645024544 -0.1856958689413447 -3.684635856253957 -0.9741038274140578
Ni 2.714330757649207 6.557265014094956 10.218325097058276 -0.2099434286347997 -1.1334512882688608 -0.09350613687996154
Ni 1.6437382231460016 3.3536010298602856 6.761953441078713 0.20878771776380173 -1.219172638997081 -0.2384114541675055
Ni 7.774958125696763 1.3665653035943572 8.786733988069225 1.0481099465878787 2.692159439869983 0.3642530699553791
Ni 2.826743492063635 4.123989651190515 13.361268865499556 0.20979636153397416 -0.9673652231386438 1.1411270596465637
Ni 5.135308474614271 3.2668861348915907 13.25712429548912 0.8482151604383326 -3.5014612110725696 -2.8522018699092815
Ni 4.359510773767411 8.65752389435446 3.7546145422406743 -0.43588066159469446 2.4008933037952906 -1.3252836091252467
Ni 5.774974533131445 2.9296290846813497 1.6122279790907612 0.9047192661726483 -0.5722743418668015 1.236903994838573
Ni 3.9385920372354937 8.49114287005895 10.804701356504816 1.4669441942232477 -0.06264801384852436 1.5965429630607084
Ni 6.861728341800192 4.628277946056278 11.786969465061206 -2.316523067778327 0.4623509399710811 0.6013131523013128
Ni 5.415148239990318 3.3408322097469862 4.091407014715427 0.10507224445100613 -0.46410083278265235 -0.43908245636144383
P 2.8614313347478086 7.432640664858595 0.7670969985512069 0.7158126036034897 0.8090958258393679 -0.6192838778471205
P 2.5588998211556557 5.052871841144793 5.599682662858713 0.2885605642180708 -0.5423464439591176 -0.11892303429116938
P 7.124615260398506 1.7182968244274968 13.711908204597542 -1.4835501782110452 -0.28514022568261216 0.41735226377320384
P 4.412781725871088 4.801264832270181 11.870246673256965 -0.10160176940390245 0.15756722902592865 -1.1474483738789012
P 2.292318897033789 2.5343233762438584 9.052206710534024 -1.995967181600582 0.97163248305543 -0.6920797787629241
P 4.318339574450064 1.3160742791168232 2.96222397168496 0.9093125419702857 0.43411714193636847 0.1539391453550381
P 6.509035625652251 7.91740350195701 10.616451254100866 -0.5080726103779121 -0.6147142561985671 1.3237270632714042
P 7.546250181674786 2.855522810606821 10.766041515534475 1.113511354811824 -1.8120358607588276 0.6297834918268639
