# total energy = -340885.5103761016 ev
CRYSTAL
PRIMVEC
9.14909899723196 0.00000000000000 0.00000000000000

0.00000000000000 9.14909899723196 0.00000000000000

0.00000000000000 0.00000000000000 13.39063118755049

PRIMCOORD
 96 1
Ni 6.749564617733137 2.699624566920847 11.870392953092262 -1.480769015921482 -0.9727113179419052 -0.30658991091595583
Ni 5.1216380305981275 0.5181784205752965 6.293703453445053 -1.5469826356340777 0.7388383750747017 -0.07840399113120045
Ni 2.4378871500012296 1.7806799397947524 5.329135930513193 0.8974846960974221 -0.811311602543764 -0.6446490960847865
Ni 3.793600602152689 4.792581545106973 5.599091067926281 -0.42223247468364056 -0.23362046053676538 -0.6223530036907475
Ni 3.3860722967188757 3.1330631200027437 3.4255241254206052 0.962621280695755 0.26532370517731724 -0.44891718306367845
Ni 4.915179468300585 4.820614383664079 2.440710561874181 -0.29683668818393394 -0.016116445945888375 0.24840121839036575
Ni 5.222223222209365 2.9244728176974317 0.4479929393667022 1.7175005112834032 0.418858158894769 2.1001714216243377
Ni 5.584628172628932 8.34160843958715 12.559327407929398 -0.2991036298412397 -0.35561313489219404 -0.39575036923271195
Ni 2.3843649223383463 6.088542233349664 11.916268364023411 -1.013267384987397 -1.2635375382657013 -1.2852983269815605
Ni 0.8544059696634034 8.048224290105837 11.750680655643071 -0.3030680138056264 -0.49599151084366183 0.4425020235659541
Ni 0.7036718230968565 9.436929392334623 4.655172145953797 -0.4358809187050106 -0.776924897533778 1.2038671189882622
Ni 8.778111940748886 2.891261589250207 1.8041199307814715 -0.496855401505854 -0.1963410073600167 -1.0755089074261222
Ni 1.7562518461434877 1.381770085379475 2.871486727221052 -1.0149812823547102 1.4216416136317063 -0.8896963104012547
Ni 2.0445216494259024 7.058401594996091 0.5589586984149152 0.13198886633619203 1.0335040237492459 0.865937003198128
Ni 8.149413322234297 4.375419238693841 3.8485876005247732 -0.8352318608047875 -1.4531772223461425 -0.008617566465681932
Ni 7.824309247401324 4.785811212035086 12.959867631741174 -1.2882178146212009 -2.72702025630291 1.0677855706399353
Ni 8.25763801129827 0.3811249213633322 7.437330732660434 0.045604170992360166 -0.7366969032516668 -0.08263936936878671
Ni 7.152161558942969 0.7233506195891805 0.23463870134445639 -0.4712716394994787 0.49863100534903804 0.21802749119451484
Ni 2.0072024756418165 6.746829037208145 9.422625691355453 0.11030469649453907 0.06535821369083582 0.17139719293048547
Ni 0.33155418944875653 5.252726317427836 1.4330791460557513 -0.9754348875206557 0.30320633915570366 -0.14920548732479463
Ni 6.648942829726916 2.1030575832014797 7.228382700594161 0.23124116167131142 0.6039007105228309 -0.08012971557305555
Ni 3.4230804011456044 4.437614811967734 0.4018595238509206 -0.8569741375778853 0.52514807780296 0.07050376244751728
Ni 6.418486181419162 5.528727179292144 4.895292987266732 -1.0322806928651058 0.4964969897251707 0.6542889331673958
Ni 5.490264368164833 3.541451440718661 9.613093458865098 -0.46303639607388 -1.110585696524597 0.06559552651262252
P 0.19768732132995162 6.160380956701624 12.717591262763731 2.31642253764472 0.19431806339271696 0.06481956757854644
P 4.188777624279683 6.4126399073206 12.946329710327026 -0.051404065503588885 1.468448032462284 0.6895318155300898
P 2.595114411947665 0.046041924528323695 1.442532909789778 -0.15577671278440913 -2.2001096872828882 -0.22120126093680612
P 6.661678375181059 8.192441533635757 6.3172980642005765 1.3567719095415152 -1.1450539055047957 -1.5149412909278168
P 4.775426984958612 1.1690443904410652 12.784611155806282 1.4222057136652926 -0.852798666043957 0.48332188579579344
P 4.171101565502813 6.19339090497644 8.50966548971898 0.07976667580668198 0.27599841128234404 -0.06392842322284474
P 4.7186476781422275 1.4193454339284428 4.031450637156919 -0.38684406788201764 -1.0795295985497406 -0.5204542718717166
P 0.3833527269079326 6.02882606583588 3.579971891168069 -0.3685121023420492 -0.5376181852455129 0.4695078627308366
Ni 0.9436837901347165 7.877666791286783 2.6670784779524417 0.39934477145218966 0.6970165539429093 -0.8311985712756782
Ni 2.0034787924522792 6.961960945116698 4.728071249850394 0.800108534739093 -0.36401472869232787 -0.018816875596186947
Ni 6.203152993338201 6.037362174965704 9.666495833334412 -1.758266380346856 -0.21083020211512724 -0.6752375103946049
Ni 8.862393438395122 2.8701546184436646 10.678411772095497 0.2697344326505032 0.45633764389746573 -0.2256775515406049
Ni 2.387905623552968 6.0864653879343695 7.016770450973114 0.2814447791088959 -0.5778963160392693 0.8375036875580995
Ni 0.48873296117183945 -0.11749181118358637 9.56066912305171 1.441609572113201 1.9299870180550307 -1.3738000686683953
Ni 1.7072126768660425 1.6193538816102018 11.506475656650014 -0.8234772913720205 -0.2681856001061446 1.4490809407895817
Ni 4.466992568040473 7.21936168923081 1.9938109398076007 -0.6604161291110561 -0.6127388776397512 -0.9702916527568193
Ni 5.846484527832246 8.106147234265446 8.280043239216841 -0.4845644999536428 0.37270042939178394 0.8633548442932486
Ni 7.275683541109906 0.8171444352014163 4.9789441120093825 -0.11159230495771105 0.42620405773687886 0.06841602668055313
Ni 0.7590403388866406 7.814602053632038 7.254789744304142 -0.19567586297219203 0.5497527637255177 -0.24104837756972033
Ni 5.414427488660963 4.694091497108522 7.354040997318242 -0.008750235388804284 -0.30886225188990035 0.2050897000869242
Ni 8.09901093724373 7.49753088749787 9.406208548566003 0.12824328325083076 -0.6489456665776114 -1.3152817607175282
Ni 4.874960030214083 0.9106985444265125 10.525049089459284 -0.5616076061815748 -1.9697591557466463 0.8046210778974658
Ni 8.172157981716335 7.657594370055502 4.34308998336571 0.3792590564459081 -0.637543852498573 1.2705376237326182
Ni 7.3409715097598776 6.147508174766294 7.360347471083716 0.08302092107792153 0.9029868568625739 -0.37824758446225826
Ni 2.3273477389545705 5.594161533522048 2.429609045456037 1.8277329597791103 -0.44197983251389683 1.784065600798147
Ni 3.6306002588976587 4.758775625241271 10.271416859118562 0.21422560094992138 0.9818832142491607 -0.6765490301171768
Ni 1.201075385150083 3.700664057092934 4.1397137524356244 0.2162953389947565 -0.041666269390534694 0.31631202329972624
Ni 0.5931854768229231 0.682704833501125 0.36888525706121167 0.6171287791773308 -0.32657535289894724 0.29144508485471743
Ni 1.136546791696012 3.9194830517960413 8.723727867984149 1.010367951952415 0.1282455972436759 -0.91911872942743
Ni 5.289276966917274 2.9117098249470517 5.357644522205081 0.5977146363167771 0.6181073410405161 -0.05363501171663666
Ni 4.437806943041395 7.406570547767206 5.726596567687136 -0.04405431000673704 -0.11465885969817673 1.46982768641863
Ni 8.525624262661264 7.670750774051951 0.5321124979651377 -0.3118521877561597 0.6013146949632096 0.40704676808213774
P 0.2882679734626654 5.965395364231305 8.323482245151986 -0.7815425988114476 -0.03409385635991548 -1.415486135553272
P 9.1171500929717 2.136570731907316 8.64070620123521 -1.2336312376245724 -1.8500560487563427 -0.8188295081873639
P 1.9274589309734935 3.6911489943973104 10.84943678986046 -0.15109499103802365 0.05461177380760917 0.19255814327881673
P 4.246892699512954 6.229255372059946 4.0240984214048 -0.1774608826260621 -0.07682790489333219 -1.5762021946208273
P 7.199700276026103 4.481576231441265 10.747200185925607 -0.0900613728644707 0.37935290171129504 0.002613526363447112
P 6.513728299362856 8.344929562431872 10.550304261637166 -1.1812882052464817 0.08086196575338978 -0.18174768292687407
P 2.5320679724904127 8.586474918419528 6.076588020928413 -0.1979633734547881 1.1578744543082318 0.5496725453068856
P 6.787734657700581 4.030562259668702 1.8809952329929889 0.8667340451781266 1.3325757719112856 -1.1543594991764377
Ni 2.9848202730246753 1.9286483138104464 0.4774018023751761 -1.0483472594096654 -0.3680850421069596 -0.06307353142171719
Ni 1.642400461350852 1.0566843087439937 7.544428252758926 -0.05276237930369623 -0.013591622641505624 0.016086878259533584
Ni 6.9444404210185064 1.2353113126568367 9.485065545565858 1.4481329750540157 0.25657732644325487 -0.11262614553886409
Ni 2.9287088504167333 2.0322344098103033 9.50699959489902 0.2567663025256094 -0.023637694023598 -0.2454166818407451
Ni 6.42603418788444 2.1904680726187764 2.836738450184534 0.2999698344962769 -0.4422258870864319 0.567086627018275
Ni 4.027735188156252 7.316534267009867 10.559409444708981 1.3685817576922497 0.4860457124848598 0.586135673229926
Ni 7.5306231776614005 6.617378439053934 11.575343667639215 -0.13901440572440577 1.1102645657397523 0.11683272742104395
Ni 7.56128180755855 3.97566766719395 8.57933679157806 1.786303231879414 -0.13234085035897208 -0.41438906737982184
Ni 3.1164758039766225 -0.33009216346917897 12.43918601774903 0.17323373191859195 -0.022434160633800073 1.2981412443824998
Ni 0.3471424238918369 5.522002591713986 10.442482132918009 -0.9623330600313749 -1.304090005766767 1.4492532047013877
Ni 9.065375343169263 2.477694878644171 6.296261541454377 0.7325702826778028 0.30006985040925094 -0.538210310303557
Ni 4.045081879378274 2.804583027732573 11.747051208170616 -1.1425558216732903 1.3070010087659747 -1.0576628803836365
Ni 0.8729411288125036 3.8516516336947393 12.93184119755319 1.3937677700395736 -0.2972922876641138 -1.0672505240720715
Ni 3.327682748523231 8.363090523442269 8.380459172501281 0.1517053709285129 1.0466881265396877 -1.1183751106620288
Ni 5.928506198088271 8.16532360495323 3.7900974122429254 -0.5021822130354061 0.23330421484792724 0.11949536185487161
Ni 3.4224216660359077 8.850444715433119 3.5191111714011862 -0.3472187401809117 -0.1755965757238137 1.217907142021096
Ni 3.585833718734498 2.741673824756507 7.301322060525239 0.8853781426418751 0.41228719054547064 -0.07337645600962202
Ni 5.30591917753587 4.729379570971042 12.314117837894052 0.6795695621110555 0.03445483924376001 -1.633939658541612
Ni 8.0814629658493 0.12310935781350266 2.4433619706907113 0.2944157374472672 0.6716050558483401 0.606170223283298
Ni 4.903047763363665 0.5178371591920784 1.6666382537482043 -0.028678341771298996 0.1774068894596751 -0.39400124775208917
Ni 6.3018534706078055 6.394250218841559 0.276030138980294 -0.846557827340568 -0.7293846858609696 0.5120267099296536
Ni 8.214435967020641 0.2903649468952009 11.315123171291651 -0.5423934951469691 1.0778869207399955 1.6108447243953612
Ni 9.266939137637808 5.7160641252109805 5.980295586448701 0.07111337100705818 -1.13769643669846 -0.7982180025845995
Ni 7.3622797607388275 6.19124086677118 2.463742503056838 -0.08391823608121032 -0.32583538940912915 0.4140712790290869
P -0.426977459547618 1.9475960973129818 3.6906586027045356 0.10834320189279405 -0.460191213315601 1.3305163182790956
P 1.756379933525929 3.3761912700734205 1.5710695129792847 1.2383209297907578 1.1415253235262468 1.3531703082331858
P 5.0153620995670085 1.5357677154686462 8.49612756830483 -0.9202140193741377 -0.12985253671947958 -0.5813719332926955
P 8.568926947025098 2.2374852910734013 12.797519619226719 0.4019040475389336 -1.0631228750569433 0.541619593095422
P 6.491990040742855 8.015644349472073 1.5756623605496722 0.2452960971024808 1.5283133413593486 0.3545808369729377
P 1.9394351012317352 3.6796211299776123 6.3045369012699455 -0.4825248438157948 1.040360641659763 -0.1097789058980561
P 7.339910214305367 3.7367938480400666 6.0505698139151285 -1.0582151533426807 2.5244376389085557 -0.46122171146264435
P 2.4004581870321946 8.986967566917826 10.450329314912274 1.184928115991914 -0.2529430721247773 -1.539017100930098
