# total energy = -381161.8555122154 ev
CRYSTAL
PRIMVEC
9.26573273889429 0.00000000000000 0.00000000000000

0.00000000000000 9.26573273889429 0.00000000000000

0.00000000000000 0.00000000000000 13.56133645799881

PRIMCOORD
 96 1
Ni 7.627402806139633 7.586281484960349 8.789997436979585 -0.9931371898964251 0.09579056203876406 1.354814528704828
Ni 8.216601475015137 2.863046506343058 10.322034430579404 3.519061954873468 2.1695313002753993 -2.279999518930996
Ni 1.9767513881001444 5.539888850807141 9.518498055999629 -0.1738060594822942 -1.133291365652229 0.9197329659726611
Ni 1.114083887930051 7.563052293388365 4.82029538051392 -1.0479235416086856 1.35688580941156 -3.7289979273091007
Ni 8.48589146091724 9.140691516441985 7.403892951756821 -1.6305969673216243 1.722308217084692 0.6865120548671596
Ni 1.5644911485260387 6.464145675420385 11.778020144328993 0.10070445440061365 -1.3545995844805445 -0.9713010678579401
Ni 6.61368533348989 5.494153194804223 9.317777270891366 0.3107838943926454 1.3491272485120636 2.3711494968739553
Ni 2.94706816935652 9.252436251327556 8.20783609199675 -1.6713870047547925 0.6434126525745242 -0.06693224304617505
Ni 0.17826806192628072 6.386230130175544 6.428520786806118 -1.8813337758237019 -1.2917420257243752 0.5945611782894599
Ni 4.973280037955767 8.242601120627816 8.686442683119333 0.1358205813774564 -0.9809067092685042 0.4918769744546561
Ni 8.419187452091267 6.7408945760474355 12.098786834139078 -0.6531406784955655 0.012053074509792146 0.42895256701629353
Ni 5.052752226273641 5.220906741091496 5.365312256739766 -0.1031490592863643 0.3173975430544211 0.9395083488273754
Ni 6.445623475997809 3.6877986288057087 3.8784605346277554 -0.12317332492709111 1.1875640109528647 -1.7959970621284103
Ni 2.9064008690735377 7.968353967796711 12.609900394863573 0.7356964870116104 0.2191659756743322 -0.5997486360276704
Ni 0.26259734726131884 0.8303690095511777 2.01228547253515 0.12888631615146834 0.6049206671469131 -1.5827219980172162
Ni 0.5052418659900847 1.5191724504891124 11.273335148866819 -0.8224539923138288 1.5897598787006042 0.8603931905617634
Ni 7.69856363233542 4.029018496707536 0.07526091286136412 -0.6982997915307071 0.06950668864157061 0.03750956690968379
Ni 1.5875628226442038 8.037846962128533 2.3860225023447237 -0.5707892726808429 0.6516787492380584 1.4166791274201085
Ni 2.494446398674492 0.9870414285589012 10.442336996073626 1.5401859244272182 -1.0484362195790458 -0.481977455952757
Ni 8.21888084522922 2.612723475027254 7.590320417790915 -3.0563130081330203 0.6462390662797257 0.7648229720639216
Ni 0.930548257033418 5.670072393522089 3.5953683134780956 0.0006746574695214187 -0.42768552737841187 1.1711287482149766
Ni 7.211037847033661 4.6372489802973815 11.502575858848864 0.3553639949958654 0.6546573722504081 -0.736209422092287
Ni 0.4496483970978842 1.4337331303912808 8.773248698772358 1.2226837374741328 0.045586944601179555 1.091704543349378
Ni 3.6432860495030317 7.296699544713355 1.2082441155298975 0.7651867831612436 2.2662960533019745 -0.02960162491651676
P 8.645753145078164 7.134187861035243 2.61333686652389 1.5488361439030485 -1.2658075652468006 0.2280373100220331
Ni 5.2099546451848004 3.8892263893096413 12.687335048587636 0.24479113244160422 -1.1255412893931647 -0.5095839048161159
P 1.4767817239467007 0.7694227269489115 13.398396632323426 -0.5294017108729915 0.003934559167715805 0.16356407003931184
Ni 2.530073140435273 1.9480276171096578 5.278886136122423 0.5388330314892205 1.7840452890831726 0.3774358871942403
P 8.096480517879437 8.293043768780143 5.530258974939265 0.4563075619904786 0.05956886070256837 -1.1363525210760557
P 8.167409700760784 9.184814934976403 10.497885062876195 0.28775812292143343 -0.3105638079620393 -0.6335792114238702
P 4.430474892096188 8.964299765362663 10.79571906455678 -0.4254574093788414 0.27788354412019883 -0.011547852738599467
Ni 0.45100768006701464 4.9653115079390515 1.5866631200109211 -0.7194041776094902 -0.2436973851567932 -1.6363840063170463
Ni 2.96522900520857 4.206123709195332 2.480721069007328 0.3216059247088139 2.8156194427995573 2.9027027068723106
Ni 5.689215397027362 4.294982084614289 7.703490222346916 -0.2756636536507446 0.3001814362864508 -0.634938553665242
Ni 0.7463705108691592 7.558966105321654 0.41657992410177186 -0.6660249906574014 -0.46324002744425374 -1.2295856068002888
Ni 5.910416230851842 9.046690659442472 13.447746850604855 0.10198023578924371 0.4498849462935865 0.07254521835757828
Ni 0.8614314514442448 8.670826217433087 11.706972360070651 1.035607957466126 -1.4720900000902453 -0.5299087324163971
Ni 6.321638708377259 5.979288421100968 13.260911692337347 1.3814858673484274 1.2054218650698918 -0.5334180311212361
Ni 1.9097138129013793 3.271711641677064 10.17062216795597 -0.37774107713948496 -0.2552151559884056 0.31557745912654683
Ni 4.084232997137314 2.798343895753842 9.035945189372256 -1.322722790376606 -0.6191558369096886 -0.20555224154563953
Ni 7.450195670593485 7.649770284581903 1.0048260756683012 0.20202314534645854 0.9319860723084015 -0.8953537657973484
Ni 0.9062553593615282 3.835448077429388 7.953614966985561 0.3028646395455687 1.492097553560424 -0.3155610040663146
Ni 6.385303556917787 0.8754551377004066 9.492406679634433 0.12875493277992664 -2.281267844120458 0.1563518685615888
Ni 0.5481273826521392 8.375879418023676 9.16456097013508 0.7589408022515316 -0.8070214598088424 0.5443537041971335
Ni 4.323965296116948 5.9446809099237194 9.532344766763561 0.6518147605952903 -0.622008218756819 -0.150007928621432
Ni 4.290154637941371 2.6072010984110188 3.7285947227715197 -0.7488350812760974 -0.5402250267407406 -0.8773169629002955
Ni 2.60853536390219 3.1658691784434088 12.547693972630757 0.4932275749452796 0.05791332737701639 -1.2201931098417953
Ni 4.395431891487794 1.1182071389270725 6.78625496988096 -0.14571367212145228 1.2437495570054966 0.6715446349240498
Ni 0.4564920671796821 3.0686253150417446 3.537745649151406 1.9422213553376935 0.46587566529488794 0.8991487140634064
Ni 6.565985342180526 1.2664125315054064 2.303582499882254 0.05808276307534513 1.2674636127929848 -1.9048699112724292
Ni 9.051953595546536 5.8170083807372945 10.020837894546418 -0.9378109065202945 -0.47907133804955554 -0.4091265334293019
Ni 2.7018042280280734 4.461904256999327 4.969538535140942 -1.07046234614115 0.13785715219151096 -1.402887730062971
Ni 7.997856060323714 3.185225293797966 2.258423172445662 -0.5682197121814536 -0.3438845336013561 -1.2902623558550552
Ni 7.090138568361444 1.6551378103324685 11.582412190457035 -1.6536111688286101 -0.6218472676989226 3.049227819151465
Ni 5.419434327298648 7.595371168618951 4.86224042531935 -0.08145074837732423 -0.3958974363335375 -1.491008177150987
Ni 4.290553064442207 6.040303270124308 12.47859940479977 -0.5729888514353229 0.873804578871663 -1.3342266772511473
P 3.3003705525395075 4.789577623872738 11.083531249881457 -0.0821374900317037 -1.1709413147945187 0.3421212710533463
Ni 2.8915849626819927 6.81427917806184 5.740432660423172 1.4110450690627827 -0.8390946861943033 2.224213779419944
P 0.26592745154969977 4.283826142590887 5.452606576499629 1.5246181518959485 0.3925130932423369 -1.4685897002464707
Ni 5.8691373922187395 7.370250929914156 11.204782626391623 0.5637243954142614 0.14883987645525978 -0.348433072203987
P 7.96006113713978 5.073025649153377 7.818951442569354 1.3051737257492488 0.08776306374859724 1.2022704639251036
P 6.116106228341461 2.232717250555692 7.974363721946527 -1.251878356760218 -0.3615886357493385 -1.9989558319152607
P 1.7934566662505287 6.3015969288119615 7.699245590253129 1.3936790669805095 0.8979613786235245 -1.2462610105734409
Ni 0.5470794282976154 4.714525189994369 12.602129224950762 -0.43348979276501476 -0.43824144851738717 -0.07308772112460961
Ni 7.03838945191568 5.495682040679523 1.7885235902262269 0.6822491658257476 -0.3753952026151277 2.311543098065232
Ni 3.7200155809779414 0.3848596151956969 0.06184783838206456 -1.369998692644434 1.5283855893581808 -0.24688940973152965
Ni 5.6245220521707235 0.3927169564214817 4.145632374062624 -2.0911435070941145 1.5164975796713431 1.3650547183755974
Ni 7.426354940671381 6.1061918944834535 4.410512797831058 0.7867825070541482 0.8565277940690861 -2.570819825717521
Ni 4.795053671826086 4.963412032760648 1.1855662350462794 0.4099294889465715 1.27088883642445 0.42331799443833545
Ni 0.17252608744795664 2.6172451525251117 13.46475224960448 -0.6061884781157432 -1.8613989845729877 -0.25761502367914985
Ni 1.0753438600232041 8.921844178692208 6.423924056874382 2.6174100147722346 1.6056868343435056 1.178037302409352
Ni 4.521204945495816 1.688262804297304 11.886470911283237 0.6139077011368717 -0.3829493608133018 -0.8667918949992556
Ni 6.227415473795885 9.001742590708648 6.857940236540638 0.10643827156059733 0.3142476845715298 -0.6361356592971367
Ni 6.9877336919140705 6.737318003272492 6.554030694008937 -0.48107448452251345 -0.6728235016364735 1.4631327908969578
Ni 0.3676058945629919 2.2010933052684236 5.981634504589609 0.07379708848680838 0.3375537062873219 0.5122861342386273
Ni 7.60371032793877 8.885494709790375 3.4572190204662046 1.6316169239457061 -1.4358423306121206 0.35082548369556354
Ni 4.257289084488708 0.6535584473593498 2.1253329694211285 -2.308200149734928 1.5535340635993504 1.9795496594745068
Ni 3.481663876152367 3.954290363469383 6.964180199701871 -0.7571484862377993 -0.6734855607005046 1.0717134449394317
Ni 3.3502016623417132 7.196824213259659 3.503760795203371 1.0308041083195796 -1.1452112570182664 0.1423918068370709
Ni 2.7221981054313193 5.648650019802732 0.43128000883609685 -3.6905486221939663 -2.669719879919544 -0.6599623294030892
Ni 1.9593132793891457 3.0911873738681432 1.1080518960220487 -1.591393557649285 -2.0872559991142507 -0.0017779178360291961
Ni 2.671458953836511 7.656321157514248 9.985741152689075 0.9044079055798165 1.5520937316083978 0.6935815601194314
Ni 0.562075089901165 0.7760375334360431 4.275360042734755 -0.3913532686062809 -1.990854542964365 0.1249836386629525
Ni 7.4408650778878656 4.38317332728766 5.894203978560857 -0.10645292684861667 -1.2720319488899576 0.22867468649571587
Ni 4.269177019385738 2.7817304372422473 1.1562503837440856 1.1958756161423532 -1.2863650776831783 -1.0446875511698912
Ni 6.11419748743048 3.155825124329316 9.953044235569322 -1.3436991355179568 1.3426390696845585 0.7356584346848234
Ni 7.313683632528051 1.7418558015260055 4.795925577261635 1.4774209253848556 0.017084209175796384 0.5283948668750319
Ni 5.373531888109334 8.180817215800538 2.281220580879531 2.64327531257477 -2.367974184469767 0.45387067041421186
P 4.898172009681933 5.276704982673661 3.2979540494832755 -0.05155216104567895 0.40009296247212384 -0.9082648174320614
Ni 8.135322468844638 9.080751492397644 12.632330880287371 -0.23467795526700228 -0.0768541301455773 1.2112945218005848
P 2.3000791263946723 1.317698361322292 3.119731389646625 0.3785054661093352 0.19140140396655422 -0.6028928380836068
Ni 3.4089649383487024 -0.04287439778296141 5.076292746460231 -0.2598444272303009 -2.095662992231023 -0.9437864073774391
P 4.807543879340659 7.005903793498698 6.725486589344184 -0.5779515947572369 0.2489138963607262 2.575767656641099
P 2.1580725089107364 2.068389483292375 7.575877920422246 1.2735473570932194 -0.2670692271135143 -0.16053171097089128
P 6.435551624685983 2.2428724934607156 0.27061961852698446 -0.3648264259603459 -0.6003489886158305 -0.5329724589433854
Ni 5.373040804282723 2.925367823659837 5.6908248547760865 0.22017873320956274 -1.0774894281912604 1.565088344095853
