# total energy = -340865.9362182808 ev
CRYSTAL
PRIMVEC
9.29016161301965 0.00000000000000 0.00000000000000

0.00000000000000 9.29016161301965 0.00000000000000

0.00000000000000 0.00000000000000 13.59709058457968

PRIMCOORD
 96 1
Ni 8.177107263203775 4.829685556560526 6.248515254642539 -1.1172145146950243 -0.1605373673978461 -2.242811339916473
Ni 6.896932296705386 1.8751819409998172 11.561796452761328 1.358435670397183 -0.5253159708393922 0.49545826404801124
Ni 0.7483838250366412 2.151703598470659 0.4660298041671702 0.361021707502275 -1.697924646034005 0.07736140879929902
Ni 0.34976900691358026 1.850451531048956 9.05547159601821 -0.43122362243865736 -0.16509207664806405 0.14644566519147037
Ni 1.7428528803912275 1.0844684240397713 7.116254429733158 0.00540445884502295 -2.2453377058827524 -0.7242612485914753
Ni 1.17580929204761 4.486887886847219 0.7685072438925992 0.26995657596363826 1.4987837073313477 0.5794500336796343
Ni 9.247528963034041 8.72858983101107 8.028429376362455 -0.03618879121573122 0.21352908910352902 0.6408106961753028
Ni 1.5453068859527939 9.085638608487194 13.397552806327088 -0.8328654174551399 1.4436494853613655 0.2778544906544763
Ni 3.6557064263312182 0.2056544474080475 1.1554564062022505 0.0759447309574305 0.2178156322940249 -3.9707335607538328
Ni 8.44008386518688 7.905425779881843 12.225348096946997 -1.7121467031706579 -1.4221396363140475 0.44366210531232625
Ni 7.046615379022544 3.1457787509770427 8.271218457375154 1.12393640679989 0.899350031440935 -0.011255261198845132
Ni 6.216734541118535 1.004312910495057 9.345158341370858 0.6531141961330043 -0.1782538108410027 -0.5417296363107251
Ni 5.785420212497712 8.24722940231313 11.320610853625984 0.12210426023262842 -0.6273890234527583 -1.8826059576679062
Ni 5.894040780922005 9.075187176783693 2.19795652560152 0.6796078715481586 -1.6762718436509194 -0.36954491448193777
Ni 9.251077804732475 4.42997635741109 8.108910045560167 0.5151670553308483 0.34974742014003635 1.6724038760550812
Ni 2.8445824245244244 6.215675462705913 0.08682492049577496 -0.9039566769750109 0.7625470315455514 -2.0041368618955673
Ni 3.543035347486724 2.5286890625563063 6.043620742446355 0.0036908185880259016 -1.1695372353581408 -0.7954730928496107
Ni 5.037162733657665 4.756200378983023 3.1558437119615514 -0.5457647256120471 -0.6024601214215625 1.0602437537369356
Ni 2.096863775052202 2.9049498940438445 3.2586783677947864 1.2472341731199874 -0.9720081212272937 1.0799808271545464
Ni 0.23691212483880156 0.977715178079837 3.442035498552548 0.20447854886548655 1.495505036580076 1.482406551524905
Ni 6.222457280611295 6.56852508717761 2.2467967627140926 -0.08270184717560596 1.0326954118050216 0.04303718159613233
Ni 2.6081106533413974 4.17721893309363 11.958219721783184 -0.4528712826154201 -0.4935433064134854 1.2546785452131748
Ni 1.7907529531585604 3.1482499339398258 7.675598332213788 1.2865957056367454 0.8138140572506436 -0.36600784786295676
Ni 8.933112736746684 3.7625804443908373 12.824721447360108 1.0280941655875844 -1.5496542689289698 -1.2154368261037325
P 5.3479186363084175 5.628481514037946 7.7346233733944025 -0.3146593181876517 0.11368184049688808 -0.46063190039744545
P 7.534739045302839 1.2961540443028523 2.9342380572335833 -1.1782152227481129 0.2911478653292728 -1.1254268753024876
P 1.3927810142122836 4.746650092946402 6.013979553119076 0.13029039558784658 -0.6108799700541415 -0.19333873019858316
P 2.277232260850838 4.741586954921151 8.883563660310577 0.0898384582203872 0.4993933374363592 0.7722750574665925
P 7.050024868298264 3.6368659787803743 10.377626015350918 -0.27831266123781745 1.1789119917048212 0.5399671450936636
P 8.29736840400539 5.7599187191411705 0.25146702088313444 -0.49495407071808306 -0.4029628278207512 1.0416400225928188
P 8.941501752594029 7.965663187140064 6.086669492870961 -1.8020885197381284 1.2814684117125092 0.021352754644163224
P 5.142726838943778 3.2096764818718673 0.431850370940193 0.5201218282329623 -0.9051064743087379 -1.0670224672216655
Ni 3.8183585741222315 6.8504350383267 6.738949384091421 0.8690614077597227 -0.5531239941905958 -0.1012065908480128
Ni 2.9359232925322636 2.9840277488529092 1.0549777353290224 1.392032275405706 -0.17727679163971405 -0.3667092448053555
Ni 4.479177052790414 5.1344585951961195 0.8777251697022568 2.025517898674505 -0.37098267536972884 1.390338689753367
Ni 5.799615579291444 3.741528938399609 5.751678345878054 -0.28522301520440557 -0.041798166982708655 0.7641228606731033
Ni 2.563062660158931 7.316541021818288 2.0896824802017075 0.04109728426094213 0.21161130325552588 -0.31779117894841397
Ni 4.721771040411314 5.442761895207118 12.198398267410385 -0.10344190793643476 1.4630926816876415 -0.9407417070138444
Ni 7.390695091024814 5.871382076988816 8.132991073221184 -0.4114407833847753 1.6577429316087966 0.8920828083555604
Ni 6.398487260982789 8.744002208963165 6.2755329023582025 0.9242707059420147 1.1036727714548475 2.3969520597593563
Ni 2.245385587180082 6.085557460537709 10.542028429571209 -0.5526064311242289 -0.6290072757824715 0.2969318190009015
Ni 6.132194071339107 0.7717169946957632 4.5548621406144845 -1.561243773538782 2.779516269319097 -1.6019898451078927
Ni 3.1331069706716423 2.680481011537193 10.171439241688105 0.04364730437630548 1.4692612723921987 -1.211318690170301
Ni 5.967470217530422 0.17904649581516194 13.265416981077994 0.37638224911874535 1.0966305198960855 0.5545640690712319
Ni 3.5992129541632294 0.14222679868584268 3.211973009798183 -0.5077136843765966 0.19580853189531439 3.744157408658358
Ni 6.243146470303469 6.658481721119829 5.619269389880443 -0.2730275015794782 -2.498615021418497 -0.20737515368699128
Ni 8.205293613237927 1.2169182567480459 5.459340188429248 0.4657481385780882 -0.16616756910042996 0.5088531972976785
Ni 6.618589767577756 7.00608240433599 13.287376135849161 -0.3598156030093158 -1.1552190189632556 0.3502942937824419
Ni 9.15329885479528 3.3272341856728427 2.4661718496624956 -0.9800857560291055 -1.948257791339761 -1.6524359175735865
Ni 3.273341958728836 8.135849655919111 12.131405983715174 0.30296362701727825 0.47145778736835575 0.18518653340509394
Ni 9.210804954568317 6.573393131811062 9.826236349158764 1.3899486534038 0.2628752436368247 -0.9964364294729872
Ni 5.508526948566301 8.123865347565763 8.572598729025755 -0.31357071310916323 -1.3436330581667117 0.26210082736464535
Ni 7.4481826104748245 2.353123590260524 0.3768145251137857 -0.549339330337183 -2.2412146848533143 1.2748010269946626
Ni 0.4571642030341474 6.438499986624548 4.952862879061455 -1.0495171113480504 -1.6288046513078918 1.2598976275202687
Ni 3.460761677116767 4.773619431822191 5.294529936118481 -0.1553113431122164 0.3614109725208937 -0.3364818133793818
Ni 2.7557313198023974 0.49276410195664916 9.891502520844634 -0.7286825175876225 -1.8906265139795375 0.2689499890759949
P 1.3493866697793488 1.8870361870919654 11.197081434003666 -0.20173029669638806 0.48717802631709 0.2194289995277318
P 2.0707955818432926 0.8874779812598879 4.8383885798670505 0.4677016627600332 0.02196416297591701 0.8901377688140476
P 2.8278787141218524 5.139456702090771 2.3861538305081917 1.811069125970184 -0.22724232492456348 -0.6475996940726783
P 4.503043477720452 2.8082857634883562 4.103806218775938 0.28262980055593256 0.31558620087729516 -0.021038308727537963
P 7.623283574694896 8.082747092703814 9.582984618102659 -1.1799057230766583 -0.3997548624064147 -0.38690963101263043
P 1.6652614514244386 0.6597575422232584 2.078097648793472 1.6958096565735312 -0.40185339680665627 -3.0605491577015553
P 4.053817717700208 7.026567210474851 10.488550543830739 3.173720891331244 -0.3298990179555415 -0.6435741178530529
P 4.925996660978474 0.9959238946477137 11.054815616639463 -1.3840536280756037 -0.37895052406655383 0.08995955717928378
Ni 4.023996299239553 9.035211611787993 5.567042888895936 -0.21006427048338017 0.9611454674811769 0.8790149194280087
Ni 0.9919105448735694 5.107925893911499 3.251635496350854 -0.0012153604643398424 0.6423911532885453 -0.4404919351144608
Ni 1.0152474305972972 8.032691702465181 3.601733374982038 1.3549438551938406 1.5860040112025977 -1.0744616971085301
Ni 7.0427042210250566 3.3568512205801846 3.7739543891327005 0.07060326413985905 -0.7875229847645986 0.13674077919888064
Ni 0.39166484829427084 5.746791720921574 12.244873229401437 1.0754299745590705 -0.8650944526921746 -3.4034823831332353
Ni 8.604129537205026 6.744025528342793 2.4436692204427453 0.2671144785291529 -2.0779879435487634 -0.30693366740861977
Ni 5.300585263393453 1.9429815397306152 2.2024566798390097 0.017219192091763893 1.8294887661279524 0.34738714743797594
Ni 3.666789589017686 6.991803426088629 4.199883211123728 -0.7910739353406505 -0.8592601053985847 0.055620674688097754
Ni 8.981189322582788 0.159842802949112 10.655550487210407 0.6278160836878479 1.2605771700857966 -0.7158257162296123
Ni 4.02223116855185 1.2820329988012336 8.098427027307519 0.35903398764828487 -0.950528354086963 -0.28169931832186323
Ni 0.12938315039242965 3.4184914422270527 4.678051540325382 0.10653905880451975 -0.6153670592912176 1.9727552622604931
Ni 4.611441082268404 3.600151260476166 8.049558919710405 -0.9041333117621911 -0.4027874785851515 -1.2098999554459036
Ni 3.4194018780554467 1.568913186360434 12.635653654319555 -1.2708836942181274 -0.7732160812236232 -0.35544164231133624
Ni 1.2701787527090853 6.468247083793088 7.38837347966241 0.033468049850458495 -0.6506590497242923 1.2622411880517808
Ni 1.8348161892205193 8.203036103989971 6.0051957054073775 0.2810819964528385 0.7015064713934628 -0.6017497256180991
Ni 7.31029803328073 5.842099487895985 10.722964544238366 -1.3706113865277685 -0.4798277565996059 0.8609889151642333
Ni 4.997205748984992 4.7707301915912685 9.89521486938572 0.30581035243745397 1.1552706981367975 0.7553651690851313
Ni 0.7047460783720337 7.0682428750276545 0.2994702144432751 0.2956177281751683 1.0500210475676626 3.180528401171381
Ni 6.830442610748094 4.284065080668706 12.864859590182308 -2.3776052798016276 1.2325675722467482 -1.0453002450532254
Ni 0.5716793789392148 3.962049502262716 10.344666380330757 0.3045865073326819 0.10132846113785773 0.7965334157933249
Ni 4.900365105360733 3.0810913563535087 11.701506546692968 0.6875932037464804 1.3632986549164392 0.6909520929163843
Ni 8.315493509119639 8.826322330140693 1.3152666935860626 -0.07707318813491888 1.119017372231718 -0.5719290427122409
Ni 8.008760246404544 8.446271112755353 3.825310401983324 -1.508511476142073 0.2752455922767196 1.6170151148721312
Ni 7.325264483480143 4.378490282299267 1.641277970459321 -1.0760668368121211 1.283559489913583 -0.07776892865036285
P 1.0784483993785547 7.729813856778489 11.492342276264848 1.6258471113414643 0.6525210426336956 -0.10223837454663684
P 7.563631447612071 5.466386775937786 4.179745857025498 0.019134406836605757 0.054223794340571126 -1.016542713304559
P 5.931861028446407 1.809323986025492 7.063021804256661 -1.1038206098866215 -1.3128551535539068 -0.6104012306455101
P 5.4396311107768245 8.082793543511384 4.143223445064634 0.6051356113711965 -0.3487822280132896 -0.5962925591582697
P 4.778849792754699 7.775066233514269 0.34674320130839786 -1.3852196233592466 -0.8785770605596417 0.9592325667291802
P 8.298687606940408 0.5833106611550217 12.815638456447653 -0.22550348785658583 1.8640739603019898 1.1244318583790698
P 2.8071988145911924 8.14673772521378 8.100996685982354 -0.42676507244667145 1.462612142506797 0.157485982166032
P 8.870478467817794 2.5327674434610503 7.004242023340023 0.5348069410489628 0.20460504714102182 0.09895044782398443
