# total energy = -340870.59415303695 ev
CRYSTAL
PRIMVEC
9.23712850206979 0.00000000000000 0.00000000000000
0.00000000000000 9.23712850206979 0.00000000000000
0.00000000000000 0.00000000000000 13.51947126603684
PRIMCOORD
 96 1
Ni 7.75322993567594 2.201688036204266 0.26797186697278236 -0.40032641863916857 -0.059856567146316264 -0.12038496354867653
Ni 7.137344397421932 7.18341919404452 10.92797740266928 0.28856107843870304 0.8470226827921283 -1.6299997000572575
Ni 5.565933345569909 8.375110370282808 12.637339425387456 0.33091820324867527 -1.0977471499990321 -0.6693815658344602
Ni 3.0684724569487942 5.878194472239226 6.996650923124095 0.7451419486952263 -0.7142617141766022 1.3855572092043236
Ni 6.108152784572687 0.13676030501116945 7.821527415882052 0.9338159264282885 1.5057845641292131 -0.5818936101241203
Ni 1.6635698822256308 7.180306281762681 8.71755750895753 -0.7539641749725466 -0.852050475024023 -1.4238992993176316
Ni 8.175690004548038 2.545826493095025 3.6318846397148454 -0.27983089765455677 0.36055633783008223 0.3655252517995834
Ni 4.747994859977795 4.47291317525032 4.415851738069812 -2.0771883304656034 0.9642408185770491 -0.5729428286887359
Ni 2.1386538717791392 3.454602899694862 3.703591544025487 -0.1283263298829403 -0.6858877910195994 0.018211123691387995
Ni 3.025778449332596 1.4756035557474783 2.3688948402426426 0.6774617717394332 0.20153797817992386 1.3939773149472188
Ni 4.630988154120074 7.891990078992802 6.929242978386059 -1.7406964897838924 0.539735745809148 -0.3076183521804702
Ni 1.030614130627889 5.647275498548758 4.7753072013277675 1.5313202465064724 -1.6663628120673237 -1.7347497852821543
Ni 4.773009003773698 -0.014094934275542433 1.145419628780084 -0.2538005350290661 0.5862660281602031 0.3059473922359505
Ni 8.058341524938305 5.054261090294253 4.699395556154535 -1.8691693725470262 -1.2603509130076036 0.051739594466136705
Ni 8.257152240196513 7.556460625801372 12.860640539259428 -0.8739650157089272 0.3075029096485285 1.4128654101009734
Ni 0.39212533909892644 7.701954635745712 1.6433322575423055 -2.144369970518423 -0.48623263168468517 -0.8031429506900427
Ni 0.36576442197752723 0.3626690602397107 0.20388836475769412 0.10745308597835687 -0.07590462174811445 0.8972072740663194
Ni -0.1101758493816976 0.02547415279185459 5.136722783239153 -0.3883067684704732 1.0380533336828253 -0.8539327796484003
Ni 0.4750516596039937 3.7288070572212244 10.716127556915394 -1.1718471144382399 -2.507121002006979 1.1242225705817412
Ni 2.2954633640536053 4.9830428300777045 10.395918804942532 1.4819671499946412 1.7737102257057518 -0.22511756527207682
Ni 1.4233860687171083 7.406902279346618 6.003659616602822 -1.1522722776301058 2.75134520620152 2.241468709845649
Ni 4.570272508931568 1.9871187798397763 9.068293122974962 0.3257649411825099 -1.2772281483789165 -0.23178932086529758
Ni 4.625501299831016 4.557026466758996 8.998668267413063 0.018493687928813313 -0.3277449477270162 -0.43626195619351316
Ni 2.8072187534851554 9.028831186597385 13.028417274122107 -0.18028189701462502 -1.5157622441672154 -0.46109778429027043
P 2.316948924788196 4.000332447502088 12.341411389212938 -0.5592115951455724 0.6260672193175411 0.7051741500530372
P 0.460138315749309 2.705684237752301 1.9194808306037636 -0.589222796795682 -1.4988418142627928 0.9263561277161337
P 8.617058475321986 5.653769199836986 0.632648155220931 0.5289486824959729 0.6240293629519059 -0.30094505392535265
P 6.325650210650362 2.967686148618993 8.463580815273216 -0.09241470358799568 1.4050718821984833 -2.234585609572571
P 2.9591602790755593 5.4027132861631095 3.200099689689881 -0.3175420390520854 -0.049067189840296135 -0.11230784296749691
P 5.7794680435499295 6.073901512344029 13.047804159276776 0.5471922020871931 0.22584955834209489 -0.6095890191568598
P 0.22502383832468317 5.258881959336666 9.42413964015424 -0.6176743672681556 2.9899723759242574 0.22747063888528565
P 7.399226225618999 9.027029946552998 9.524683935719102 2.003667635568633 -2.4203059039939476 0.04799761092520121
Ni 8.318671515558668 0.6707448440161466 11.601017673100966 -0.17299461932459237 -0.5979262381069509 1.1777354548982168
Ni 8.960947529745061 4.903400308730482 2.664620583304484 0.49532405246299216 -0.41411730177567385 -1.245685854796261
Ni 1.1729675169050924 4.243361296567899 0.6899959433828535 0.6427670485707252 0.3902150412367796 0.294513439367396
Ni 5.421824904890482 8.658597841884092 10.080415446193317 -1.9518280251895221 -0.14016188906528765 0.22712893927515077
Ni 0.9333102197172369 6.131430348223232 12.691470845429091 0.9031771184965091 -0.13213799031954662 -0.9333824384352958
Ni 7.369787497303805 4.411440085530328 6.8937807186198645 -0.6831225695696365 0.11566287548265887 -1.0161819875310305
Ni 1.6175227969883417 7.861267389825455 3.5670446166811147 0.14574092581496192 -1.900022610482457 2.02591539122324
Ni 2.9898644939860404 1.9522393828776896 13.720099917156782 0.352120034137271 1.5572565067562598 -1.1766905585734702
Ni 4.291532921344722 7.68928129553597 3.0987711619210776 0.06661059804069817 1.2149154063826237 -0.5440513424653662
Ni 5.569822176640099 9.315182168012823 4.987955134978244 -0.11161595910679488 -0.21264128718193703 1.7876566605835147
Ni 3.2094495110895167 9.115262997342683 4.863075624557285 -0.8782425600383584 0.36956059821122156 -0.08864289525038928
Ni 0.8374242080210129 0.6432754714828167 2.9850722717551266 -0.09238667856353766 2.0532732144109027 -0.5396141326296191
Ni 5.789333296716113 2.5473598564148627 4.872404200561525 2.2676991042970878 0.48392146705300526 1.8541343325907744
Ni 0.7304370153743027 4.713531133795182 7.465086951344549 -1.9384678018325328 0.8665949484971012 0.6913943226601253
Ni 0.8121292555207538 2.3927765120926905 12.744615740154112 -1.078254331381743 0.9915703596299376 0.5092743439954972
Ni 5.4877687647719275 1.403258365862133 3.0319035891963564 0.18654536142583358 -0.8328330215553076 -2.817222268510303
Ni 3.1810822896725233 6.578941509404964 4.846567952335107 1.8287007230090184 0.5097921641721801 -0.08272730109690268
Ni 2.1953144175856645 6.32621367548476 1.4898592160577504 0.7400676194961124 0.09301454195552368 -0.5705614729407529
Ni 8.605530539037908 7.169914512275829 4.053583569204084 -1.1052959088805674 1.6366048640786006 -0.7465203170999918
Ni 0.3901024079721528 3.5021648739951226 5.341435099853049 -0.22072689240354887 -1.5509778728363999 0.621968109547503
Ni 8.526802493405528 7.2462039560019615 8.557379235943637 -1.0890565642035697 -1.3801136695912488 0.14623432051161267
Ni 8.852189579577793 -0.008875956711035273 7.376817875753975 -0.29467361909434414 0.8290360164067206 0.483851018826386
Ni 1.6085812566654338 1.2184603744364157 11.055979986213352 1.9726315921984352 0.020782741073306143 0.019412600198656888
Ni 3.658752675187203 6.38785303351654 12.77222274590109 -1.2657237472837426 0.3228644797062633 -0.2950088909465758
P 2.439433247806541 8.690170346867252 1.8890620429618548 0.9968496057510057 0.2017475230875687 -2.261536941350434
P 3.925668738380121 0.7631456871546918 11.051518453180332 -1.2109967880545078 -1.5403517605811214 -0.46858817913004464
P 8.778689748638353 6.147678457136451 6.32407066168836 -0.9043125176525328 1.9865307187780306 0.9087952360142348
P 3.5762466440258263 6.39378326997037 9.139229650774313 1.1068190303933132 0.6808299168807178 0.09704397482989094
P 6.574904884279849 8.424408924728427 3.4431386995969686 0.6902455537676628 -0.9133594583461495 -1.0274431622671467
P 0.8568295674325468 2.0785016914250316 8.98674405831922 0.2911614921760276 -0.46309887388069915 0.1281844049884373
P 6.61586231175069 4.180447214812398 3.3956182923746554 0.6698371653146399 -2.167569291453022 -0.9544217756040982
P 7.6870181990699455 2.967880128316081 11.61899866730817 2.081090236623171 -2.0098686221730224 2.5839249956409116
Ni 1.386105018362505 1.7075293764371167 6.679943966540092 0.3629826878833878 0.19108772938087737 0.4359349118713976
Ni 7.493038501982069 1.8386042288979247 9.812878647969718 0.8300300048888737 0.4190373647851106 -1.3673967362452129
Ni 4.617954565901455 3.6726360792216353 6.666396793980612 -0.39002837914727023 1.0936467546774133 1.1644557070701753
Ni 7.9005621341784 0.5827639668326753 2.358715524709746 -0.9006001017979522 -0.8940347898756086 -0.2958437281430453
Ni 2.967390560509145 0.04259239920343807 8.83350102133264 1.0616025817576749 0.8647326984773818 1.4355104011939988
Ni 0.5786571395314719 9.186093298165057 9.577003954875076 -1.6052731438448549 -1.1655165442345217 -0.21838821696804325
Ni 7.202299884561072 4.920978564138016 9.068590558510497 1.6214852348283428 -0.2314180535688079 2.9470259542697184
Ni 2.6722920184678878 3.2828662078730617 8.572669454638378 -1.2635503937815076 -0.21165681178148066 -0.5425019957003753
Ni 7.7048273826883 5.0340872017971146 11.727749227772692 -0.09332281722456186 1.1768630795955923 0.8939075202691251
Ni 8.473910695999567 2.52824823768749 7.580867890259243 -0.4075741013405174 -0.7856977586304018 -0.28403285155104635
Ni 2.7234195243431922 7.731097775951057 10.696767459433179 0.5949681839198915 0.4557522037076409 1.9090636376388024
Ni 4.672952428590085 4.105441731938419 12.509201979768264 0.39954454616782153 1.496280738403836 2.341839435055928
Ni 3.6299882572476005 2.8880528644002035 11.026724153041128 -1.4084145734184712 -0.5965751233956952 -1.1610772775162455
Ni 4.644437413118167 6.107376865784336 1.409134103258209 0.26931277173205237 0.006464781788737254 0.0782145008282137
Ni 5.994258990996806 3.4977495266042653 10.639120388310035 -1.369788633516157 0.8968627462427071 -0.3654087808263771
Ni 5.126015103959903 6.066862820478268 10.758160186135807 -0.21182907569328682 -0.049271078320986116 0.1386074000939742
Ni 7.173461569594008 7.746514543305327 6.2405605546663425 0.08501635424139553 -0.2521905102294689 -0.602355220412582
Ni 6.1565276261750315 6.201734132724939 3.5048011504498313 0.031191852221772086 1.4720378066960713 0.7966259755071312
Ni 5.462939363544679 1.6098375061322887 12.249209144335696 1.2906140827675192 0.030025599827812804 0.4232002379135486
Ni 6.1039221797504855 6.419176136032016 7.968957527945898 -1.2379882290416873 0.7496709469138315 -0.6698739320898464
Ni 6.7341806898458625 4.482473603178223 1.1241031074958128 -0.6074287782807474 -0.48174477111666064 -0.18304043359636865
Ni 6.9512809194009275 6.991314634028492 1.382622620943356 0.010242246553298489 1.0377154907274322 -0.0901549610195415
Ni 4.160513491654511 1.3648134373250023 6.6936121454820405 -0.44912441397847813 -0.49039576192343937 -0.15011591495420598
Ni 3.612003568189025 4.00724181956979 1.7759173805018693 0.45333948050109024 -1.2257042694680118 -1.203586868743682
P 5.1071159391864835 6.175556110746508 5.757374679764464 1.318688215295916 -0.4606141597856325 0.8419648086532467
P 2.265073211509838 3.9483089401688063 6.42903584692114 2.6037970519744897 -2.332383946069983 -1.558189817203807
P 7.1891185022875295 9.239068229726913 0.42414769223676174 -0.36432583217484354 -0.16004705802498886 -0.8556528476633005
P 7.236523445404434 1.2641841601785582 5.961911490938137 1.4489161330769433 -0.7510158909775001 0.014072161822349959
P 2.5110117560319676 9.099541404750132 6.885926388313491 -0.7322954317498613 -0.8870475599244981 -1.0118090552743155
P 0.7063345761547124 8.343685659354572 11.911519126803844 2.0062693348575382 0.15670745212879464 -0.86774860248557
P 5.078305335604718 2.6175897438891065 0.6050300649198337 0.6222776703681219 -0.1434708988338626 1.4093044322225923
P 3.7994988011171067 1.919881721977745 4.431384893242336 -0.33871815890906826 0.7508857931575391 0.014481481445626672
