# total energy = -381175.7271714795 ev
CRYSTAL
PRIMVEC
9.15788255762745 0.00000000000000 0.00000000000000
0.00000000000000 9.15788255762745 0.00000000000000
0.00000000000000 0.00000000000000 13.40348681604323
PRIMCOORD
 96 1
Ni 1.9650618078240873 2.5880908740285484 12.819188436670851 0.5399869425880055 -1.7947721885823738 0.1244691609203792
Ni 2.152642716265203 1.5402093201806648 5.6816712232026285 -0.562060120337961 -0.8863914143977379 0.7586137579294161
Ni 0.7098329718213114 2.1105988774401694 3.809230407996407 -2.1582909514748896 0.45601625600230494 -0.052205992579593956
Ni 0.663630538526566 6.046363748744241 6.089364586296614 -0.07319853567086104 0.7961207537359385 -1.1785569223582477
Ni 4.6756485189521015 6.877597274911048 2.7025854691368503 1.2782596749672244 -0.9874409108425963 1.1971480550968738
Ni 8.977005219865008 8.870389151121588 2.2800407678981127 0.416932659737282 2.53835939119597 -0.6000021467993731
Ni 7.2930720908148 7.147663231554533 10.133799639401927 0.41367918579699076 -0.2380586988137771 0.1284741683147142
Ni 6.128116166341948 8.87451019827281 4.152574077718172 -0.445139204078485 -0.8979603501822601 -0.3850376108008982
Ni 0.4096229289490139 0.41789524426390234 13.092418441738218 0.8741874161323783 -0.7953882464452882 1.5891207024547083
Ni 5.181566583001361 2.0365390811914117 10.635385109212868 0.09530539487222942 1.8598640359857002 -1.1824413450143185
Ni 8.202916880861826 0.5463876628625257 4.836540610253641 0.8762802941056651 -0.31490460142923826 0.976793715541395
Ni 8.723917977484563 2.605985376547414 0.765210687651191 0.5139720065814826 -0.08500915515254392 -0.07035129603005302
Ni 6.5157693350336645 4.154766474802623 2.1084083119322305 1.2361326638901873 -1.253617193828196 0.6104148574922649
Ni 5.813707742351304 3.4471368895248324 6.9000075293194 0.07601697895626262 0.6126653440893384 0.23454811455735736
Ni 3.581602079127962 3.308111074407683 5.447874144642929 1.0778900060637888 0.17576498298087792 0.47652363192703734
Ni 8.682277085492093 4.354399156690427 3.8731789861125745 -0.3135393456505955 -0.6188257072637794 0.7924996120435835
Ni 2.0205494182446664 2.039323077489127 7.962797200183896 -1.5435777237175867 0.38114753171787263 0.6376132722839276
Ni 7.362131683186739 8.412348497086983 12.568703864513465 1.311088291461471 -1.7470576561152298 -1.1268641219696465
Ni 5.476917453388238 0.7502924969637637 12.532434070641425 -1.4833709723207034 0.2705404734915663 1.9331255636840123
Ni 8.042617304561809 2.39707575962808 9.915162519629193 -0.5997671479704316 -1.4394971537558887 -1.622204629492871
Ni 3.5595132663974063 8.862073793758675 2.3056544496253477 -0.168792922538419 0.7904144473797806 0.6350475684392806
Ni 1.6444718131066083 5.097689536650134 8.095357550214905 0.36443716094172723 -1.0558214562995236 0.1609320317331035
Ni 7.313988694577896 8.713651991136738 8.180282258330799 -0.2207423190225166 -0.5053464696960007 0.2880450580342329
Ni 5.20029445283303 7.433032009952893 6.1835781346913645 -0.6742257813006389 1.5759638533577762 1.103525447243706
P 7.0324662268540115 7.821683387843461 2.47595901262028 -0.01948716219033418 -0.6023577915157432 -0.7973813656159171
Ni 6.702864875699191 6.0036513844924535 3.8183983642254944 0.2863825827301455 0.19821379890269733 0.19588823609331424
P 8.188868689017434 -0.023869105099883967 10.29651872827384 -1.4893914674831703 2.457129243469885 -0.4246673093773783
Ni 5.487687123276768 1.2831841883001616 2.3499529591362283 0.12117506355013971 0.33985227251351147 0.7006150699274449
P 3.172583570427794 5.841749178744737 12.233388910430538 0.726698140167742 -0.7858661658874659 -0.823014235692673
P 5.422492157344419 3.8861657793684623 9.125965505981373 1.6436684557936014 -0.3320880551870603 1.0677819710955094
P 2.860904195439515 5.415523008717573 2.013190143820838 -1.8766908777350517 0.538908364811846 1.7832477328825418
Ni 1.0962992789334751 4.606927768234817 13.242765231273905 0.20923920347892352 0.9592482504584642 0.798170951396748
Ni 4.623366167426918 5.505032152842138 5.1465907979348025 0.1002118310349113 -1.1315494432604576 -0.8528799129038537
Ni 8.559964406043793 4.157055945442192 7.346973555976286 -0.4129227672469405 -0.5927830033431146 -0.24259592456249834
Ni 7.0820378451419455 3.7477443845001592 12.126308537041414 -0.5079520256396478 0.018131676603704256 0.15581810754530584
Ni 3.1459432900657767 0.4388722900518835 9.433025645007259 1.429942163077602 -0.15612663992466014 -0.40310269583272507
Ni 4.836085463490494 7.085691840282697 10.173367186783203 -0.4567011978844715 -1.1392434694706057 -0.842195179496498
Ni 3.0799790619985328 9.177297269297005 13.325880341796283 -0.6930825089958258 0.12652527211845951 -0.2448338127540816
Ni 1.0067260296310023 9.141508264259274 8.553234278151717 -0.4636837998498918 -1.7569898276272773 0.8719690683248208
Ni 1.3960734065959988 6.958736114377351 12.852349129414359 0.3711845069678898 0.7320159528362297 -0.7932930544791564
Ni 2.625491666396537 7.034078014184268 8.741525838279355 0.4959254334924168 1.3098634179154345 0.6653940419416218
Ni 4.2631866464100225 3.514328273854885 3.083311615461488 0.31853011399696757 0.5450450738372032 0.0057574713090675035
Ni 8.358930568124572 5.898775313435106 11.8892008839369 -0.004127906125444504 -0.028136353224899928 1.0073980706908134
Ni 3.6483630429777754 6.97105346641823 0.7061991240221884 0.20933561984747176 -0.7763345722479469 -2.2544741209663814
Ni 0.4646260873822602 5.6818617071598405 2.259841226339329 0.9221606015775472 -1.3295228440175748 -0.3662441322434789
Ni 6.361394908748848 3.636567690242719 4.518811538047366 0.018288771006858825 -0.5304736037809316 0.14092524959387343
Ni 7.579210131348054 1.9640819143903523 2.987248174789967 0.3841706348149126 0.6145353074185416 0.09666216601043998
Ni 6.2690559789137765 6.071337294480652 0.9759802705181108 1.1950623762124386 1.3646022042192112 -0.22842091861369695
Ni 1.6389587678065276 3.341766292809338 1.9952562624069707 0.44206570735948386 0.4348103113486512 -0.45486363045510053
Ni 0.51055103683549 7.880055731269896 10.73667586924865 1.3887407491386274 -2.527101301783648 0.2506979848443424
Ni 2.8214337216133556 1.6415596064530773 3.5250228491064366 1.669067098372364 0.41766645257951296 -0.5776955128823729
Ni 3.5802650282744537 3.7288791464301156 8.20289398615543 -0.8667425298185588 -1.20990484054191 -1.3867203762744893
Ni 8.128664769079345 4.876041305092241 9.621787004510136 0.26872321777716945 -0.30827166949375295 1.0336366926723681
Ni 3.783606652598358 5.116124354239939 10.082625391666292 -0.8431117777734964 -0.19420879150836232 1.2700560561105096
Ni 7.483391206140839 7.354613061606397 5.904101537930997 1.2680775922279002 1.1922074232621467 -0.7814361551405703
Ni 6.164610328336668 1.6439772874484615 8.465736205036949 0.8918300689148061 0.3934960259808965 1.309770343980996
P 8.597603303358296 2.5938694979228187 5.699873430575453 -1.1096410732231405 -0.36872498968380374 -1.1096909526244696
Ni 2.677526755092647 3.0356274367688143 10.485280087776717 -0.7453342672116906 -0.6597838948436959 -0.5952270940082329
P 4.945943422659543 8.169142609986913 8.473296037088804 -0.031149943240243134 1.1919909363759664 -2.3488261507864068
Ni 7.350043278209818 0.6758407433415119 0.8859958322887714 -0.44751670317172604 0.6028203329744587 1.0905323774181477
P 0.7777359236261416 3.462503816457615 9.186723477814239 -0.4945961731580321 -0.6642825540449978 0.8392762060774901
P 1.739329160645205 1.053632704094479 1.6430798149577506 -1.2840037765398533 -0.5579800367313165 -0.6344770406477912
P 4.944349951094403 1.675736824160554 4.540712614185477 0.6146944587042252 0.6562319158263795 0.11662421095466367
Ni 4.596542729413735 5.747340567451496 7.8659168763881775 0.6287599356583559 0.9449542024332951 -0.6099636288874593
Ni 1.4054236046879958 5.259875636757156 10.850122802592287 0.3734797307599697 0.8747371179882613 -0.6921885364266466
Ni 5.552579879084694 7.13622503623925 12.385371297791135 -1.4480830956526867 -0.01570635499166327 -0.07758972276002121
Ni 6.005254013940151 0.6262489777119495 6.371897168466677 0.6825636117423729 -0.07780389565335633 -1.1237931963538066
Ni 1.1422352178457749 0.9721183914432868 10.962242758753229 -0.021070447517054034 1.0896335197529623 -0.546440411522833
Ni 2.700375672075539 8.840607717042083 6.91373336369774 0.07917712185179913 -0.6871432606932553 0.28161884279291494
Ni 0.16182802689899461 6.778069407267733 8.360653165833785 0.45155359224526104 1.4981399030997617 0.5887556273512764
Ni 8.8825233455113 7.3045286018952 3.807246810634285 -0.446952860248456 -1.5296469725691075 1.3700534571417695
Ni 8.77713443303069 1.3905054140005684 7.510951853699963 -1.0790218056753869 1.190276781898337 -0.8337447347362995
Ni 7.7300038255525845 1.4419269245652742 12.09668736590668 -0.02638440353079972 0.9998351707418911 -1.228272030195188
Ni -0.005013024912398896 3.484336208476539 11.478397503926125 2.2948185862216994 -0.45457283868755904 0.4709826475041502
Ni 4.218239758814017 1.627850256263342 7.323664913288967 -1.297933499247068 -0.4983618108480515 -0.47355297933448764
Ni 2.9578770138490724 7.89153971599797 11.167423285894833 -0.7016609946934561 0.19384678018325324 0.6965900079284519
Ni 4.402935934249276 3.6836941538875942 12.145288248643437 -0.6553479705595294 0.8857542950343713 0.3621139121251893
Ni 7.255277509496804 6.173420211357727 7.9200939938146675 -2.056281147999291 -0.29324562839856594 0.1513814119301909
Ni 5.903619833308433 2.7102020800605664 0.3102626505565143 -0.14825572181701563 -0.30650532162194954 0.9882788333628594
Ni 1.7386423194533343 7.600694523829763 1.750053041120943 -0.8279211860759871 0.04279164124422954 0.6588325866740202
Ni 2.884613953382885 6.9527834907144745 4.139693515899961 -0.7887123770870094 0.7055361613781461 0.32878753005891764
Ni 2.160646705621134 4.831726311392757 3.9838107863577976 -0.27843324597608177 -0.9333734395742312 -0.21852705653875268
Ni 3.7574425821293707 8.996804561955996 4.748064475281649 0.6505155821678925 0.004515885592482545 0.7456669679607609
Ni 5.836373501683031 8.976199326199879 10.579720751658911 1.4113060360336533 1.1403523862640683 -1.6160198408383974
Ni 8.69660917169579 7.082303423736136 0.7328970990443232 -1.5971304601330623 0.0060832300796024264 -0.11697439520523081
Ni 5.45150432928903 8.447707081644477 0.942801262009486 0.6995758300296533 -0.2575759429110983 0.7152703579467746
Ni 1.2140696486328717 3.6734556411874446 5.722457684752411 0.4646561910654901 0.5868890064561828 0.9578182028801568
Ni 1.342371583274283 8.950822833630903 4.203682388699385 0.5544506834218192 -0.499334716284282 0.5931375584690559
P 0.3408243362299845 8.274897837769856 6.5260105950985805 0.1346103631194391 0.44231484725581244 -0.17443829374965442
Ni 6.026143144055573 5.381153475476372 11.058908788097083 0.09287930192924003 -1.7431184689618238 -0.9284410352696204
P 3.4046992617497933 1.145348897915588 11.510190924803682 -0.3676973197502377 0.041616904209838 0.27359468693685784
Ni 4.4068280343365425 4.624410166038562 0.9639092655180506 0.4028558699292417 -1.057411940715095 -1.1088093213504646
P 2.8065338466910448 5.555977453513814 6.26261798747531 -0.10955830524681777 -0.3310141053965912 -0.24738948929639976
P 8.177338914876568 4.636974780908513 0.482412526886939 -0.9885290017004523 1.5454322604278223 0.40289777891077067
P 6.68027237942793 5.325665865055794 6.072892302939048 -0.3318959937809123 -0.20331666734690146 -0.9824930799190177
Ni 3.6541050353418125 1.927679331221215 1.2503431056579373 0.18916660109876454 1.4170915323671789 -1.2745552295324438
