# total energy = -340856.7158468481 ev
CRYSTAL
PRIMVEC
9.44773773913153 0.00000000000000 0.00000000000000

0.00000000000000 9.44773773913153 0.00000000000000

0.00000000000000 0.00000000000000 13.82771917318042

PRIMCOORD
 96 1
Ni 8.54758567352194 9.055703907161803 8.93052138148912 -0.15437211912739865 -0.13632091805264263 -0.35005055320275197
Ni 8.961727259398318 4.518031030151712 8.85794008071721 -1.320867225225106 -0.8421668973617238 0.3788060280688896
Ni 3.6475070227549895 0.2714665736917738 4.06984357638748 -0.8344744138134725 3.3082435798328835 -0.34368450177540805
Ni 5.513132908002772 3.3883839184814315 3.1921978642472046 -0.39177338686283497 0.892951841224075 -0.07278433095157788
Ni 3.683994186086906 0.8967660438728314 10.854745915584619 0.44341707918105566 -0.1803844840307603 0.28363561611262766
Ni 5.0532264802880205 1.468490227387317 1.951091066039304 -0.5835041491443499 -0.8006464095204341 -0.47001128472981635
Ni 0.10790828190363039 5.120267627621858 6.8350688820703 1.4115065820802337 -0.7467398893099655 -1.6819267279438515
Ni 2.234276613681598 1.2223199716192115 6.147417176818903 1.1805816660977604 -0.1378185856440917 0.3817316863561168
Ni 2.7181897431121462 3.4610653652738796 5.300179008744857 -0.6483540557401994 0.5210083446029737 0.011199725370561358
Ni 6.563844170465864 0.3161477600060239 7.083290241711881 0.03728768070686482 0.33465118792854626 -0.004859384974830341
Ni 5.225761067747229 3.6513900429852892 8.356892534036852 -1.6744784991959227 0.5367391250746691 -1.9017871585820472
Ni 9.460870142140893 1.2257400526979672 6.835166193769503 -1.7480169347047056 0.3051693764193454 -1.5463763695086463
Ni 9.225857664698783 1.483209802858867 10.41483090102635 -1.482230430958357 0.6316161741602284 1.605919519179602
Ni 6.372121227562035 9.083338540187658 2.6800331645133344 1.158023064070954 0.17864204741835685 0.29225523946083865
Ni 8.82430046555418 6.654995944631151 5.025228109357379 -1.1607057531094398 -0.23128384198378876 1.0396219637215258
Ni 3.3526147832212976 3.571537763212798 1.1106684960045234 0.9782157926999023 -0.24049121951466967 -0.9517707111344963
Ni 9.50565241924946 3.3747697283309157 5.399876261738139 0.7248831984461903 -0.9877520143251117 -1.0608446205457278
Ni 2.446690102338119 9.037072968246592 12.656926462500152 -1.434013247823182 1.1353060820894125 -0.5575447489661107
Ni 2.3342336794640115 4.654220170345804 12.10391446844584 2.1489578469994215 0.45016416809690213 2.665210936305597
Ni 5.066746193060669 3.1296198282437646 5.4132892150737995 0.06901046573144244 3.4820223856216677 0.641344971412218
Ni 2.5783065374434875 4.603051222493483 3.0117744157361703 -1.3031075872488398 -2.333503147276091 0.8282063214165736
Ni 3.364641753423662 0.48193288359047304 8.360488343038439 0.987174287444771 -0.6148955189714378 -0.5055801829733615
Ni 5.099218067833274 6.564382691519702 0.6788246838373603 -0.8288732655766112 -2.5649183726314213 -0.5125383594587496
Ni 6.0918729815976 3.0621724281851024 0.4195844276152482 -0.3296673615607097 -0.3824680503015091 -0.2625906225168704
P 9.37256213704938 3.088663884938778 12.13360209489273 -2.114195760927888 0.9554887834160318 0.3207060386023638
P 1.230095459817598 8.43952244871861 0.7491498648258264 0.9632571145075411 -0.1393494204663213 1.0461096283283984
P 8.357969576144527 5.693943713763059 0.7208822333682667 1.5766220557670654 -0.646037491791881 1.1571182928684975
P 5.8839093774385764 0.45121167462972894 10.978628432537864 0.5805242405804196 1.1884482133300305 1.7194740900700065
P 5.236323638592666 5.571151465750391 3.1263225677562354 -1.4968252980533965 1.914345197752716 1.8792563244693827
P 0.8968935883329507 5.40873540546065 4.489721828647891 1.4244783117495532 -2.0444885262397374 0.24152685986803565
P 2.5039433933250215 7.95952068273172 3.9228547271295056 -1.2326045961322707 -0.4993470575794562 -0.2728796631477043
P 6.6946669955971565 8.519233012424301 5.117085629535325 0.250193277293782 0.3223086072027933 -1.6187647505733864
Ni 0.7963904433064711 6.6530119196959605 2.6331015270583116 -0.6375024577376763 1.401304187625935 1.2854585067085087
Ni 0.06536889774560645 1.5967905065295827 1.854974505667151 -1.201425342315989 0.48468842712601695 -0.18705829650651012
Ni 0.9862776907583601 4.697065661208113 10.505484779410281 -0.544608757630733 -1.031102613396605 -0.8573718872369364
Ni 2.8945128734237886 7.777528909748107 10.605072438645236 -0.506744892705424 0.8619826465360703 1.813352265577406
Ni 1.642253020758786 6.777051269096461 13.229836337106857 0.4512149779589197 -0.09224423944840242 0.310575120815949
Ni 7.58178123054718 6.632585910601294 3.115288554795245 -0.30396841413270875 0.9814258149967678 -0.9530647473555716
Ni 8.514802023402376 8.350241326635073 1.186809704374431 -1.330270777927193 -0.5973631665146293 -0.09802433646528924
Ni 9.083914852192642 5.824832673058857 12.109431947313226 1.0957509455046095 -0.6751662908370373 1.5409557127137077
Ni 0.2834727588710073 9.056147950837772 2.9544578249060978 1.3165040631604035 -0.9690063582864926 0.9667036782952447
Ni 3.041085077445372 6.40344992606246 1.8007152027848279 0.12406292662089603 0.7500751243307856 -0.11545770145038826
Ni 6.412548097550972 4.50239502411486 10.065183352376538 0.07733209822326036 -0.27099015943447524 0.43636660009217754
Ni 7.433971372875549 2.0966419696061545 2.897418997566952 1.4679826627900912 0.46324491254026023 -1.8613380494280654
Ni 6.92193232805424 5.200913517368424 7.3499998794280925 0.7370416881855951 -0.3204167894967191 0.5820296214813524
Ni 4.669336550804391 6.321405771123473 11.104267283945639 0.9871028107768871 -0.6804969590213312 -1.0628775918153566
Ni 6.576277393393053 4.955659692165621 1.7957371897450594 1.8717821275795248 -1.1278995052126963 -1.8969599123967331
Ni 5.2972520995785635 0.8193871818528767 13.297895950574093 -0.22092435312633568 0.7590482743636734 0.905548446942163
Ni 7.492396183347991 4.729395819913918 4.574652267480689 -0.7171765738305519 -1.4397300957023011 0.9006448389929586
Ni 1.7557675902649952 2.39012649620964 11.592814528760522 2.003876409145329 -1.217025767857407 -0.20220286545743243
Ni 8.947234429633646 4.220162753215235 3.0144424568871107 1.324010655950094 -0.018487774391542353 0.14642381081459943
Ni 8.535152450594751 3.4987429435669104 0.908746720160041 -1.1707428256304677 -0.07087143019958117 -1.341760523734347
Ni 5.580032339269811 1.5397639612495595 9.02923795930015 0.4415977665841298 -0.766401629404951 0.6451365772441664
Ni 8.664378608040106 6.7688695281732505 7.892751630246138 -0.8506014012823223 2.071046222123608 -0.16822342318819417
Ni 5.328023381549576 2.885055687899384 11.773721701446233 -0.50800036237908 0.38769767413156453 -0.37770996679123336
Ni 2.2354008944782056 6.536322910293448 6.928558026563995 0.9812967456180712 0.2674518072639136 -0.015714325411463257
P 6.0222620495858035 8.329786974327046 0.6828295798851075 0.4553667953437641 2.23046078877092 -0.5958007071235157
P 1.2205437969153274 3.069248783787279 7.5697911065221835 0.0001871763101416131 0.3042178111393535 -0.4840749619117341
P 3.640619621908545 4.527677170431849 10.3670281821474 -0.111760197994143 -1.2435582669302971 -0.7013000118096114
P 8.916293088382474 1.1932303869742162 4.370513107577688 -2.9476216788721876 -0.08492739407201502 0.9364191683790906
P 3.5352678978499736 2.474967181533465 3.1485578186370398 -1.0705191675210144 0.5252912882490437 1.0919824796011128
P 7.104972799932168 6.263717884198386 10.902092308728475 -0.731538756089495 0.559620657658533 1.4462133894337996
P 0.839396545711154 8.546187408329521 10.879027546470006 -0.34652325677578383 0.6703603848079617 0.2327789384720765
P 5.02764200636186 5.0280104681355375 12.771088202044746 0.4755648675581939 -1.2092895755554143 1.2638396428871523
Ni 0.07644920462175143 0.42850592640715107 13.507690526316164 0.06488333093694632 1.4805412161813922 -0.5059391089746771
Ni 1.2072413821117702 2.841917317165689 13.942350709117518 -0.009031514074648962 0.01781054581885965 -0.5916072378674585
Ni 4.601841912056796 7.820270475494765 3.546214991623327 1.664634002301675 -2.5038731844936426 -0.9460204389142804
Ni -0.004580263278952162 8.681545147598388 5.424918435515346 0.42222321871226 1.523581225991002 -0.5137578336881474
Ni 2.299560481787125 1.2768334186479944 1.7848685121953345 1.3173982928398988 -1.2103660964490446 -0.996633890195774
Ni 8.273998082697071 9.03001550811999 11.73724493062588 -0.2430037015238783 -1.6304393586978372 -1.0811007996916027
Ni 7.3978526713173105 2.9828586694664487 6.488034577692266 -0.14033929518341637 -0.7022369218015843 0.5226636208182096
Ni 1.0623414276784175 4.961403916739885 1.2512206015084746 -0.08607539163352917 -0.44941083487064537 -2.270968261966663
Ni 1.2895122827576353 1.6980041214376158 3.8934014045797256 3.3533160466914893 1.2755708152811516 0.19154024353726368
Ni 3.390547450434567 5.978216696024592 4.501227283724434 0.05422302300962275 0.6640462696644758 2.0321765416416038
Ni 2.717528401467083 2.600688228259984 9.353180102980133 0.8882999442743605 1.6440554068193751 -0.14220103098250347
Ni 6.195429635476715 1.4719292039416458 4.5412582935001105 -0.2735466073077418 -2.649548290067676 1.488252983003353
Ni 1.4581544022487576 6.5673114902335525 9.241811114725264 0.4717452367017876 -0.03035932901814771 -1.5439327930641604
Ni 4.716310703079453 8.314585564228379 12.245537947414794 0.5737722665685666 -0.439122822681076 -0.07132471568691587
Ni 7.431656677117827 7.013877712193603 13.298974882229325 -1.7701083672871065 0.8066550776083592 -1.5645396706812347
Ni 1.06892650091569 1.0854411465666973 8.773867496475438 1.8488666564339322 -1.2093371409638978 -0.28402385268998176
Ni 8.929227041412354 6.938626480723194 10.201483031102732 -0.2503737687357043 0.7984602005023925 -0.5464548097005363
Ni 4.613330361205323 8.5157751403944 5.903067500122279 0.10885510853220608 -0.14469705793147986 0.7523351240095559
Ni 5.621281162446183 8.337553014787646 9.600391499452323 0.2189014091590359 -0.21771227394694118 -0.3820211925720775
Ni 7.342413345985439 4.358156411326571 12.549222251732713 -0.9493199356011585 -0.39382229897206367 -0.3236985455717844
Ni 3.5703001095627513 8.446154760644815 0.7248323325368515 0.47801924263595735 0.8487396654832351 0.44392152962130005
Ni 5.018515491659987 6.2749323489511015 8.443565135717503 0.36741681239534135 -2.0235466338807475 -0.5406662280432172
Ni 5.8153188011077335 5.875538681759633 5.499394952487253 -2.192957906729456 1.5033199046388046 -0.27472545810719134
Ni 7.492717406432737 1.6785701248105436 12.284352088563557 -0.2837155774209436 0.902475207333478 0.27457402013099164
P 8.030350372917992 1.7577327197246115 8.41101484472127 -1.0017339304265005 0.2966140306501666 0.24489474789900403
P 3.624898586231614 7.722788717012445 8.715528660416853 -1.6499925982394164 1.3298812557982582 -1.7322187913301843
P 7.364379336339325 1.1753458193441495 0.7259150432871978 0.5466391577972005 0.5165068571881943 0.2361296001118643
P 6.336654419911073 7.532549068941116 7.23146856115719 0.8170721591766251 -0.7192049171144904 0.9100856726908843
P 4.041553270359232 4.862542788540718 6.740100221839222 0.009971252280098956 0.4415897961643298 -0.8623346305588505
P 3.086415323345563 1.8151371745160993 13.555769119138484 0.8712360468135383 -0.7417858877387998 -1.0046752724430117
P 4.6137555094057205 1.815278890582899 6.8210200959816 -0.5832048727363763 -2.786044814466234 2.212345567227448
P 0.8380313476009876 8.325705551603228 7.323505588353082 -0.4508838198717461 0.2702275702368378 0.9063069223747423
