# total energy = -340856.9739700898 ev
CRYSTAL
PRIMVEC
9.42830272907856 0.00000000000000 0.00000000000000

0.00000000000000 9.42830272907856 0.00000000000000

0.00000000000000 0.00000000000000 13.79927407144543

PRIMCOORD
 96 1
Ni 2.539569900791535 1.0608820475763092 7.499146567404871 0.8440000939157207 2.1377498940987443 0.46132764091288936
Ni 5.325114790600394 1.4488001336711684 9.866481177389186 -0.08172045709894313 -3.1596662130103907 -2.138872694849278
Ni 6.4981559270398295 6.87938934652373 11.47968545364887 -0.3257898808831744 1.1366078316199715 -2.4434872272064174
Ni 5.439244394726836 -0.20840885975822543 7.452118193560784 0.319618719075456 0.8449724851313191 -1.5379917449893772
Ni 9.01269368417538 2.5965168490710644 6.634152593607448 -0.06307430275266557 0.11016431426193284 -0.911166564459889
Ni 6.632773232923127 5.332808285599748 2.702049726799943 0.5138825321914698 -0.9558808766481278 0.3109448454505419
Ni 2.299251893391383 3.204001248333751 6.347873496228313 0.48935935023912497 -0.18791421674890216 -0.5656576078812322
Ni 7.698529712992899 1.1000189320644425 1.2247384057782287 -0.5866244399408864 -1.0042297002651608 3.021145973313584
Ni 2.981568731146557 4.169864861346965 8.435344025987368 2.3972094271858 1.104215788442511 1.4500762148233157
Ni 1.8942120096018837 7.484460100296424 10.138892184333823 -2.117458747949876 0.4044967479667743 -0.16278811110523575
Ni 0.1831683506126745 0.0943245114847222 8.058251517047236 -0.8684327730367882 0.8427502806690195 -0.14939497762778142
Ni 8.665062735497479 7.070774462935347 12.30599981563888 0.7535054901685733 1.218413135123237 0.9154934739700169
Ni 8.626623545408796 8.350185710383002 10.36956126675562 2.0345278154825994 0.6845505602654146 2.080255142316385
Ni 6.7662497141802955 3.0056014747168414 10.53967896077748 2.5329598174469536 1.1801900870862965 0.14416381113582916
Ni 2.0423117883394406 4.769853759966899 4.5615570970107475 0.3913977486909711 1.0188235389189357 -0.5534078439796017
Ni 7.265393487171447 0.6117459920809559 11.105407293063282 -0.07022659752673066 0.39794429156023725 -0.10664395981350022
Ni 1.3510663479318308 2.874595208765838 8.49062405035037 -2.7671857727782023 -1.484090109874915 1.1147791657806545
Ni 2.3712181278645033 9.171683152525993 1.6701813951078384 -0.5210301989798446 2.17243279019291 1.1678117680266016
Ni 0.5496115916584802 3.8926256205920713 2.9094799287383974 -1.8496367018307374 0.28321781184891864 -1.2661202113912131
Ni 3.183551259787675 2.6921858365201343 12.950728839038758 0.5832575803511826 0.8609092109662335 0.4357127685582626
Ni 5.291370895253965 0.6352865782505468 3.0444375963489954 0.7302120668582714 2.06820823845418 1.032428788407196
Ni 3.2083005543628014 0.26766762785863885 12.832910882897922 0.6470201674201244 -1.5717001929854157 0.7478639756120797
Ni 4.00205992997626 8.009371424553793 11.057261665349802 0.899288067854748 1.3595924097094454 -1.746792061158669
Ni 6.87130929111387 5.202179151756556 13.175380778680424 -0.18372923213327713 0.192780543702268 0.8159174767468916
P 1.5154959469376237 3.7936001573834797 0.006440473571150068 -0.6930881654227805 0.6423536151823904 -0.327308631520546
P 5.118418110611633 3.9815156584032305 12.767695313154626 -0.3942439598905146 -0.12620105600982137 0.11335659594698541
P 5.948919581828622 2.9936935284126953 3.0586366202080963 1.2777544531960319 -0.5246935067640448 0.9727750813003053
P 8.29122110532668 4.7561921493614285 6.094794281130091 -0.9195997828289065 -0.040230051164640394 1.0988306128711978
P 4.646625843739507 2.3150443004059875 6.93279690997145 -1.368834497133004 -0.25234503352946214 0.1453467757003368
P 8.493797617037602 7.664616108197955 6.441694536349108 0.1465953033954572 0.4737833501777389 -0.32275957869728283
P 1.9627086286831386 8.429788870039305 7.756351607762552 0.19830712994745203 -1.9098383110212982 1.8678905058346025
P 3.3569094614459036 1.6661885089163846 10.677036131424028 -2.9099028241651754 -2.885135901633141 0.04351360701191861
Ni 9.235522190075775 2.7708933074203848 10.515488764552185 -0.5171756011204448 0.8684960221745559 -0.23033613335853878
Ni 4.972128565991571 4.56735267467754 1.009513826001581 -0.8056775441864383 2.149452270137337 -0.06865976726024305
Ni 6.324854295197772 7.689261691443433 3.368209282226205 0.19067481021317484 0.6600880563476761 -0.7808062348660553
Ni 5.383457127678826 2.3950811619862726 1.1676556899398876 1.7272161959092707 -0.47474108610531784 -1.146870132777928
Ni 1.0940131032475453 4.928022965983022 10.26223041170275 1.5048589669911503 -1.0868315315277928 0.26996146105964475
Ni 8.20935515302351 6.376474252454464 4.545977769637056 -0.18359347788636124 -0.2221155452209594 0.45701358691856775
Ni 3.4046543862948337 1.4748128208074633 4.886309326368266 0.40671843820844145 -0.40979090648617816 -0.0640315244596123
Ni 3.6313390679976023 6.653845489447092 9.04361663135538 -0.5582484599013547 -0.9880710882274274 0.9543721533130853
Ni 7.7162266371519515 7.9344729879424385 8.536920787905302 -1.1959782031584887 -0.7498264986550892 -3.211787102075346
Ni 8.050497680910633 5.3116606026542215 11.107615401554519 0.8010894105951236 -2.326370135775736 -1.1238243067020581
Ni 5.46573792530059 3.420918208444203 8.62331798248383 0.15377022387734163 -1.5107398512519594 -0.8393350843398834
Ni 6.350725557793638 4.0391603010822115 4.856295267568092 0.34220534612672027 3.1060484276849345 -0.005159689824068534
Ni 5.492335167203992 6.990699888144281 8.033688902865476 1.4142859445975835 -0.21116881640146862 0.06960387634106723
Ni 8.277455783391563 3.3515447572122863 0.8179863422192656 -0.5473130439357736 1.649677638102159 0.7759039124684315
Ni 6.189850428903968 2.005786543697902 5.464457561794569 -0.6411865914574828 -2.7917161538193986 0.21484703658400414
Ni 2.8092570710875044 5.892387478867684 7.043977341014805 1.0026893523612344 1.0999953226032606 -2.1534747610331686
Ni 8.821421707396107 0.04776943843593754 12.91113939602125 0.21703735936710364 0.31554172079260495 -1.190444160714137
Ni 0.7335323208262385 8.029397139478581 0.41214316704012793 0.6658869224176402 -0.8122927355101108 -0.4134899526043202
Ni 5.776994482180076 4.925185046871741 7.05112588011837 -0.5286936290623734 1.037335481680194 -2.181211821937121
Ni 4.050973964359405 5.693092016494723 11.542872052652141 0.037472543024161274 -1.0361921121043702 -0.23967360870938076
Ni 7.720356233732487 8.022486193602937 0.6145744828895419 -0.5003891256907254 -2.1035809615265193 1.8498562740407112
Ni 2.0349011424209458 5.837109340165221 13.150873791484566 1.2948036953688344 0.31449836712975515 0.15010588765187696
Ni 7.75781488034086 5.266649885586924 8.510992012662996 -0.6639526815094049 -0.36112917961441676 -0.11713766025597246
Ni 2.2789244727803455 5.003939659285467 2.0428718295195405 0.7412765522025492 0.8780145031879523 -1.7191565588295876
P 8.628999477688009 5.699361837787089 2.118809265087916 1.5884452736542385 -0.3298583945255932 -0.3714382748499087
P 0.7035833173146616 3.0072514276885167 4.774314289972039 0.1882003805307533 -1.088293717895616 0.9453025869116495
P 8.021694216176533 3.371768466493675 12.286114582424254 1.62666626480865 2.2207605307640206 -0.03574681858230618
P 8.996938990371556 9.166195880357336 2.0049379964553258 2.2603997424221975 -0.42918473763175763 0.4593612612151379
P 5.260059502002919 5.136935297105176 9.732793502151644 -0.06277451212405963 2.2623661221199485 -0.0699507181575247
P 2.3030232144694973 7.7921810436651775 12.297871675885276 -0.7076750620980199 -0.5084014544722405 0.9721500461217967
P 6.5754774374438725 8.999541201915456 13.048400397980307 -1.2633521617277728 1.169619767769618 -1.9654031927707956
P 8.100533683314517 3.0104381939995237 8.48106186575681 1.4115878289401302 2.6370750973013295 2.244718841351831
Ni 1.0548196489432402 0.8181390807229292 5.79014790727027 -1.4266843182619364 1.5670405827262173 0.26760504501232624
Ni 7.805342954227798 0.31954120645783446 6.108649171940814 0.09214936574175098 -0.7651428172971855 0.08607462030258078
Ni 4.969064367615602 7.4145020942974 12.917858947352181 -0.30661253662377513 0.1795712441008456 3.783008062976969
Ni 1.146660745498024 7.133859236269507 5.447649726579683 -0.3933271045032 0.5467813398020196 1.8651391683417102
Ni 6.9730689621040955 1.4491961223843706 8.16721063997558 -0.47822981598486675 -1.8309021015357112 -0.865507114749561
Ni 3.7479388874302075 9.269794070373141 9.027250040706631 -0.6880146075546151 -0.9504599627428728 0.8273491156226009
Ni 5.1002874845285975 8.855052463110193 1.1403004124997838 0.584090103554807 -0.355785141693684 -0.9339010299429271
Ni 2.2207707017558196 2.5574176777937123 1.4966553696616332 1.5659396363525546 -0.38976201285976103 1.5655639981806908
Ni 9.34784156008472 5.2448799346635075 13.517188807613715 -1.3900980344974705 -0.49142703140143107 0.8329492354181978
Ni 1.4852310952857548 1.3439291227914991 11.894960702844372 -1.1680614221435626 0.5428686350111748 -0.6292538445756389
Ni 0.8930714592239865 1.509414691699164 3.142218523601809 -0.33280873540316874 -1.8052394066622848 0.5002916808809126
Ni 3.860512821611926 8.25512013430643 3.517862845247945 -1.525734781998895 0.688180443708518 0.7528827689829097
Ni 0.44316134007735025 1.7916320762771687 0.3805083830066338 0.15743867386786434 -0.6609048958220166 -0.3006812587410047
Ni 8.018743157432906 2.285920273380248 3.687276245058466 -0.36992440930854353 0.41307369100250796 0.03422755372430234
Ni 5.445429361294943 7.009198218032433 5.47215765660581 -0.3877197856187516 -0.39010602646274106 0.4413856505733237
Ni 5.132249430665618 1.4819029044343188 12.120095371584036 0.3099428865485888 -1.2542442858892335 1.9749237306667211
Ni 4.341563681730824 6.066141669239117 2.9709835757105587 -0.4697423473391458 -0.8717965473026985 0.8577999759132905
Ni 0.656224010045969 5.505685643820518 7.663316888086545 -0.9381415503868358 -0.4622799775238296 -0.00946011697163532
Ni 0.8923200234991722 6.660237878674495 3.262410526361319 0.037169667071761794 0.3052351966602743 -1.6741519690944393
Ni 3.2255732049005656 8.743600496949213 6.19348692525354 1.4451510096075564 -1.366835207314788 -2.4262796050788795
Ni 7.0760354558393175 1.8597609915533075 13.20753317653189 -1.0618298672771327 0.07866932897744515 -1.7175416489339839
Ni 3.1459606169415686 7.220609049368837 1.1358540249486868 0.6718153720869333 -1.7652566956217601 -0.5816555259713853
Ni 3.8464552222932546 3.509280261304426 2.9394657026304865 0.43150798644829563 0.07316074045439012 1.329938591398755
Ni 4.547864373006383 3.2347186585149936 10.82630313403526 -1.1557154989837 5.395121112561792 0.5437885757222829
P 0.3512306746469613 0.768062536617455 10.186692736168656 -0.5395308288871933 -0.6636698601616635 -0.06964732798449295
P 4.000815394020482 5.167926128064582 5.291276612227012 1.3021429093427253 0.40570465223194646 0.09847556507009492
P 9.349265233791709 6.448563054862623 9.65103314683866 -0.9115617430157783 0.3148894319205867 -0.7021273928069134
P 6.00864787940326 8.808259796833486 9.722664676566097 -0.32681395127231455 -1.0789433870289677 -0.2011469133890923
P 3.8104013927864795 1.192868857007622 0.9336951870471666 -1.9669324849311287 -1.122486561727241 -0.0775239025190923
P 5.367975854653166 9.239708356472484 5.081416736683982 -0.1664501333378553 -0.3100238762981693 0.08000244596657188
P 5.791353787184997 6.7443289104137545 1.2951527416277049 -1.0181913046515754 -0.16348590850320877 -0.24565296622126723
P 1.584265986797042 9.002520545567165 4.341307231897511 1.9871848074222611 -1.7724408720750249 -2.5493770824627124
