# total energy = -340859.50538390526 ev
CRYSTAL
PRIMVEC
9.40099103374563 0.00000000000000 0.00000000000000

0.00000000000000 9.40099103374563 0.00000000000000

0.00000000000000 0.00000000000000 13.75930064462602

PRIMCOORD
 96 1
Ni 0.503573473257548 9.060374102499356 2.787427616125279 -0.4696325612341589 -0.15599679921501522 1.390279297270341
Ni 0.7741668919841401 8.499210159593602 6.843050771531779 -1.9710737607930118 -0.19514364461780587 -0.09945541248486098
Ni 5.431008791803103 6.047224936840734 9.529746771222106 -0.8931099640684942 -2.090400458280503 -0.7707318813491888
Ni 6.010307245964387 2.4661149119270855 5.796477009695494 -0.4710081014254469 0.3252797740159753 0.8223051254407902
Ni 6.022208900318717 6.7000579410490735 3.255698488726128 -1.0670260667660916 0.42880087192977767 -1.2688129277320277
Ni 3.5984642539326797 1.387511034332002 5.535861802605305 0.12197467663329961 1.1688816040520127 -1.3904993837009474
Ni 6.550065132815788 2.603717214284378 0.6025706068896767 -0.7831233130350062 0.7461446789281279 0.34628877216747456
Ni 0.49770443470035336 8.255179240375826 11.46083625506712 1.386226467357206 0.9912625985815317 0.022446244818658114
Ni 6.408805845036825 4.457602001273545 4.548769989766427 0.5356965427427678 1.1359573425201663 0.803021851731146
Ni 8.524818458536096 4.051939847210586 12.293618324696798 0.21086388356654007 -0.6355545899826861 -1.1357357134276633
Ni 1.0905243339310164 4.359775290996167 0.377665063357879 0.5865233955866479 -1.7412482485223044 0.39848422322410726
Ni 8.018133257323347 8.10083377340158 12.61196689649537 -0.9075521076357531 -0.11139175891113073 -1.3839142742842616
Ni 7.638248620037303 5.850593813242651 8.451705072876935 -1.7434444848426747 0.43758247477714957 -0.8706459786380232
Ni 8.977833403264743 2.5319218475355467 6.785743271706691 3.1246539586012636 0.06275779995351126 -1.5175327058040766
Ni 8.577059764418411 0.8566474248776251 8.284254624725804 -1.2559273300186111 -0.1780668916411772 0.26037741691563543
Ni 8.391484206002552 1.8459127467897418 2.630118016751413 -2.1100444577636757 -1.087186086653734 0.3475203305817305
Ni 8.954406134188131 6.5136268924703025 6.44143010341426 -0.17099018730005391 -0.8217060584042106 -0.44832788621911174
Ni 7.169073372121378 4.890244998935973 2.3072973936287053 0.14712880730142402 -1.72831868494483 0.048224639334342755
Ni 4.471214635953696 5.933350735265692 1.2331524059706351 1.0302412938375742 -0.44026387826405466 0.5354970251374519
Ni 3.6975506969774203 2.2291817407642216 11.40451961967248 -1.4514293864171004 1.6347791237237717 -0.08842229459915095
Ni 6.456421863444947 0.6260505215147757 4.597257480021821 0.15064119133005668 -1.1864383819888535 -1.3137972057522018
Ni 7.253456665553028 2.017574838819814 12.018212538779066 -1.502643190286754 0.3380949235027726 0.2627963107697732
Ni 4.115734970787589 6.793381576732673 11.421966918500443 0.7117410046372774 1.0943898034910247 0.04562859647239238
Ni 5.269039121289077 3.8320412713795124 9.002503483325276 -0.845384375857757 -0.865407098836587 0.6612725635740806
P 8.737901316036293 5.446981075174356 1.0226585813370903 0.7729070346236366 0.8244998190992641 -0.8733042421964766
P 1.1487634719445046 2.3108857518175268 8.71991534043542 -0.19028066009854974 -0.2740819109859215 -0.0971290783445295
P 7.558791445785487 0.2533604624888963 10.717421884191895 0.3280946177569511 -0.11592435667416164 -0.3102401060740334
P 1.8819373435399738 2.6549244111785626 12.729320404765938 0.15076768960559198 -1.185373945280081 2.0623615498654155
P 9.001251271350554 3.746501656079314 3.3628688437608276 -0.768412746297709 1.5666477181631728 -0.26618553895698027
P 2.0110035462497686 8.864448053211364 1.2647641776387795 1.0472113460330095 -2.4885751206839912 -1.50045980948219
P 6.251856303610644 2.647798460151246 3.4878587768592184 -0.07595758647323693 -0.9155490097983007 -0.3654707444125641
P 4.621179241214578 8.989076988262989 3.820256189311117 0.14265020270478013 0.40915687244660504 0.5659543131860446
Ni -0.12521743707578006 8.412533024406459 0.6648399496596431 0.6403985483385487 0.40809243573783266 -0.25468293763401945
Ni 7.029299440889006 7.3580990941612825 0.7956105520016972 0.4538516442508184 -0.6241561183377573 1.749925207471012
Ni 5.878279731152212 8.025005381599032 10.04307847293131 1.112497311725013 3.657856531277584 0.31698230989387344
Ni 3.518819059864839 7.204505706451134 3.5826057225501207 -0.8453607217086732 -0.6538166215166675 -0.4226479649545044
Ni 7.318699541713416 7.727642641565997 4.875553130511844 1.1912458306798257 1.3444306143673426 1.1351153062348451
Ni 2.81644283413413 8.411508316409126 12.944117062889196 -0.3743703608950391 1.0999140757433639 -0.158595670290443
Ni 1.3293377032541223 3.614774972972777 11.016410995633537 1.19258177588243 1.879228813665557 0.06945552368866104
Ni 3.7591459887069396 5.362973821374755 7.637209810553769 0.9368243742373091 0.37385819714531093 -0.7483859095538209
Ni 3.7210155700172374 8.404194345565786 9.028178529302457 -0.5633130189084558 -0.815434366462886 -0.2759655011618795
Ni 9.023672634411437 0.40232480232852974 4.998437241670763 0.5382468199684473 0.5071938073173845 -0.26441687709233175
Ni 9.213328222835022 4.637414752328265 9.424184925713492 0.14928082064742032 -0.8279145012077677 0.9326141928107036
Ni 5.509460060039189 3.833564231889308 11.835860580108939 0.8667816105866105 0.32790795566744174 -1.5244937105029424
Ni 6.846130536118254 4.844010926175629 13.604797074119302 0.6318550296439117 -0.5896650265394232 1.018494180603975
Ni 1.627809760201699 6.220259573527782 10.298767560841664 0.9347741765764999 -0.28136661757279285 -0.24201819768215738
Ni 0.5545061612203368 5.864667096472061 12.647438714986489 -0.4993141474589917 2.205823449838214 -0.9679192958699008
Ni 4.227531553395563 1.143376704215412 13.401173493563283 0.16908937073291522 -0.569438157969587 0.21849337508733985
Ni 3.995590308348141 3.7847260846770285 13.42909067584655 -1.6869588910511206 -0.19529096882894753 1.8629976965186752
Ni 1.7226563563950938 6.634401421293432 1.3965829904551683 -1.1677564893086338 0.3003377593586569 1.3006683816797278
Ni 6.3739375701551415 0.33387618830492877 0.9895877758965982 -0.38414800910709324 -0.5499106294596207 -0.16356664114247316
Ni 5.979791629823664 9.190126577537638 12.350664476977611 -1.1808359482004116 -0.2030821827385922 -0.6016227131219317
Ni 1.7008742607086933 0.9439910903125756 11.118106213625612 1.0578929941165718 -0.029067863900233814 0.38013811661675173
Ni 5.49453128664687 6.512320154748934 5.466005860258763 -1.2105213910799861 0.04225145247004337 1.5354350400057943
Ni 2.947671264728203 7.603746983796867 6.690239546256291 -1.0679076980400963 -3.7905431950117494 0.06266678290160176
Ni 1.4601524902529421 1.4572851880585735 0.9977168126424034 -0.376645530082461 1.0978934457689091 -1.5606711888647637
P 1.1953171783920904 6.6924901434540995 4.100808077593429 0.29905477888117526 1.0078387577726577 -0.12527828708523586
P 4.002368422715812 2.2528816385740686 1.3871030313312296 -0.3683146416192625 0.6766580448912153 1.3633084251084522
P 1.3078376372917577 1.7926185299376893 5.419017828036161 0.5607588850280343 -0.1429026850352184 -0.6849534521307881
P 7.9871663936241655 4.425507018678218 6.671664128532183 -0.37677537079210593 1.0125233077325209 -0.3692142706153964
P 7.2096856523826 8.60426623179711 2.6204726001893723 0.4487629168740013 0.5087855772845367 1.771767500157084
P 8.258761017871088 1.2464773703322685 0.598061891701417 0.531902108697342 -0.3434538738218407 -0.38823632024385396
P 5.491475964636478 6.991742482638178 7.578223293771585 -0.6213214771024396 0.17920511901067845 0.20365013942692026
P 6.939172142077818 4.2584420111499375 10.257778300849314 1.7357075212097335 -0.15047689783805054 -0.14890055448986614
Ni 6.980386085750316 6.254855219676231 11.386440574262675 -0.8602816046845635 -0.797405276875317 0.4028453284062804
Ni 1.14126148128514 2.262122812531657 3.163029162002293 1.591945573498013 0.21886155706003596 1.5596584313295332
Ni 2.9460354923287926 6.134682354264379 13.324245185836991 -0.06161802992211323 -1.3740273541878532 -1.0089494743383334
Ni 2.7360925657561985 4.37178035624931 2.074984809444635 0.3440506268655752 -0.07725933600379598 0.04059411937227848
Ni 4.499577425200942 8.316210472657273 1.5933682903023907 -0.6433645729454082 0.5455955470240345 -0.3798028447645201
Ni 3.336684264082221 5.357671662562873 5.049690503419874 -0.3785088085434449 -0.009922144209718396 0.7975194338556781
Ni 1.3119176672994826 5.154478647385547 7.630880123447316 -0.5349210980293239 1.581003986884845 0.018967028020806045
Ni 0.9790285830286806 9.303211095885379 9.20841150464599 1.4334429771420087 -0.49094494955868995 0.2564068623036616
Ni 2.1256016241165034 8.771331239325391 4.93175977431411 -0.6673239119744829 0.5791911235912929 -1.0022103558422868
Ni 3.6854610228070657 2.7349926498324573 3.5683782630715712 0.9931593013836123 0.8706074120906039 -0.11558317128465899
Ni 2.8980528352794233 0.5371321901206229 2.8298063425580477 0.7486890426165363 0.6859795794024574 0.22415725824133653
Ni 8.407193261631372 6.848001333287695 2.970660447633479 2.1882404466491283 0.006431100337324408 -0.6778721198039745
Ni 8.350655702952903 8.051102532063187 9.164037887965204 -0.7048730738728506 0.38620026365043164 0.15612201193896985
Ni 9.120822473351128 2.2849766211693954 10.294309611003731 -2.0265795071698 -1.4732999612379465 -0.36681671691749734
Ni -0.12067675851879625 1.470380768244657 12.603367810209503 2.5009940631736347 -0.4798395836741478 -0.03924146199912597
Ni 1.163099982916348 4.600468858479514 4.630540747854421 -1.0254269031680663 -0.17851040693649903 -0.36008299773808955
Ni 2.383386192876449 3.5754412274605194 6.353095573548862 0.9608181660487454 -1.5616875459444202 0.5163268799669043
Ni 7.127699611605259 2.722235505315217 7.869480090279233 -1.2074507225744626 1.2662446527842193 1.584613044392342
Ni 2.129944881866662 0.8728453320281079 7.304316965886647 -0.8738835117387143 0.35374548555583596 -0.22233100366587516
Ni 3.8498843519202066 1.487396561594845 8.579309421517141 -1.6760052202530942 -0.23929591365498787 2.7547750578186747
Ni 5.617543251280686 1.6947448147063051 10.40614473767399 1.135363160579593 -0.4622234132542814 -0.732046548963849
Ni 4.340757086605321 9.078809445460525 6.677773832453888 3.4401735679066823 0.7014416795937983 0.27866155993680397
Ni 2.6990620629902375 3.823796602446852 9.08833452934031 0.35225578838418686 -0.3310601281431782 0.5385522670240079
Ni 5.84816835761594 0.7770868397269954 8.238037473748902 2.565885364530381 -1.3960984750552796 -1.1788078620267892
P 4.541299022376706 4.988146917139761 3.351159909717922 0.001664532186616488 0.11911509569731744 -0.37183731006054027
P 5.767451450596761 6.492258440379155 13.249587217389191 -3.625890777004265 1.3173075328983055 -2.013522416875526
P 4.10944570794158 9.537775217366338 10.81600725442693 -0.3483898776708774 -0.6389134791525899 1.2332262888766696
P 3.368215187229475 4.801245819020929 11.25278198754649 -0.024900362786105502 -0.3988557476309131 -0.0656412921488934
P 1.7191779897986468 7.377935184751832 8.404387065877211 -0.16393919399054346 -0.8998652805144567 0.5872487037884467
P 8.902888704597506 6.595763349100463 10.64288800882267 0.7869671122611286 -1.10572142645376 -0.00834451530995337
P 4.480455809911284 2.8724069323737256 7.29602059150458 0.032925032862794905 1.6917951360974992 -2.432772669002391
P 7.537093959016296 0.1714016845848783 6.522994979803707 -0.7514622344862995 -0.21947656493621556 0.13425143711812362
