# total energy = -340861.123117275 ev
CRYSTAL
PRIMVEC
9.38147933677672 0.00000000000000 0.00000000000000

0.00000000000000 9.38147933677672 0.00000000000000

0.00000000000000 0.00000000000000 13.73074330384000

PRIMCOORD
 96 1
Ni 4.93163738499543 8.641008712244236 7.8787691310777275 1.481554487937255 1.0672348403427878 2.180049940418536
Ni 4.890011760416838 8.362406915284483 3.2414578408460133 1.8222246283663712 -1.0258447074317751 0.3315342395661193
Ni 1.9235504139555164 8.134840366850206 13.780448682793683 -1.52760860198284 0.6892135129587227 0.19998708875303625
Ni 3.1145292375417606 9.27034650210352 3.9403527342241267 -0.9237932520849638 0.4402898464059836 -0.7791648426078903
Ni 8.956958179126769 2.8233093506432643 5.466689429499798 1.4329858349999318 1.204652848114351 -1.812996424899884
Ni 7.140844468500986 6.572092273306689 12.172812086098569 -0.19093911961815502 -0.7496850879812186 -3.7351747455437736
Ni 4.048661915148138 2.9196102377965745 9.222130388170307 -0.4536868365381799 -3.795122072631684 2.583968704394653
Ni 1.440591848865167 8.141069669243757 9.483152230679343 0.14076738385977047 -0.20808169283571262 -0.024278670041706574
Ni 0.9289747401726808 4.169683000805976 10.7946164574435 0.17039806224200976 0.6159854096015069 0.003284070067910473
Ni 5.631739674786269 3.8193128856072716 2.058060190850474 0.7164445807605339 0.26410423094791935 -1.555675021201753
Ni 8.014194540372703 8.536583463836687 11.32276936191742 1.335665980800835 -0.39441390980947555 -2.774037762703029
Ni 7.231507086469772 8.8130087575505 2.8679539353276455 0.2652915663878012 0.2243269510499814 -0.8203906820268967
Ni 5.377370239396608 0.26984793843050314 1.1099078302668046 1.5819072154254046 -1.6372682086942125 0.45467388304179757
Ni -0.18665110185446904 -0.04670944832417134 13.118696004937116 0.3572362723179138 -0.006337512182253601 1.5252771256361861
Ni 6.630613942479836 7.608173488730409 0.2827118231323658 -0.870257742060669 1.9857866415231544 1.60269201338124
Ni 5.087229222641573 2.454889268870476 11.94109235668594 2.1903523507858083 -0.6531640755343332 -0.37294776951589964
Ni 4.005788553794934 0.16366084817128315 12.69544586617772 -0.78762582889105 0.38645120331897315 -0.4664909302813837
Ni 0.7775135679540685 5.780661280501969 8.448252143525727 0.32959871310630334 0.4587261987343003 0.4555675985006606
Ni 4.099500152603938 7.769047099339758 6.05505173131042 -0.003769751455077379 -0.44947305556714845 -3.3621259316736354
Ni 9.28510356937017 3.772536828778591 7.840378240633619 0.47145135961045254 -1.3530039578586506 -0.039843357249183
Ni 7.929808132195007 6.496252392961111 2.149836390436903 0.5169478013803549 0.8307193176464144 0.961061649518119
Ni 6.708939914895129 2.3464581287128565 5.479102065037309 -2.0338986665390326 -0.6806669089402924 -0.574852644116939
Ni 4.156989859031166 4.637818828273117 8.074775444297934 0.034092313698018704 2.0706204474400987 -2.0311522141421468
Ni 2.834839188959038 0.8036897720782932 6.0876898985200025 0.316411524992068 0.6373793018962507 0.5792685137964475
P 2.282054271887968 5.812605218227933 0.7763840378212619 -0.02272135285691571 2.0309568103018893 3.853866380550428
P 3.428893234387381 1.9987804981330517 2.9041617554901586 0.4650428849809474 -1.2809459635501361 -0.8187508324306286
P 9.128282757908432 5.128920517576724 12.45665437751169 -1.2926305989769158 -1.7345122153500512 0.4162677724597735
P 5.236066395041697 7.960279177638159 12.260180866611968 1.1417670072234078 -1.2136931039397485 -0.8883076575838443
P 6.803214402474635 7.465105926227926 7.184748854452159 1.5275931753638725 2.3741795419495304 -1.6358019085613313
P 8.92778177785577 8.584747979632604 1.5499404977187041 0.7039068533048393 -0.8879248203231289 -0.6005747314733915
P 5.343596913166515 3.8466317539356147 6.333264196870576 -0.051959166676110516 0.6181942443273676 0.5389600439853879
P 7.991575793278047 4.780792575980517 3.799049828017166 0.029122628397569197 0.38121206640722083 -0.2964870181539991
Ni 7.661160084993623 2.9741353966991606 9.66663614505179 0.09135052398953944 0.08595557822621326 -0.3355647008817511
Ni 1.7776965520390504 1.2332330072918958 12.509819221885564 -0.8857319264368682 -2.7037173199109112 -0.08293915999739265
Ni 7.171493762054797 3.726417475515496 12.040886906808161 -0.03873418334540426 1.2903124923667004 0.026547925691857502
Ni 1.110860988584854 2.2168060819073276 10.046071021915344 0.961761246688305 -3.083145297834516 -2.0636684416022977
Ni 4.097051586452256 1.823890957138213 0.5178154522036594 -0.9977307228043785 3.350574993611242 0.7931894390217565
Ni 3.666422914059537 5.137523334285889 2.4396922102148846 -0.9188536486915014 -0.09676475302657529 1.2619840777356524
Ni 6.45622161989894 9.078870505337902 5.1019046710365 -0.4208983292532493 0.29122242732095005 0.38099120864566643
Ni 2.1613615380129225 0.5115861498101086 1.7049459928955746 -0.060676234834134216 0.8093539645967609 -0.3104576214014782
Ni 1.95406836679621 6.813862381716623 6.473002272295543 -0.6953062561200218 0.04393603926131789 -0.2212277432993674
Ni 2.6835909763252648 6.188689968759051 10.160241751236178 -0.11569501427217493 -1.9131300943986922 -1.4442426388606742
Ni 9.521357367829188 6.228617545546629 10.747396656634075 -0.8081190637483954 3.226733696082849 -0.8550581515020953
Ni 7.28018758363865 7.039937274909071 4.590654378192791 -0.7413477717601168 -1.1353996702444833 0.13045366063858824
Ni 8.927284559441828 2.3354817976880757 11.80784907952461 0.9965243612011031 -1.066425199957299 0.9314728801174087
Ni 8.341420545624283 5.404670344765934 6.11771907627831 1.0197087697373666 -0.2986847971362663 -0.23193510241454252
Ni 1.5155498701369596 7.484328577740554 2.197811400346752 -0.9671451367080376 -0.23464607358780235 -0.09606695562860229
Ni 8.858724707194735 6.838197939561307 13.74516118577094 1.3327637195523756 0.3131739918913768 -0.05647196694479952
Ni 7.712739459330584 9.495652113976282 7.60650264722997 -2.5103271676491024 -1.1103990344350876 -0.5682158555267117
Ni 7.1552825654643515 7.1801810120795375 9.377946443176699 1.2591604922439281 -0.0007618178666890105 -0.1791963772599301
Ni 5.497218640115902 -0.09451934419467327 10.307970970906366 0.009362415051506456 0.12998057765691162 0.9485234078417921
Ni 1.2094321937791879 4.540973815308322 2.6861183469048173 -0.24890412616871327 1.69960254795706 0.2039411883047778
Ni 0.1790614849322062 6.432796065566567 4.045035973318157 0.38538393839672336 -0.31031004008002044 0.985853254640502
Ni 5.923034613520834 1.468323502291878 8.551466242928747 -0.07146149837509629 0.764901904930973 -0.5779215128502497
Ni -0.04334431162452278 2.5490230342573557 2.5181363892719837 0.5754923345834669 -0.20971511467407752 -0.41447288534287974
Ni 3.000938283654544 7.276266125204157 12.110556588081094 2.1984721516794656 -0.5035197008999069 -0.5774857108644119
P -0.15359452065881335 0.08024167053090088 9.011239419562138 0.9966673145368704 -0.004555994801798606 0.6346914706514425
P 5.018894525902682 0.7225240258158189 6.133783921788426 -1.2899448246146366 0.7971605078543625 1.3834810434015852
P 6.990328011268866 1.4858481060134934 11.139916821115886 -0.64212452989072 0.9369251614812316 -2.1938595926081184
P 7.8399335585049235 2.253131170563696 7.28483235414324 -0.7136893866128999 0.11146143580680158 1.379200156638044
P 3.765481956188305 6.771570672092938 7.930932033440109 -0.8746741259608097 0.06144525178967482 1.198591729521936
P 4.215971220700222 4.923475497823158 11.697262075375969 -1.0018303467950487 0.2394288396884264 0.48991239452911756
P 0.3968281398720513 1.9827569311327735 0.19810025944647103 -0.7719130461414835 0.7296924469093756 1.2346092852671253
P 1.0080774990912666 8.089584109701878 11.717898515850509 -0.5849133707870507 0.25301326324108037 -0.34820475824326486
Ni 0.2889608266328841 1.1692325540858672 6.954498264730539 2.790703653394484 -0.2139661766409476 1.1161338800363358
Ni 2.812060956712741 0.6904843969988693 8.489718282952676 -0.04697842563206747 0.21996121788211792 0.4341030008689814
Ni 7.731943347884196 1.372932618650878 1.1275553313699798 -0.3942524445309468 0.14802277987060314 0.07253030595924283
Ni 4.155573255625403 4.8621862921950445 0.24070155789393172 1.0176709133717312 -0.3805142690092479 -1.6713147567559603
Ni 3.4238647613709 4.966930510905879 5.642196271846287 1.0793035985818638 1.3931427348610652 1.0184314456868395
Ni 6.331128972134473 5.553404320891467 7.5473636767051735 -2.0921693772554675 -1.5619562262247746 -0.35318987016268205
Ni 2.6137177169470034 6.604824255311355 4.007510055284719 0.8214510049706112 0.7479717048345377 0.9371845857902052
Ni 2.249800745338228 3.136472518111814 6.762844019854262 -0.4440539414341062 -0.946607421766002 -0.7553014057267314
Ni 3.9349490020273117 7.803561562451013 1.228291782034843 -0.9417284964071458 -0.36317963438554224 -0.7710373284047496
Ni 5.557110005297269 4.47207622979893 10.192921196955599 1.267421703811456 -0.1534876596399163 -0.4975408576086528
Ni 2.0000282349076635 5.017721840964137 12.742266954108041 -0.5158828504509503 -0.2474008021503094 -2.509965156323993
Ni 5.148002446896727 4.0237165611354095 4.139928700397263 -0.37609274290278455 0.30962124154311194 1.6774928605422144
Ni 1.112896769638168 1.2179130512547447 3.952641534232127 0.29161246367051713 0.5684140875804468 0.8761437685278007
Ni 9.272504242390443 7.705806545973907 7.394458694790224 -0.2915335308034656 0.3968682848872391 0.0739356709472017
Ni 6.64042697004558 5.283789981300722 0.12608427014849982 -0.33717678256387734 -1.473026652971902 1.3747284940199356
Ni 5.671564055299256 1.5472686523547232 3.105069891753482 -0.122261354635783 -0.05751557771796546 0.43919429934895976
Ni 2.027703599457324 3.4286024085226217 0.8064422981660458 0.004842158583649725 -1.1639782532131244 0.04816653240289769
Ni 2.615744116520809 3.3897161759604715 4.269986965265504 -0.23893313099893043 -1.0487578645845228 -1.0605862246780187
Ni 5.6063064838391075 6.421444475361451 2.0146295696144745 0.036123485195434554 -0.9227799803291011 1.2150426759891073
Ni 2.9936582555560567 2.8878351667017608 12.20470911642699 -0.05741196226056564 2.583990044550892 -0.7797806218150183
Ni 4.9955346419268665 6.863208963930594 10.016234164486958 -0.6805910613970343 -0.03700768757260078 0.4611461210297026
Ni 8.320593661115725 4.338483961599889 1.5654696607488916 -0.3764105312535195 -0.25001741383755005 -0.19974823326935276
Ni 8.833103886657407 9.113666412834407 5.286596919969623 -1.99206090456764 -0.4470875860541074 -0.968265880576042
Ni 6.898323841730384 0.33028436757130625 12.790558119877323 -2.395404769876894 0.13111109171692906 1.9184139685054509
P 1.1073054078511857 4.544848366345274 5.374185227103521 -0.5117965961967185 1.4728695585687472 0.17384514025034575
P 1.4208438345000702 8.85270179735037 5.203169298997684 1.4209852109946302 -2.1463620612477876 0.6872517612466617
P 6.270843584813756 3.042620197110185 0.23507736092867018 -0.02976514707757454 -1.007551308439226 -0.8530233804602535
P 5.035621703866087 6.357331444401322 4.390844813179896 -0.6673856184503538 -0.16949971879745648 -0.8956322162697156
P 2.1560047132136493 3.7925287616109054 8.699620443620663 -1.6245636166433504 0.9488933895867013 1.781610711499751
P 8.055698205717684 1.290403743415839 3.7443051424940847 -0.3729835078498415 0.23105861334686012 0.6813613639041555
P 7.800362477938663 5.047733193911379 8.863016734069811 1.6926857662325687 0.2690104100002851 1.4454621130900718
P 3.107070961332615 1.1001473389863072 10.608455068819367 0.7481388265400213 0.4961642889761004 0.35934663379269727
