# total energy = -340890.23036560224 ev
CRYSTAL
PRIMVEC
9.11648964159187 0.00000000000000 0.00000000000000
0.00000000000000 9.11648964159187 0.00000000000000
0.00000000000000 0.00000000000000 13.34290409936455
PRIMCOORD
 96 1
Ni 6.20481058047376 2.33528914054771 11.652238687404845 0.3707294217083422 -0.8995924864690442 -0.015757005723940606
Ni 4.657450535800901 0.1923397015442459 6.263773301474695 -0.25823183132754235 1.0444921473296334 -1.0979461533837156
Ni 2.6827003333834343 1.4878749488070784 4.927134536705343 0.6817292887665356 0.10516660393702532 0.0626331014501889
Ni 3.5104046742027144 4.462403236789663 4.63180220343174 -0.6559904892395348 1.2387621310932344 0.46839328951041914
Ni 5.229683483295014 4.722314360641518 2.8978385525891572 -0.5052515959893493 -0.1569455362815297 -0.8882978873918316
Ni 7.577407515913363 6.399547918832212 2.792709927302506 -0.6393186850108086 -0.09350999353470348 -1.1224418245322347
Ni 5.029011310084665 4.449229909046206 11.610274573262352 0.20579135413963914 1.4600698357009179 -0.008157853220444015
Ni 5.7291394928126484 7.991624345914516 12.347670054594124 0.15627113592232442 -0.12301880162709783 0.4655419361045531
Ni 2.0441266897030737 6.196177264644658 0.2594780905869324 -0.7050170556498825 0.8715589773705956 -0.304986570984578
Ni 2.625430544536105 1.340707454161673 0.20748857262473094 0.2530621142011448 0.6307422561957072 1.6235554870938103
Ni 0.7049890950828699 9.305474621161158 4.694887401114745 -0.4650146028461733 -0.8647326984773818 0.5736609378016829
Ni 8.985513179076676 2.3374315156478565 1.4098642340433916 -0.7492899094253289 -1.2644171126571773 -0.4119632315471486
Ni 6.996167476508846 0.9979730205871198 4.896886023589227 -1.5078509597399385 -1.3915728192707841 -0.46027734527150416
Ni 0.6651819424241842 7.138822308709261 2.063520198428786 -0.36238542061902107 -0.054895880706931265 0.8353318767177614
Ni 7.8290226340582665 4.271658920958291 3.8472398272355446 -0.8937100595463383 -1.3702144081996661 -0.39474995299265564
Ni 7.6416423029586165 4.1633641387683165 12.744634839320733 0.1466698653871345 -0.6211813519801496 -0.1996811274768432
Ni 8.26415269163277 8.817213661103015 6.58747159272322 -0.2911599495141308 0.34552438319762424 0.9319271940460079
Ni 6.763405259245234 0.7543940881902134 0.6187853909468343 0.2957835643290712 -0.2763072007720145 -0.5994205632642903
Ni 1.8231429772453753 6.273840641147427 9.287702024319728 0.5329315784031209 1.215041904658159 -0.3527561250593731
Ni 0.04685419926470053 4.567069656044069 1.2638691199847047 0.2931605248839274 2.2806487224792207 0.9474049779666329
Ni 6.42165540656777 2.0998649082660426 6.931518800827225 1.1591872595823842 -0.16807147099136216 0.47007556230884845
Ni 3.7366486012680076 4.397302383214562 0.5762542311395364 0.3687604709074294 -0.4300756248771432 -0.280553120532562
Ni 6.083479217887146 5.883873673981977 4.732888577146456 0.1600858816827243 -0.0774501118583634 1.2471177021467812
Ni 5.219509480691763 3.0037648707322466 9.380408520621444 0.6866802050139077 1.3220825856894456 0.46705683008718274
P 9.283777375466055 5.758357842582736 12.606602979091742 0.1707731861932414 -0.5986291777112465 -0.8690518946780259
P 4.065261592161168 6.134030153760823 12.628205413293053 0.677431175611814 0.9745311447594637 -0.4981561225951485
P 2.2975195233566104 8.316964516973835 1.3606160445603994 0.7747777692837883 0.8985915560083556 -0.5406248332823206
P 6.373684437304057 8.000193846315105 5.759677910304018 0.4700778763016936 -1.2599279665375722 0.39432212142661766
P 4.796914596575567 1.098081194947598 12.735682446349056 -1.0841994932215844 -1.8986115890675435 -0.6093555629898151
P 4.057722255106608 5.913438450364003 8.317953656115819 -0.11516639546221456 1.6108786629570901 0.4440308015056546
P 4.723453921865 0.9469206777751104 4.062393544473907 0.8439576707135595 1.2829501384643582 -0.9822603950829212
P 0.430006590313726 5.598618708519874 3.820433700663324 0.7202786097946433 0.3853746824253428 -2.139556865400496
Ni 1.3262304683785533 0.8305705652085831 2.5414230027899647 1.0714149398624064 0.37995428274071985 -0.33379886723058
Ni 2.0086453114487273 6.664144918435027 5.0101939635135455 -0.7069379268216792 0.1588252698027458 -0.8167543708258901
Ni 6.093771734857639 5.824251830769381 9.20671112904439 -0.16820696812796193 -0.9920516701417302 -0.5269200821017184
Ni 8.513388405943044 2.4330726100122835 10.62829005246518 0.3645099231611915 0.24881850843344244 -1.0128624362394942
Ni 2.488901993473131 5.1969644014463885 6.985317030363337 -1.0572319634938052 -0.6008215573768748 0.09287004595785942
Ni 0.5072697529148085 0.21900908076964817 9.394004853491055 0.6986646310692934 0.5008015306377955 -0.1555111178278483
Ni 1.3078972074151691 1.0142003724095086 11.667649201742242 -0.022756576970225328 -0.5342266430654606 -1.3258009150812973
Ni 4.0720716100326975 6.807173526716745 1.466144883748738 0.8966660568508685 1.5975845169513454 0.0802821819905198
Ni 5.427256049977491 7.90279326942162 7.984380383129085 2.2264077017474686 -0.8134240209010765 0.5513594460910053
Ni 5.0603446854855365 2.862696307754919 5.0779094263598035 0.8157817224999757 -0.3248061768136664 -0.909279374739505
Ni 0.8948336133721788 7.267136902473375 7.138347339591314 -0.28444937026317463 -0.08099874844157018 0.16852089982395493
Ni 5.075222796819322 4.71894125942001 6.84719127028953 -0.09555479187887414 -0.9237657412811381 0.5962570779346441
Ni 8.446974777838491 7.35904023602478 9.135819481156043 -0.23453525904155093 -0.917788954872413 -0.5385851771444724
Ni 4.88771483486264 0.19933387250949122 10.28919400996496 -0.7946130588421606 0.5483126888448815 0.6885735653818786
Ni 8.389276513971133 7.041649644060474 4.924279252103785 0.15030206282308306 1.1531940181134268 0.24174823185022237
Ni 7.426511376944723 6.066704876677486 6.991147937231651 -0.4151105189268786 0.3073401588184191 0.5250089811219345
Ni 2.459200469744287 5.276505774845457 2.447475752228122 -1.8440486662199982 -1.0607394624264312 1.0234175860475212
Ni 2.445115493022045 5.223940094728663 11.403686709828662 -0.4252892592320934 -0.1915494995086443 0.440990472017434
Ni 1.1023385956785279 3.354640329687358 3.9898618400727233 0.3574185635320489 -0.03800990358487002 -1.8051964692394908
Ni 3.5627515585646 2.742787117575212 2.829563337269925 -0.02672558892030236 -0.2849944441333673 -0.2508558505784454
Ni 1.0547596354756925 3.1171648872034234 8.24610204185281 -0.2151774233402294 0.9602103572614173 0.3595299534480969
Ni 3.723083264463673 2.490068904165977 7.07035200050857 -0.2575162933177565 0.9783096379652892 -0.2564066051933455
Ni 4.158468583752236 6.767161253037833 6.09521214024412 0.24810219909270817 1.2633421344254439 -0.18820886517118554
Ni 0.7051559268459877 7.594984108224354 11.159231682763142 0.4361403430139844 -0.8580763695031286 1.3703846152289432
P 0.14827697145258775 5.36688665460229 8.203938276583962 -0.010193909813866314 0.34302938468991245 -0.847046079830896
P 8.542579406243766 1.4928981346801886 7.883014133177882 0.03571082313804818 0.6676877230718049 0.4623244576085199
P 1.7939428604548635 2.9133657579958387 10.571836189453863 -1.487457226574935 0.40910262216990195 -1.666441744934375
P 3.7440785404451122 6.513248779466388 3.6232257935723617 1.545897372989699 -1.4096011375274045 1.3064070839357178
P 6.912860992827392 4.23177427813641 10.584445206479451 0.3588776645760787 -1.1620668951230244 -1.2342282477786228
P 6.52422503317097 7.802265736530901 10.012502163360594 -1.0390401230761268 0.08560770796849128 0.6798644676436549
P 2.4259708644675415 8.57173394058534 6.146462310884527 0.002531508172602092 -0.4978529895324329 -1.7607901752099742
P 6.819599302297597 4.008812287394745 1.6114225300611202 1.3395478323537446 0.7159380734377605 -0.6482393845392062
Ni 5.219235985998128 2.5565645806786192 0.8099727681818947 -0.4140512244244288 1.3548358688610667 0.3791371861560632
Ni 1.5298655007699562 1.0542946944965117 7.210838931437431 -0.307215974535729 -0.12919844807524844 -0.43460667997827734
Ni 6.993332248184823 0.6455723728904998 9.294453696656616 0.855781659931681 1.168486682606439 -1.5058879224762969
Ni 3.105541362723903 1.6462739588711257 9.174781535211393 -1.2590846447006705 -0.46510176324334096 1.3639799972541802
Ni 6.461731495675197 2.339327745523731 2.8961975844273433 -0.5811947842848829 -0.9227403853404172 -0.054235878525429174
Ni 4.12933228239024 7.0264342226045375 10.396737593396416 0.026906594582856887 -1.0833242897054827 -0.007688626893509338
Ni 8.045931275580793 7.315891889858844 0.19931655117889427 -0.13549070884186343 -0.1559515477993766 -0.6531918434484751
Ni 7.63259874508906 3.711806166596092 8.33979585399855 0.3970950561860645 0.3182457499873293 0.3347105804115719
Ni 3.3291232747711414 8.350777577597006 12.568082163142124 -0.524300127980368 -0.37938324072859825 -0.13908279706849594
Ni 9.150767789461193 4.861814887375334 10.346315200028748 0.0710542356343486 -0.24369044317825772 0.6021965833475307
Ni 8.8000290778529 2.364762752031857 5.729616285228554 0.19005543146162107 0.10224917317991422 0.9729450312192663
Ni 3.4627983645305154 2.793730062509767 11.769922542427336 1.0348625946596695 -0.7695658860655457 0.469922581670752
Ni 1.0251036941957878 3.3313021158304394 12.557620991110555 -0.2838698436106208 0.400723139856955 0.7753015029977423
Ni 3.255525852713757 8.446874496450825 8.100277406153156 -1.6840964819016608 -0.24202359699879608 1.5903879992029062
Ni 5.543017237303723 7.911636264515844 3.553362485732084 0.585857479867875 0.4010229304855609 -0.026883197544089188
Ni 3.2246938842512183 8.580421955353168 3.632352311498987 -2.1232265036715883 -0.4186712396949435 0.7451604606379876
Ni 3.0759127709133622 4.247636970367283 9.305341520410256 0.5647890892333499 -1.0450485340537359 -0.11371140818324288
Ni 7.258713265909393 6.255862923285769 11.31004577332369 0.609421383230744 0.06727137155314866 1.257528355957144
Ni 0.4235028864990675 9.047933784654147 0.31135821067167946 0.20857020243635693 0.42849028266789424 0.20257387564360593
Ni 4.31594682834771 0.41188300861546256 1.82237354550728 0.9771770670227429 0.04500433262483217 -0.7968571176813308
Ni 6.1002717920763825 5.782507424030775 0.5430775015035605 -0.3780580941592715 0.3423097329150685 -0.3740299468364849
Ni 7.867995627901363 8.945427973479461 11.376080155453069 0.35850151218358256 0.22001623948976948 0.9213391341175166
Ni 0.030849289793135545 4.839515953354232 5.780759792938442 0.8073760149347837 -0.4520953236813439 1.928257179848118
Ni 7.978615114987242 9.099788378567487 2.7329066659431303 0.43339080529330526 -1.4094229600783275 -0.30366373840809635
P 8.514099492146496 1.8261058364264295 3.5404462430006456 0.9517902515185223 0.9318935125945951 0.8877165609670646
P 2.0228852684973626 3.2536843217766096 1.3303474751667501 -0.7456777665940383 -0.48239423177520147 0.2618663427563361
P 5.0839655105258785 1.2444920209406107 8.294776804128146 -0.857511241028278 -2.0966857770685827 0.21135830670445535
P 8.284573628757574 1.6325171757812469 12.592432307365495 0.5630782771898303 0.2130524065774266 0.7896351460115949
P 6.530998585083349 7.932248647926192 1.5642683982823993 -1.4321535689066238 -0.7183649377116983 -0.20801227305035785
P 2.058311947812982 3.3341646936238276 5.899431875453937 -0.8101911157860755 -0.1241850540210571 1.1216193286309393
P 6.884153166485425 4.027318761664099 6.0347689013016375 1.3374243582528387 0.5892096841695594 -1.0586314149444929
P 2.558962217492826 8.54469443187455 10.405544122531488 -0.635690344229602 0.8104914206353138 -0.6048242507783648
