# total energy = -340857.3155956807 ev
CRYSTAL
PRIMVEC
9.38726611737841 0.00000000000000 0.00000000000000

0.00000000000000 9.38726611737841 0.00000000000000

0.00000000000000 0.00000000000000 13.73921284218250

PRIMCOORD
 96 1
Ni 5.281867283755217 1.0102387989669996 8.777255228135505 -0.06691810197878797 -1.8531858526345761 0.004475262162534228
Ni 3.0989148848351293 1.6024063166353848 0.6800069823822239 -0.27808666126994047 0.6442852849874646 -0.3780971749273231
Ni 7.100077459869986 0.28649748273256365 1.1068966614186666 -1.8523484443349454 0.0252546608017307 -1.0831998483124763
Ni 9.194076125594778 2.6456413558072667 6.070492444277598 -0.2959506860345549 -2.0550812141539185 0.8634584597506484
Ni 4.911642897570197 0.3882648341013054 3.422203879441091 0.7756612003300062 1.193649555025312 0.22642882788433263
Ni 5.9857151057529006 1.290129523845738 5.5100013172059 -0.2387858067877888 0.9663426954114002 -1.5153202715337903
Ni 1.5321426301678052 7.189697688955621 8.408728059654338 -0.0939787056410059 -1.0256629304382723 3.3691483857380558
Ni 1.859617406710426 1.5193196247282974 3.042259917976374 0.8236665245646911 -4.986285370900032 -2.7885328709954105
Ni 7.703622344004464 1.951312221595572 12.431514202061015 -0.10376432427286 -0.03892907296502973 -0.13737121369402794
Ni 0.8476410247955107 5.142644740802555 9.390009959002562 -2.956124059916245 1.5053029965071043 2.8095750363776903
Ni 8.778445533472057 6.470248230764335 11.001921821251448 0.7141251885987377 -0.14310014575800517 0.7258051960398275
Ni 7.0431812402734595 5.0331892185297455 9.747477050610502 0.966818092385922 -2.2142522973318575 0.9769448964072788
Ni 7.154673799281534 2.0553888404153526 2.6078669971772674 -0.0274552679974753 -1.5410775830035524 2.35588691428793
Ni 3.774741717640331 6.13147118588411 9.649406404616636 -0.1337331027208084 0.48417729181755326 -0.8636865166010544
Ni 5.092751421687634 2.8525836361249413 10.061046469936768 0.3536794082045909 0.600350017057095 0.7679946849236838
Ni 5.488612431485607 7.63390311896843 3.0499124172694096 -0.01353608681322185 -0.9706994297181993 -0.14737486187395912
Ni 2.312966033866778 4.183697963593586 8.513517171968159 3.7266764782647757 -0.28073669729827777 -1.323806510359088
Ni 8.389484164229016 0.38672719992049176 5.893187640368131 -0.9035090479146309 0.3920960603095764 -0.2558805574865464
Ni 5.114914756857968 8.271411131712087 7.410367907161096 -0.8999542406838372 0.47728210735961674 0.5293299770947916
Ni 2.064710395614058 2.8935778270139085 6.509995792720384 0.5969229936534171 0.44690863727408187 0.11692168759042444
Ni 5.361987599586986 5.354355752279285 2.5206508469298883 0.6154341650837271 -1.1438629705204881 -0.19984670652043
Ni 4.552326514548213 3.8279581289408933 5.6517621769014905 -0.9340892346943332 0.520221072814988 -0.05938528393685256
Ni 9.02871004666186 8.796844574951878 1.7789667103462028 1.8462107068683238 -0.9214594617454647 1.1007211450256913
Ni 3.6485674745126437 7.33021567462472 11.869347447997404 -0.14985649064523224 -0.05714945262779835 -0.45776254926945037
P 3.198692135798911 9.406509956558216 7.359464518217997 -0.5842605676944003 0.2124091165664729 1.5574963906812078
P 6.610784990965556 3.518826070281726 4.382768082592394 -0.5491588388952607 -0.8098848973995665 -1.3695698326371317
P 6.871873021923845 1.025877984224847 7.339624531397793 0.5571166602897566 0.04301841254305494 1.5123118237247697
P 4.632418668581799 4.872939199600146 7.911217039313388 -2.1566719278142275 -1.130100883739389 -0.2717956860549061
P 7.785469916791482 7.885847952783175 13.617579310532852 -0.4116256457020718 -1.730646561747058 0.4154876997606393
P 5.224726995241101 8.24913514934902 10.181539539644257 3.552797913673333 0.09211517006970588 0.4884849180539716
P 1.51030784930961 7.26260858445244 2.2198443545403395 -1.386425984962522 -0.11975838570827117 -0.4844081768814368
P 7.175522917203311 2.8358649152700637 10.437776231502152 -0.505498936113465 -0.4488318224387238 0.38881404712419493
Ni 6.03510151250052 6.559502356473587 11.09762969237773 -0.8294831312464682 -1.6573441535084812 0.38376722872890684
Ni 6.125895149843798 6.224893257724505 8.084084482555756 0.5695168337263224 0.7113501969567619 -0.4730351591578047
Ni 7.108798230040778 3.2060705269229617 0.6542361208645959 -0.08512176947100825 0.9163331962624929 -0.7432992390595328
Ni 1.1342539709006263 8.66038188822119 6.9563556002942235 -0.740726336126034 0.06887651125673944 -2.6161586588636365
Ni 8.734353544782916 3.586921298289184 2.8541700840892728 -1.1075834193631635 -0.05946010303884598 -0.47353780982583604
Ni 2.1693220885993223 8.426929968546876 0.4626157362119023 0.29847190979451177 2.0636296179445623 0.6954412390359894
Ni 5.0506401461373915 2.395001351975018 2.1734468533065843 -1.653954925321274 1.0221166078479107 -0.6850305852256267
Ni 5.588840271220324 0.9049380806528475 11.616833745859354 -0.5910408238410273 0.22929895034327608 -0.20783538115286143
Ni 1.5748546907459597 0.8937165428033693 5.332559459211941 0.3767709999167318 0.3813776454508077 -0.16034684865359483
Ni 8.977943711803254 5.886998615854027 0.5424365982563214 -0.9228766538079655 0.41464334948247294 0.4801594289074118
Ni 6.007052361509856 8.363049623000867 5.297387250734088 -0.8899616482474996 -0.6243924027182794 -1.121882866704971
Ni 1.417270655377722 0.12874072166880093 8.971238387655786 2.2985202034430032 0.6410253832892702 2.106154635790966
Ni 1.9442154484533556 6.92626284148205 4.461205261619402 -0.3858876175060193 -1.9464680464291897 2.435477212417747
Ni 8.591826684176736 6.605424862044649 8.598273858507522 -0.09005365955498684 -0.3211058451439438 0.15658481050800127
Ni 9.179206696153944 1.4199084771409003 3.734977258605372 -2.038947027596217 -1.7852290249786287 0.5858345970497395
Ni 0.9339832205725989 2.295806111507027 12.83977485159914 -0.6422487141734101 -1.1349893221799419 0.7680219386171935
Ni 9.056317996147653 0.9829687910594086 8.107867121121636 -3.169903831577999 0.2556900387422951 -0.8198422657225944
Ni 4.042278800382618 2.83152799834982 8.007309788348174 0.7991603118932108 -0.8408173253123647 -1.0745097767376461
Ni 4.356902409687549 9.098166428248183 1.335817347765272 0.5779693353690498 -0.541429588571803 -0.876070234977388
Ni 5.721088075489564 5.490564982826323 13.350997851475588 0.3713611417550701 -0.16175581318597948 -0.44469286056968577
Ni 3.135037084638369 4.674483007801736 3.8819874774823497 0.6250354356189171 1.3305620839153665 -0.13867733409996116
Ni 9.213611026267994 -0.12971511988594653 13.153015716613265 -0.687660566649306 2.273463260474375 1.2901245447256102
Ni 7.614706159873413 7.55203677164929 6.6696600462477695 -0.2241415745120527 0.3214930532800334 1.2404978828374185
Ni 9.21703737838031 3.2640838311807627 10.576075067474399 0.34584911352689474 0.14107848734228606 -0.0894165401916202
P 5.440577791050791 1.4669292928411148 0.1570855715403917 0.14308369069777294 -0.982153951412044 -0.35382698952604874
P 9.20826028461315 8.376520349798593 9.953304123720114 -0.8877931798412709 -1.5586353893816576 -1.236557924353064
P 2.635916148167933 4.248179094167507 13.418828358580122 0.12245701558635684 0.2061093996006902 0.3757273891435658
P 7.236596470197042 9.045203473131272 3.3945198931002043 -0.7649708104956954 1.6036867731943412 -0.38159053279256216
P 1.8751908811058455 6.339718296184283 10.973248417067719 -0.22281025729513887 -0.27282207043689144 -0.20813620022273188
P 3.030002964680353 2.991299266710302 2.61829531104458 1.5947046243003888 2.00187403400332 -0.9908923597263064
P 7.878450787127003 5.554501651968699 2.878474654648152 -0.3280619647468027 0.7185225463354852 -0.17770205210259074
P 7.875456249253501 5.045533473400136 7.084171676256003 0.38054075137180915 1.731308363700773 1.3643587207498373
Ni 3.4447511537933266 8.839500311933667 9.852115027940737 -2.720605611025818 1.134481272195272 -0.7520389329253758
Ni 7.936144924338725 7.323297259537665 4.4508313938952435 1.4245747281181016 -1.3342475031867536 -1.7866804127131746
Ni 7.242238217099782 8.433172500477529 11.511124681471543 2.161549567621503 1.3550739530138016 -0.7494086943913804
Ni 5.54332141808989 8.096714110314403 12.943547322998539 0.2974568382664361 0.7093812461558493 1.514183586826186
Ni 3.1052606766924553 6.458082333949107 7.0714631954624405 1.428038775407302 -0.633906769966618 -1.1566135853179371
Ni 1.718977386582533 6.589428960676479 13.146571358462296 -0.3386327982841136 -1.8342836164134344 -0.7080530142627289
Ni 6.583552532122209 3.360453504564353 6.494649490163644 1.3279513857653968 -1.2455321028272162 2.23132416521248
Ni 0.727072856959532 4.470488329027257 12.451285661838972 -0.5999563811631021 1.814875644200468 -0.7762762082061857
Ni 1.1340756128454648 3.7099226454882084 1.4009189766258345 1.3354119558085003 -1.1161127969904132 -1.6458680345480816
Ni 2.5741479374856784 8.64787804982776 3.4301042025581405 1.1294010294588872 3.072009078712038 -1.5602441286296742
Ni 3.882545081086381 0.1225995722116078 5.392929905977692 -0.6678350472829466 -0.1493708092580653 0.364260783264863
Ni 1.2735046756514716 3.11060203108124 4.240140778239359 -0.14774381517760363 1.1474100644417982 0.9356984881629821
Ni 2.196601483772975 2.3934336785428094 10.505619880779173 0.6273350302863712 -0.45421674089972097 0.5408400346169202
Ni 8.564124862030333 3.383349046487456 8.192884773657498 -0.4127013952647538 0.05757162776688149 1.4990467311847473
Ni 3.0240514379975947 6.00121348201983 1.463706644402328 0.8403331865870948 -0.7586800923909773 -0.48207670053478263
Ni 0.255344901582088 6.415370273370953 6.413272219406289 1.0231735883575153 0.03629883443103425 -0.29558147562059417
Ni 8.752752586262737 4.5595171603510405 5.199412354854044 -2.035541601459095 0.9923607167417168 -2.3818838525723236
Ni 4.35584164862264 4.599882404413912 11.28848032121341 -0.463062364215809 0.3019971493389509 1.1969277115559513
Ni 0.8258043664841034 5.221892040890639 3.131839781817947 0.20748314001976526 2.5733050540332196 -0.9263155042861854
Ni 4.6980638201473015 3.3673062087889796 13.4217271463398 -0.6435584341237691 0.5602534061465255 -0.32294624078679224
Ni 6.529923081114957 5.491503709432437 5.452901393935846 -1.6756516935684174 1.5967121416487209 -1.1200517270335033
Ni 9.011681546026965 0.8223676883791227 10.76942740271537 -0.323407753804243 1.8932768071181911 0.22141286272698
Ni 1.245906113431741 8.699892891072498 11.714368378961131 1.8943800674846984 -2.5785974127804105 -2.3241013943462168
Ni 7.077172530680822 8.381129497434609 8.918343020854516 -0.12043124340557967 1.222527928622559 0.3738350572168594
P 5.030241616986549 6.989420367541351 0.9623778229543136 -1.373765615886034 -0.3765059191808032 1.399788522312357
P 1.195196102169501 2.393217771423403 8.582528597143183 -0.09939216334709333 0.17691966541061144 -0.06717007008859399
P 7.6549681440096125 5.078435840944406 12.320268528150347 0.4559162400893309 -0.26909139974986557 0.6321401649844984
P 1.392347463985414 4.874525647564477 5.296383751992153 2.0493656518263803 1.343317840919138 1.6470779956957828
P 8.963646905592148 1.7087171047777148 1.164031317573146 0.21914103597366774 0.5252529788119406 -0.21312491168657488
P 4.254149395382388 6.533452693153944 5.127734946117657 0.6924970688060008 -0.020038406708113878 -0.4260009405871374
P 0.3474490012674995 8.592371145608281 4.832479144150057 1.4769128754001855 -1.5330459709483275 -0.6086834766234549
P 2.460524469081726 0.8433670025578769 12.383262715780187 0.8037728709645575 0.5120606484913827 0.26422610123776424
