# total energy = -340869.0777223431 ev
CRYSTAL
PRIMVEC
9.28113684881367 0.00000000000000 0.00000000000000

0.00000000000000 9.28113684881367 0.00000000000000

0.00000000000000 0.00000000000000 13.58388192992896

PRIMCOORD
 96 1
Ni 4.340332964632991 5.4030231426727635 2.021852058009848 -0.4793747282225873 0.5037621559280163 -2.1155041953266664
Ni 7.550297700761005 8.479998467786526 9.436804795204756 0.044317848080768836 0.273039071543704 -0.11023090583381015
Ni 5.008667634682284 7.806884012220285 9.299077363789722 -0.057772173813461794 -0.5257101209540171 0.5921381706702641
Ni 3.4046922699747606 1.7886607084002177 0.16652772741044905 -0.5609146938796082 0.6513848721467234 -0.28001138909647905
Ni 7.9560597260336765 0.5491435253030902 3.350777217457286 0.3245380107539443 -0.416367017041799 1.2458138957336933
Ni 2.8256050126069563 2.6134103790652685 2.476911770179253 -0.9718975637913585 0.44412901764641577 -0.9679614619617459
Ni 6.187641177269308 1.1098940404459756 12.247336313330013 -0.846416159556381 -1.154040425274122 0.1823097260779312
Ni 6.137179635802039 3.135845576636087 10.96516766548894 -2.5549849155677933 -1.1794922896883235 -0.6300717124912439
Ni 5.6162294201393985 5.506034481415677 5.931428895628151 -0.5837993117872655 0.35846577384964073 1.1486688765495636
Ni 1.5232201923134272 5.263471967851751 11.547889416077009 -0.7850220727196158 0.08425479348502263 1.2486523936237526
Ni 0.3304985015977544 2.571877291320919 8.978497613224903 -0.5363444607394118 -0.4126826262116764 0.1725341347484061
Ni 5.723500800731396 7.825381318114026 12.269777174303657 1.743578696427694 -0.7640974067518067 -1.2312105439982215
Ni 0.20871699153547432 6.192049717309211 1.7238078360153204 0.3549945274715886 -0.41277621436674716 0.5659543131860446
Ni 2.570615056698968 8.944343029336812 9.367879359936678 0.5605056313666475 0.04508866480852235 -3.0762742817462954
Ni 1.626788399271906 7.698600987703342 10.957995202872443 -0.5737200731743926 0.26444258812394456 1.544894128536165
Ni 6.911727636833753 6.641702239105464 0.6412365345661246 -0.44555238035650363 0.5089413861361105 0.5236331838203305
Ni 0.3400497196084158 6.257129049435106 9.566380604057583 -1.3351887840541006 -0.3912087726086166 1.121902664199313
Ni 4.203315540192807 4.659056487812588 10.147675843900108 1.16336221689568 0.6811451341282915 0.24978138656734403
Ni 2.2094117698085585 3.3581288060164587 10.493372207214371 -0.9655937330605177 -0.9357913049871045 -0.8116198778128023
Ni 3.8485997680137496 6.670390233344074 11.625113115870722 -0.9716432816887073 -0.4548471753948683 -0.1316934465829603
Ni 6.65748945301678 5.190615042981775 12.175273853780913 -0.8108506037469455 -0.03328087354031688 0.02246938474710969
Ni 6.570896445496158 8.049214497361058 7.165158361738154 2.6704721847045363 0.7607742559158446 0.8234690638419043
Ni 8.270411833721074 8.239217932512414 1.7539371908185564 0.7532854037379672 0.8988820906655809 -0.9953694216610535
Ni 0.9896290681574221 8.13940858600901 13.521301364242095 -0.41083785969345377 -1.3994437373784285 0.1265232152359305
P 5.242747189095744 8.201861356384814 1.8888385160395877 -0.21422302984676006 -1.1022764053279532 0.8223254371557643
P 2.2623235314243204 0.3068937860535749 12.656578764949975 -0.11837076133212518 -0.6722684004639519 0.015344343666554216
P 4.877042550796171 3.1531734592771374 2.158397072580494 1.5072102408321462 0.06570376995571264 -0.10220829263964978
P 2.3846117915627665 8.519925918842658 7.160200378392227 0.5812798877995214 -0.109816701114527 -0.013309058404080304
P 0.35947235485368945 9.196669298947008 9.444696545933027 -1.7702947722662998 -1.7047236712337095 -2.5540816870272334
P 7.591218233468231 6.531284553095515 10.740761840093565 0.2002190022581842 -0.2641538532389322 -0.29946512694571653
P 8.53710530329289 1.7029308466137254 1.4320942775180938 0.3544219427975702 -0.23796228244522888 -0.8273452589678592
P 2.5050345431790633 5.864741142472961 9.834119129647279 -0.32018924686694533 0.9076449244598757 -1.4622192779437528
Ni 8.281660571675522 8.272908459554198 5.348028693930782 0.9576675362349055 3.295826694225769 0.20908210907576896
Ni 1.5724844671172273 2.9329413611574364 6.305271234784539 -0.041598906487709 0.31264511597110023 -0.9904033359050299
Ni 7.6690684100044555 6.904553317989868 3.65804410521529 0.236706812771573 -0.021426031084259875 -1.0684759118387406
Ni 8.753040235015801 0.8852162777386673 7.498085736869472 -0.40525856583346337 -1.250454222719182 0.46028942945636214
Ni 1.1399277995388726 0.4458825239768658 5.888314302151592 0.48735054733921224 -0.6585135127717047 -0.5775322478316312
Ni 2.559366318744521 6.307915430694787 7.3100573276559935 0.06757141929207072 1.7838519421254442 0.19881569415275438
Ni 7.226952171392205 6.250808595188423 8.538868719308851 -0.4371119628986343 0.006675612247962697 0.1335425839765571
Ni 0.8974506724346675 6.761623809327751 4.554445081063615 0.21296601751120742 -0.8063460310083725 0.1893800026611513
Ni 3.8817612702507462 9.223927998098997 11.142681474678827 0.6769282678334664 0.3615572682907709 1.3073766469378387
Ni 4.009701742777194 6.313372739207341 4.269604204460173 -0.7963961188845123 -0.916849473777279 0.3678955518039729
Ni 3.3659249610343926 0.44339610739436053 2.249354998797465 0.9429348580104211 -2.199415746539657 -0.3267234484410373
Ni 3.7040924660741927 1.370582614426597 6.2531771413319674 -0.7009038048124575 0.3870348437365851 -0.8391563926701742
Ni 7.543086257369417 2.95288652441165 12.725353845799848 1.6642845893820561 0.1304526321973237 1.1193485303188915
Ni 4.993650755135836 3.3947985780115255 13.458611924874676 3.3781225642122084 0.0415215162825543 0.3061469098412663
Ni 5.332672124772839 1.654557560954832 4.087797869441959 -0.006115883089750757 0.11194403187017495 0.14122529733279549
Ni 0.14381956969333196 4.208132450257459 4.824980941322841 1.261601497585253 1.095923466526732 -1.3201928248659005
Ni 8.06548433039253 1.2989507996308678 10.792054971429414 -1.4807685017008498 -0.765861440630765 -1.4421466755635939
Ni 3.863282526630858 3.556513107812093 4.285687486639432 -0.37479690690949646 0.28739611159632444 2.4120110109750073
Ni 3.1473634675613917 4.588269256477136 13.32304421402235 -0.6998882190637494 1.076458930044217 -0.221298962856935
Ni 0.2220279981149035 7.559272560168556 7.776487360673578 0.46306339265707347 1.4464532733587478 -1.2887029817877353
Ni 7.04943186540647 2.120934691491937 8.51588491182503 -0.29034722380484834 -0.9213764151133551 1.2769059891528074
Ni 0.6948221067227223 3.5442898504804043 1.923301233673625 -1.7146722978059887 0.2983487539530862 0.3284077781219957
Ni 7.306008895728824 3.965829808527465 5.438415830226798 -0.7741265088530345 -1.317468483956202 0.8539569480181165
Ni 0.919176885865002 1.9790261078916915 4.067815581640041 -1.5347742664933437 0.6369247308573354 -0.7246780244139197
P 8.1368098676697 4.989604179436051 3.0907271856971814 0.26208180120125185 -2.3995069649707257 -0.3629099256639234
P 2.466796259043484 2.55447515958446 8.110827324845049 -0.3087195556644489 -0.39713156585095477 1.3015376716585585
P 6.188411511634175 7.433002692288809 5.016595581844569 -0.24921600098217728 0.1453156653520852 -0.16374019060585993
P 7.230534690245684 8.800244097422004 13.532766352686922 -0.4259605742675051 0.8455484122394471 0.5670154074607073
P 4.988156322075578 5.943203874046308 13.424556649151695 -0.8079336872104667 -0.29502380334491124 0.09495598195261067
P 1.1071375427789205 4.987348863163006 0.13757243642836625 0.8595277572376745 -0.21355891390019996 1.943570927387053
P 2.5696962241432826 7.261320221429597 2.788797879785383 0.1850921739190748 -1.098122788170896 0.048382762178761834
P 4.8997627739912915 5.891981279351099 8.317329837109954 -0.11979643803505818 0.06741766732302583 -0.7813744486646994
Ni 4.076219651126635 8.569747061862024 4.385257379810142 0.08037808413843577 1.95974856558818 -1.8349469610290463
Ni 4.5845753639805435 9.151859969867742 0.08815780720636315 -0.009317163635867824 0.5071359574962556 -0.9005383953220814
Ni 1.226827084578055 0.9253432732387106 1.2146316706571443 0.7346081390434381 0.15545121112419036 1.2693004088914075
Ni 5.704390939800532 4.7107152959433245 3.6396516761688154 3.054410906014301 -0.3208677609912087 -0.2941951367960288
Ni 4.639259822749192 7.808703115057804 6.3457648351931635 -3.831219846795505 -0.7792057231481548 2.347875613947679
Ni 3.647032036252459 4.2494335095786555 7.133698091899714 0.5562548265100936 -0.9389347357120926 -0.3238957491842551
Ni 1.1913917037941613 1.0617991888948657 10.774327999900542 2.112848502871374 1.1809562758283598 2.7298379282573633
Ni 8.11728235557716 6.283171919649774 6.18413012317016 -0.010261529827008134 -2.397483249672477 0.36395919286404416
Ni 1.3327248569049879 2.8878164734226823 13.32877717230161 -0.4125317024561089 -0.04691954736967404 -1.8450172007808545
Ni 3.22809079654471 7.450191357875966 0.6739627514812866 -0.4340667483144073 -1.591873839719813 0.5344199900231893
Ni 2.2579706782059743 4.886490748186952 3.1076522669956383 -0.8079259739009828 1.2615824714218595 0.7701577540132736
Ni 4.304452089276644 2.5037723085571124 9.172245059012253 0.2663359484919155 -1.0708549535938783 0.7580697125004879
Ni 5.807309467174183 0.9273906920446108 1.8312973233250813 1.1174744532246303 1.6286107901295306 -0.2692292108793105
Ni 4.914621874209996 0.48781191626795994 7.924687626996034 -0.10663059007706151 -0.767623160516878 1.215151947873462
Ni 6.446130121798441 1.1235094683165812 6.3122534340940515 -0.2569552786079639 -0.678633166339715 -0.14655879373056693
Ni 9.190868588368188 0.8731303812334849 12.916981479913272 -1.3101601232202469 1.4282963999440628 0.2767337467864718
Ni 1.3144874228451786 8.82508041983628 3.4069874951365877 -0.8771344145758443 0.7590207635598476 0.21227670475366667
Ni 7.489849655961241 2.722305958619335 2.8722714971851375 -1.063220576977072 2.009480385595668 0.9254894088404642
Ni 5.935769683368493 3.9886149996810683 8.078565164776194 0.6094146983625247 1.7445955677279825 0.3412095578723543
Ni 1.2919156978408752 4.550847712391054 8.25129826033544 -0.018541767557929356 0.29597022641858056 -0.4120953862496387
Ni 7.697218098301351 4.327989052521263 10.005425714460983 2.1691739169359803 0.4335201317823179 -0.44803323779682835
Ni 7.150160044465559 4.357967124792603 1.051031213833191 -0.007902799786844454 -0.13841996667351647 0.7604053026122001
Ni 8.360847231929105 8.260054084911534 11.834739658824954 0.515424422757293 -0.8778787489410365 -0.9711534865364823
Ni 8.870103215064846 5.946907047679827 12.84965982510603 -1.6777039481117557 1.4506824809487466 -0.8289902507704499
P 5.73384926840401 0.5517134721179305 9.97475341314757 0.8240465336119291 0.7837732879141791 0.49633141068158393
P 8.277549028017255 1.4345853346690622 5.435699241448525 2.200412306124972 0.4344598699877679 -1.741249276963569
P 5.357452760365557 2.9375448050727875 6.3310263897544985 -0.36964235929175054 0.33556367244048657 -1.1873297834548713
P 3.8860120309629056 2.8530864590451728 11.610769118751415 1.383740981931191 -0.18238917316561493 0.6554731832834839
P 2.413633906730717 5.05906420819107 5.471723974427227 -1.2822163456221272 -0.4615222734221987 -0.9628182271979095
P 8.294310761305812 4.55558109222337 7.696532222282512 0.529288839444211 -0.789517132376492 -0.021884715888233278
P 2.8862758046929478 1.2281450060215628 4.213870049105181 0.025582990675426912 -0.2656155253861232 0.5748212766583712
P -0.0005067500761656905 2.8933387498937186 11.314925454322069 0.8633270763791068 1.5919306610996777 0.006072174336008897
