# total energy = -381165.98983218963 ev
CRYSTAL
PRIMVEC
9.28487264125265 0.00000000000000 0.00000000000000

0.00000000000000 9.28487264125265 0.00000000000000

0.00000000000000 0.00000000000000 13.58934963978773

PRIMCOORD
 96 1
Ni 3.3559799851621985 7.7881788136928 13.088160385353023 0.1495137625938328 -0.12432492203303104 -1.0189142988605289
Ni 8.382187809589107 6.813090800374769 3.1387186137186007 0.3237291416994037 0.577933854145424 -0.3315992884760999
Ni 4.212360904999326 0.3012086881654517 10.38811949491526 0.3442858828048329 2.332366976789119 -0.3910722470307523
Ni 1.8975865094302862 0.4299304450040795 2.0085602326992036 0.2328185334607603 0.09505008432831373 0.06250428918180849
Ni 2.7437912091301375 4.527155218442936 10.612928539123084 0.1511808658836106 0.12064078831322447 0.5425989262895559
Ni 2.504910012331022 0.5015892331203813 7.895683708637551 -0.4588164444552614 0.19121294210483197 0.987282530887861
Ni 5.703010027407239 7.547449927288468 2.6748593880341986 1.074955348915497 2.7499393269929286 0.04742296936865381
Ni 4.484899764205033 6.89344208602074 6.096480635518019 0.0875702310115008 -0.8601250245020411 -0.010792719740129799
Ni 4.586234861447942 4.77172804201591 7.702117331528193 -0.06602027275486695 0.6145535622509868 0.6182163558145547
Ni 4.9276303342832435 6.525835418434042 1.0335799239008738 -0.0767512860191259 -2.298541029378609 -1.6403512184949105
Ni 9.130548524063949 4.33111442284217 2.3027152033114726 0.4716953573004586 -0.45675390549927786 0.6698538774851883
Ni 8.316283785378904 3.2609957406326995 4.690812236128749 -2.9829108410917855 -0.6864079251891275 -1.0132966955634355
Ni 0.20029605261619854 3.0618537976543325 7.9099118470849605 -0.030409465529792793 -0.015306291339767188 0.13764529329102101
Ni 2.2937627293549383 4.87033338677674 3.0050127373820805 1.0921174625170802 -0.33077730679543677 1.659883117880251
Ni 5.418085148435906 2.7728250050874923 9.461475303281754 0.3022439752424343 0.8356674056803093 0.4497707893132254
Ni 4.736445526941416 3.5343330988637773 3.680485346636445 -0.3716771303335921 -0.621708171017897 1.0589399473238472
Ni 2.349063429298017 2.0342041217476905 3.938628011204518 0.41605642777991564 0.22386595225316283 0.7474202032064418
Ni 4.460545543931242 7.460896346887296 10.66569632587871 0.8571625994396076 -1.4672794660754795 1.7781626050501507
Ni 1.3989052983418342 6.958696169163781 3.0137507307864513 0.4559869454262663 0.31468888587400645 0.31935775210458545
Ni 2.230179923241741 6.556289799866765 5.57864566118031 -1.1599079397984928 0.8746759257330226 -0.4469551742413012
Ni 2.617563369014933 3.0216224455970186 8.807583522918875 0.23602341355130319 -1.296521963611522 0.25819892120707794
Ni 1.3260004803510594 7.525936877965413 7.6492000583271205 1.1559075603898479 0.06416676448589594 -0.7989944757393078
Ni 3.5774706159785428 1.0175941591104107 13.49287868787466 0.5797763066708015 0.12517492873815217 -0.4119038390641229
Ni 6.605016810159121 6.242368264427629 6.834233383289542 1.5800241394700787 -1.268597983507744 -2.2452960540115394
P 1.826733648237265 3.503135927640012 1.535691895336701 -0.5596471400210943 -1.3414933861158898 -0.8643246644056857
Ni 1.8952374367161156 6.594144224592744 11.44518086108545 -0.3282938782519507 0.22244876019066206 0.6808497143750596
P 4.1450827196756945 6.117505300553464 3.366135778580221 -0.15977503531052484 -0.6993721986592794 0.07679473766255161
Ni 8.20609091987782 4.726631416827272 9.00068844187055 -0.9706068700043929 0.34158108227916006 1.3573874316383268
P 7.447962519650776 7.491805687067032 1.1571170079980282 -0.05339692756390159 0.006036178891750894 -0.21646297492087238
P 5.262062152827528 8.648171548888868 12.196291754761624 0.6710270718576831 2.1596176407061134 0.5824402266562098
P 1.6073878229425547 8.950301296395212 5.901296833638669 0.6267403341251658 0.276016409004473 -0.2311329182282213
Ni 7.3333129154034395 4.931854951219795 0.6996327756952448 0.2611405203339051 0.23020372154573254 -0.29409897753779674
Ni 3.238006396599949 2.3710500071128613 11.287979615171032 0.7482972064947564 -0.8800320478386134 -0.6934059537735154
Ni 5.724105257472831 6.671050822582758 8.66709690427738 1.5575496125166466 0.24227993598397626 1.5063545777000702
Ni 3.014315251027643 4.412542753685152 5.3801861563224636 1.3289386893793307 -0.8273200621568784 -0.2026409814361155
Ni 0.7822477132294166 4.352497483951792 4.9933115215561354 1.9525127099613728 1.118135483847397 0.32166248897836214
Ni 9.221595982700924 7.894564881514794 10.369856150928015 0.3317250154206868 -0.031398311805623344 -0.953717807558538
Ni 2.2496874401289824 0.1333177686707003 11.674474498656691 -1.5898359833541782 -0.05054737393024843 0.017218677871131634
Ni 4.603996822326234 0.2941549706122688 1.8943962272777606 -0.29910440117218806 -0.3406603702371036 1.2432114251138393
Ni -0.10513725248580467 0.5135732179116055 7.863082664708716 -0.1432163596208953 -0.32097883264777627 -0.02911748619124663
Ni 2.0284939252290553 8.331371703009445 9.611895806891196 0.9567702212316167 0.0843892621803579 0.9208187428376723
Ni 5.3832668769808105 4.56014437003759 5.488412485851764 0.8981719519724337 0.7933285357027821 0.4377953621189041
Ni 6.467693547540227 0.16720662439975392 0.44850018978013007 0.8764435591564066 -3.2341814106101463 -1.941849830930888
Ni 6.413163492005355 1.5679549699106112 11.66216182938293 -0.9666733392779415 -0.1746205849637896 0.8878841968931805
Ni 0.03735768405321986 5.494146823038609 7.156069343952231 -1.3732899618011962 -0.30764534876366373 -2.410250062419842
Ni 7.814120747144943 0.28886723578728846 4.703043198525494 0.931949048422879 2.2839942419126853 0.9998642242076135
Ni 8.309236567236393 7.255672812494772 8.164970077045732 -0.8101103831468113 0.9206788748256982 2.0174364072179514
Ni 6.771986670312981 9.015313972856166 10.276062227038661 0.047861342457653056 -0.8641757975326473 -0.3835772242052878
Ni 1.0911953425302874 5.843248739955972 9.253748567293417 -1.1942977301322721 -0.23735807320232669 1.7699445880157325
Ni 6.728375624706426 1.4700459905788843 7.6775477022150005 -0.6413513991701213 -1.2824330896186236 -0.2536213291387245
Ni 6.863702639761895 1.036423880313326 2.537213011856201 -0.13521662924487035 -0.5360199875204574 1.7420524895911547
Ni 7.025231564696371 3.8425072982947253 7.038834831232067 0.5699204969226443 -0.5995336918033868 0.1661174325887849
Ni 6.34153070153174 6.92316296253481 12.880325016357748 0.46995292068805516 0.35504492109354985 -0.3115698806290505
Ni 4.280604717051312 8.162089909630968 8.352761263529738 -0.6091030806593768 2.9078724239987084 -1.3090928582979973
Ni 3.899275008075112 -0.13621372036852541 6.1162806258854845 -1.3107059684213878 1.5714821634373386 0.8165371126087615
Ni 4.205183698643382 2.724859354330954 6.83367629094626 0.3682341660903142 -0.7463861055149726 -0.21356148500336122
P 9.266581189420906 5.217411201513515 11.21160689734333 -0.2310575849055956 0.22429018427477504 -0.09141685845110063
Ni 1.346399344987551 1.8584693420595355 13.236692345918742 -0.9496912028976483 -1.4090527212231023 1.6952933790587448
P 7.319515595034834 2.9217079338294787 1.883905249966531 0.8314538818195938 2.0365836695703634 -0.6200984033286159
Ni 5.863582610485747 8.873728953811167 5.000092263861109 -0.06146273529117158 -2.257685171704512 0.4317203595694178
P 8.399160556314419 2.0042325536791448 6.317457812891306 -0.148104540951132 -0.46765486868249784 0.5693090885908905
P 8.289469073922286 5.5897717237628815 5.009522908745628 0.06801519169770867 0.06326456438660072 0.6413747962088889
P 4.5186131358459525 0.8576510903798089 4.164877139119725 -1.290565488917771 2.7067944161743385 -1.5105681015607855
Ni 3.719844849176523 2.3796385140717846 2.0869431253989132 -1.1697994878805917 0.14999301622309652 -1.6362986456920918
Ni 6.068657586920064 2.1240816864637755 5.333968847036591 -0.25398591156699485 -0.19667602210193225 -0.5375459372466806
Ni 8.86629177102836 0.5685517327828199 1.1589461278584692 0.022816740784199412 -0.7026130741940803 -0.6275029233228031
Ni 2.4607047348916335 5.5263096209907285 0.6465298050464117 0.3375521636254251 1.200357563173107 -0.11377774264480406
Ni 0.3290345222251248 8.814593601571834 3.9087177232937336 2.630551694360515 0.12471778659607553 -1.0779170026469822
Ni 1.92319418747646 2.130766794583154 6.452358652304165 -0.8861088501603126 0.7291918531238731 -1.3684377759152175
Ni 0.05986978564522605 1.8163253062902884 3.2153624498200326 -0.14191178187685882 -0.008120829334921498 -0.7121662651001541
Ni 2.7966128481456134 3.5499966785823758 13.1445019194908 1.772709295245063 0.9421360162582096 0.06610923292424743
Ni 0.43289789021929237 4.270762752320005 13.535848148799202 0.18800934756586976 0.6213243053159171 -1.167650816968705
Ni 7.3314002316915055 6.605026095031509 10.595452552314345 -0.8038204363730415 -1.1142034957828424 -0.537390642615739
Ni 8.56959367386901 7.135053035301935 12.531798761528442 1.3282547759384287 -0.41253067401484433 0.04538177056890894
Ni 5.260901543779024 5.182825051868119 10.179454986815735 0.019675624052056435 -1.4995208426076885 0.92574471938438
Ni 4.447231036926814 5.697429819102035 12.473147151140525 -1.2005593947712678 -1.998379133476184 -0.5273304301662596
Ni 6.4857247697177725 6.635174075675428 4.419419130175723 -1.1518907259209712 0.3581654690004025 3.6375579289295485
Ni 0.7037060492118715 2.8024623177500696 11.28648475071656 -0.21648817173185295 0.5841597804504778 -1.5659740891349159
Ni 0.13733533295299888 6.478491854127501 1.019205084469733 0.5890127376674049 0.49052945928782626 0.13548633796648923
Ni 8.679442999091737 0.2187311667426228 11.838932800829589 0.23402335240213892 1.6782701050278708 0.8731443195798447
Ni 2.074602601507989 4.8040208281814625 7.50455474534303 1.7704451818012346 -0.2940439559301452 -0.8712183062017254
Ni 5.209500490238916 4.266343153063305 1.6415524393815328 -0.3948893067839973 0.3762398100036101 -1.0376458138317615
Ni 7.8144642874232995 2.0117440154410575 9.691230399010678 1.7223791795319434 -1.4631621014729963 -0.6303488774120305
Ni 3.345618067577162 6.348689338142907 9.24041734751869 -1.2537490914203697 -2.194248600516421 -1.7699217051975968
Ni 3.1825292840814976 7.617792120500146 1.7154925206435725 -1.3280848260194675 0.6245541251071244 1.1484202508738672
Ni 9.02295542283151 7.807992731368846 5.949077715434685 -1.1508399160589535 -0.8349793784743491 -0.5653655305621103
Ni 7.336934015634769 3.6411741254327845 11.009153040384154 0.0790663073055477 2.4854172917813 1.3088892269276233
Ni 6.9329399331594 4.8598971902126 3.2794085710653924 -0.12153990308872617 -2.5912991766177953 -0.9571890539365903
P 6.970525096586126 8.396133687915922 6.888128353553073 0.24564473869115114 1.0479577372807307 -0.048843760975580394
Ni 5.759118511248075 2.171508814621809 0.5260966537885741 -0.6685223031579584 2.4870455714133426 -0.36320560252747125
P 4.550423108647328 1.2243032730850183 8.406507675835062 -0.7290010772693059 -1.136648712160236 -0.9341990207993202
Ni 3.5775727495748106 8.145098593160881 4.027122129934788 -0.705929540161823 -0.261104267779331 -0.23716961134060446
P 5.159148627278656 3.5402939869368892 11.614599142088032 -0.6908515627827779 -0.260308511350913 0.6996797025973692
P 0.8978935842839882 0.9933606421776645 9.820193562531394 -0.4001418134321883 0.3120013117395143 0.5368190863829851
P 1.3484513017853048 8.8184189689957 0.06602658452572563 -0.1936827438015632 -0.0045025158560438585 -0.06094260112164344
Ni 8.296915541577484 2.5376206177540355 13.052026447480547 -1.5140959122083857 -0.8688063543261231 0.5911688647784593
