# total energy = -340854.692363173 ev
CRYSTAL
PRIMVEC
9.40708468454850 0.00000000000000 0.00000000000000
0.00000000000000 9.40708468454850 0.00000000000000
0.00000000000000 0.00000000000000 13.76821931852455
PRIMCOORD
 96 1
Ni 4.830105321949194 3.2546443869895616 5.691809341509002 1.2935518252396045 -0.5689403923975621 -0.175857028474052
Ni 2.666061904851498 5.14725577909666 8.97314821305238 -0.7210501978533452 -1.9022615271153045 -1.198586330205297
Ni 6.520088107336343 0.4694746778676522 3.4742311454891808 -0.35986316841779964 -0.580101294110388 -1.3923495495358085
Ni 0.808854076411555 2.4240834623882996 5.614638321303472 0.14490840261133753 0.9871470337512614 -0.7699703205928159
Ni 8.869375838432612 0.37849499787548263 11.915251614449387 -0.7633013932130726 -1.7743709992182024 4.463694769411603
Ni 7.282033755363077 0.48506692093349796 0.4862700870801777 0.6747693125089347 0.17286452150463133 0.22495532866259965
Ni 8.605375410438707 3.491138499010897 1.732840523054531 1.546515466189672 0.30787803359976007 0.40534624045126316
Ni 4.8195882011361535 3.663231708450766 10.213636968699692 0.6676082759841212 0.29770469261118404 -1.1830046737169562
Ni 6.37662065696095 3.5618045200731197 1.2025988994659471 -0.40406711662852346 -0.9579598706643437 -0.7511593585338998
Ni 5.205034093974745 6.025896314141082 4.816343697586585 1.10173004590618 -0.5069726924455139 0.23012607423026174
Ni 2.937757328216662 5.417267334281561 1.383678697020931 -1.4532731244940582 1.782742768221665 0.21287474334898177
Ni 3.821251919020949 -0.017849002710790842 13.164345030568692 -0.13968109277412719 0.6800629568077062 -2.9255922098759743
Ni 4.89999996205733 7.50785082612967 12.137346301758269 -1.3361177236262731 -0.08573317780276202 -0.9775748166817938
Ni 2.820140546887992 1.0714199239725535 6.796970597263502 0.6202058754407577 1.6597887583942317 -1.9573548685450224
Ni 1.7390971751589617 7.564472069576624 1.3128038386760166 -1.004687613738186 -1.4533386876246712 -0.023591414166694854
Ni 6.409724188393053 2.2240794323292064 7.3951172625237644 2.263531860293276 1.8678331702341056 -0.25971664340318495
Ni 9.190195058654396 0.5539060861264068 9.891515807940767 0.6824844217650052 0.824846146695089 -2.8432595731143286
Ni 9.17723209579181 6.188234376637192 5.759397364422721 -0.1602584027048466 -1.0057343098351454 -0.6975904241685082
Ni 6.696762567076704 1.0789173705628878 10.670521204263073 -0.17982269799001935 0.21251787423019528 0.7137732045759578
Ni 1.0888418450331547 8.798126578112422 6.194128855976594 2.2272859905873643 -0.7252588366180542 -0.022235157249116545
Ni 3.3226387959668973 1.6192791359857022 4.2681618225645925 0.3141330133705364 -0.4507588642581075 1.2191700678939197
Ni 2.5167056193875865 0.15451136793756698 1.1427858321443378 1.1059551397311211 0.9192231162157782 2.3576594328073206
Ni 8.731834851484962 7.900361439657523 0.48634064021622225 3.364242720906322 1.493875471396453 -3.806801822962457
Ni 0.7820053156669212 1.6091571127345103 2.4925566919822573 -0.30112503114664274 0.23715881270732703 4.651163928203286
P 3.6742097764192985 9.046934564144733 10.257530426404209 0.4975336585198012 -0.8065635463358174 -0.20607906058338704
P 3.6475783193336815 4.667701409859444 4.7345331031547655 -2.6233006692250562 0.06493063923511398 -1.0167702559343328
P 1.3504622805711561 4.1212438534823805 0.6234432570119164 0.38523532863400106 -1.6785377568669606 -0.35875965094097567
P 1.388833779494586 9.368572200744632 3.892785273302279 0.3581320446593058 -0.14542827967054953 0.646325712456261
P 3.56386467164562 8.042201464361488 7.0573276613120655 0.7758478624195154 0.33852815438544925 0.8117646309207827
P 6.436016990425655 7.669304622654021 10.288770414336255 -1.3839600399205325 1.7998863698804872 -0.8349768073711877
P 1.6170308427170823 8.733057772509733 12.991306409105826 -0.9794311531642421 0.30872058410571346 0.12547574780802262
P 7.256634626387038 0.26421490952747984 6.65635631570975 -1.9286402742191495 -0.3021928102895247 1.2280966809595881
Ni 2.153206455401253 0.519397136224296 8.692730540655148 0.0005705277914893399 0.04573195481947608 2.7925039398280167
Ni 3.270213112343393 8.854221024810242 5.109138271462991 -1.429008852630055 0.3603588771072955 -1.4456703724461362
Ni 7.5798808744887545 1.598047345578695 5.101758413432731 -0.18388581231579945 0.9237423442423703 0.19368865733883414
Ni 8.482020307378415 7.2948650190383795 9.827479900249772 0.34709352745695704 2.2310251459148223 0.4156795040564712
Ni 4.920225194390101 1.084100674290961 8.430308621491681 -2.2148415941764243 -1.0229239342405545 2.338664893982689
Ni 9.449134475022703 5.78392727876269 0.8314451905730204 -0.36709053940417424 -0.9825766407717592 0.5171563178467351
Ni 8.76724311869452 5.762592010422818 8.051268953405934 -0.8448179618313257 -2.2561445666902693 0.0671250757832715
Ni 2.795493984696429 2.756257033970852 2.462156756723381 -2.159742082099119 1.4044121371272975 -1.568531565449447
Ni 0.9327002292987183 4.436785699128031 12.116336518552682 0.4244425949610819 -1.1077909073882792 1.0360645853875703
Ni 5.002640664374943 0.8945526189936698 6.042582601169859 1.2685745864689764 -0.6213739276069298 -0.5610211375504854
Ni 1.4387289573052926 1.7859068291533198 11.904938627376632 0.5853831113346176 -0.7275746292354244 0.10527176205632191
Ni 2.9367413630576205 4.398451828543824 6.746179864979269 -1.4108303819488155 -1.2260498257328885 0.2494263172207704
Ni 9.333502588588088 1.0743925627712305 7.272387730603066 -1.0347314683984437 0.28597429154813325 1.2871346088593512
Ni 5.365076827778205 8.238677837618354 4.7139908520640335 1.2761269448949377 0.2434644432103807 -0.0664326777019372
Ni 8.305656281436649 7.758126317391707 7.26053292233062 -0.6029244626524907 0.39820268742794646 0.9141675560697416
Ni 1.4064250280816941 4.5959441669597325 3.8615452853702323 1.3950101270871074 -1.0251101432585958 0.6030491611558131
Ni 2.9358853183402798 6.579522069140272 5.547160361281982 0.08441651587386752 -0.8070664541141648 -0.2844503987044391
Ni 3.7676691639663136 1.5206740730498371 11.133836122999798 0.6660471021445884 0.8872185382847236 -0.5403957479906499
Ni 9.045015518844322 5.185693127613733 10.211227814280893 0.010830000735968445 -1.8031419007033074 1.154651833605876
Ni 4.290477309141243 6.211018336037179 9.967048113973103 1.6902308769341727 1.5105146226150308 1.2829439678167711
Ni 7.093732138802573 7.693527866029317 12.426478697519723 1.9126827224486287 0.5752671059465384 0.1952212919332767
Ni 4.139625297193187 3.764809410185308 0.902353914423236 1.7911201936520829 -0.5977971687282544 -0.26692627377774675
Ni 3.181128019231139 2.2508896240261356 13.373099530914272 -0.0666386230651562 0.3603161967948182 0.47379620569354536
Ni 3.139548704388884 6.85616561911336 3.2702686141437476 1.1440097805109974 0.9830191276258168 -0.4939004326425881
P 4.681341682828057 3.4753440036217236 3.148612430599407 1.6545701903077699 -0.30866581960837813 -0.49553231181905627
P 3.20089230440842 2.8229720794145803 8.913256126218402 0.49886548995734736 -0.7161874704444052 -1.158907009337804
P 9.018327619249868 2.3711686103548866 10.992835210260521 -2.3623707222400605 1.5023248877153867 0.5331817467407141
P 0.7239908829602076 4.530423821286359 7.024848760311076 0.6287853895796525 -1.0051247012756044 -0.8834611281248205
P 7.979738421250047 5.650864064182667 12.844344226725026 0.7115227179788842 -0.5955579949850904 -1.6499149509239457
P 9.047658909674789 5.497914272322886 3.201524460507379 -1.2921724283935745 -0.35141838008455606 -0.9824334303256759
P 1.5932591394124715 6.038473586526624 10.494040530469714 -0.01793010211585944 1.079282001315309 0.5388327743789043
P 7.539044719346168 7.859196036546728 1.9285972543237424 -4.83085884236619 -0.2121977718866152 2.3143216892516336
Ni 5.232164126555076 8.47932047403911 0.8150909736378933 1.4218989810581513 -0.9220978666604119 1.344277633729246
Ni 1.2202023772633028 3.1326815324805475 9.82739711790348 2.7056793287332885 0.4087197849091864 0.6292595010025936
Ni 8.567775292469365 2.669156835752653 13.129498366322048 -0.0889120897513759 0.40457696638540647 0.2560955017108299
Ni 7.30526925483375 9.369908006787076 8.771843183164625 -0.6115605410609337 -0.17392715844119078 0.30994340076922106
Ni 0.7759866628080807 1.3178385104641557 0.5273480043022766 -1.3330971916323946 -0.050937924500447755 -4.774678695630197
Ni 6.745114982979238 5.983122299528473 0.7166618231878998 1.3024748387608471 0.0026862885829115027 0.3505413767962414
Ni 6.738821643244063 3.322384804677137 11.649180687089695 1.3941444366527023 -0.6800696416759255 -0.14109262840967313
Ni 8.77359290093853 8.95300482235742 3.1426097697847366 1.1995648920684825 0.8773897251197599 -1.2154540524949131
Ni 7.541377676378041 6.9113381715002 3.971594066972523 -0.36491795723288767 0.9355347088916081 0.3441503856682331
Ni 6.714099824374053 5.698586205403201 10.975556276888971 -0.15164057912884854 -1.2929800118965344 -0.3851067734759368
Ni 1.5909261823805982 8.42428902792436 10.542312045442916 -0.05067310087483531 -0.9589196634744519 0.9364073413045486
Ni 5.150689365050829 6.17215766870384 2.30445544632812 -0.2354343738170526 0.3524769032560575 0.736763494823544
Ni 5.0607670413908465 4.5274794037421 12.571017614854513 -0.7817966238037826 1.0220744417560657 0.2668815365827404
Ni 6.888507176676183 4.782166817778124 3.2776211916280706 0.14518916707654997 -1.5593303585661533 0.04672054398499051
Ni 0.3581098451010103 6.853033059872982 12.151624375076725 -0.29223492774586446 0.9119070421703391 0.23792911521444832
Ni 2.7796524538832257 6.089873897906282 12.369436957381943 0.669967263134601 -0.3728079015039257 0.28113084741290295
Ni 5.790361724769953 7.991073958441204 7.594233263777177 -1.2764681302844403 -0.41166781179391687 -0.5528468292698091
Ni 1.0061817908433586 6.943124711059471 3.9394321847294944 -0.5667040468678756 2.299640690200691 -0.23035695929414524
Ni 8.745136469400562 3.1277051846182053 8.833304371744235 -2.5097203873030387 -0.1598151445198409 -1.8469434712692903
Ni 7.791455618859154 3.82486423958643 5.843714006246843 0.5386227152506272 0.7070615968837372 0.25653824567520334
Ni 4.797161710958791 5.428659313981554 7.726752748855418 1.5431954006775035 0.18887632355185538 -0.3160767673604685
Ni 8.556119914394806 8.776923008959832 5.306726562143919 -1.3220707586149039 -0.16098319668601307 -1.838531850166827
Ni 4.58331985915016 1.299889792654422 2.0246031397277258 1.1418863064100917 1.1565228253763438 -0.9065326652323032
Ni 1.745672727438314 6.803598829217767 7.392281026454773 -1.3849797394342986 -0.10519822850590915 1.5992341367396266
P 6.88142364181731 5.8114053734808415 6.136206612700979 0.5493997512614731 0.6544043756993375 0.4171056949800365
P 8.772680413712353 2.7212344572383373 3.764603395028058 0.31005935752179503 0.4249095072951714 0.5397138914322769
P 4.288878104724234 8.864286605552598 2.907228515895944 -0.24204853669946053 -1.243321982549775 0.4917311929054112
P 3.1592095116332986 3.794676904444168 11.560513268542826 -0.7308954660785412 -0.3036367418249029 1.3378581033561476
P 6.836062678883066 4.341482522959051 8.778809129463424 -0.4255607677259251 -0.02476049477413155 0.4170501591517527
P 4.694219981927389 6.317374836853139 0.16187711534061813 -1.4227520730870657 -0.3657134565509895 -0.2389909808200594
P 0.5224676087049548 8.524022941036938 8.500444082970848 0.26094845892775703 -0.6617564451890345 -0.6240789852429187
P 5.580771875293607 1.5594877049591465 13.665384240794197 -0.9490939356332816 0.6654346653715701 -0.23314326379003075
