# total energy = -340863.36896258296 ev
CRYSTAL
PRIMVEC
9.32080215317274 0.00000000000000 0.00000000000000

0.00000000000000 9.32080215317274 0.00000000000000

0.00000000000000 0.00000000000000 13.64193611229021

PRIMCOORD
 96 1
Ni 0.3520681268516234 0.3849435273492992 10.255257066567498 -1.0317937259263585 -0.3652293178257194 0.5245914339685417
Ni 5.47160900029816 5.5908779818320715 10.045034767691757 0.3528234879621988 0.8186479883041773 -0.19788906857342695
Ni 6.374198176276424 1.1438767756163055 10.248681240803808 0.48086493961486865 1.3555835456603686 0.33417579095402444
Ni 8.285326083804692 8.228254813569295 11.851636406103445 0.33631212057073695 -0.7630964762911181 -0.024110519894958476
Ni 1.5811901607060264 1.954842468593761 8.533713338275055 0.5852699827955211 1.7107883893705504 -0.32614649289164477
Ni 5.801341689477876 8.485434380503001 12.573922125330515 0.7534954628662442 0.10515631952438019 -0.7263795804860587
Ni 7.5821834275874975 3.6363151372962985 0.042675291649969894 0.45356008115232854 -0.8625135793388758 1.2278215729213304
Ni 6.207066876816861 3.8656721104601752 2.194619166238472 0.29999040332156723 -1.321861727927891 -1.0924799880628218
Ni 2.80990487551596 4.119412301480625 9.277444358589435 -0.8981593535669434 0.4354587435659275 0.17109560252966663
Ni 7.286695364709405 6.0065764272393025 7.612091084749724 -0.6693077751737312 -0.2003529567328872 0.5996509341075414
Ni 1.8956833387253853 8.957421148783261 8.401358882907488 0.9825085065379853 -0.6976428746729985 -0.2651218735791563
Ni 2.511862912908242 5.112208198565892 3.1059959942791133 1.5476737481638312 1.0357329130797648 1.8042454181801313
Ni 9.25086795603804 4.2612935485038514 7.865763233916065 -0.13482350757150974 0.6770161995615823 0.5030347908436885
Ni 7.5351040570242125 4.720930254222966 4.186587321011331 3.1545880271565347 -1.4736018087490816 0.8150913813011705
Ni 4.769696689936113 7.2760510089019865 3.178011306253595 -0.38344249839963634 -0.8854262222709911 0.1995921673074627
Ni 4.477433624526818 1.2748806467837899 12.002898108191983 0.6348166833753971 -0.9188114825996564 -0.9367822081454641
Ni 5.319241851100375 4.931086375404984 4.042719811096194 -0.310333180008472 0.39838215042860425 -0.9316204614388665
Ni 6.6417424749595595 8.270282309484926 9.447586277073338 0.8994752441648896 -1.152552527874686 0.29521123676536903
Ni 7.0796337497691235 7.0116757828760505 4.574522825781104 -0.005109810422739587 1.3661489798810407 -0.17032658557412603
Ni 3.2370679073007085 6.735332647168219 10.18228637239489 -0.07084931871239411 -3.0722240229363216 -2.559900607701856
Ni 6.851022440759882 3.734752126510087 9.000881251955986 -1.792536357273319 0.7906427613405028 -1.4921685160076752
Ni 0.3366328788506732 7.506526478297816 9.65604880854414 0.7197008829143023 -1.0571072649904827 0.2904737220803836
Ni 5.537208804302198 4.246948834329055 6.667073618372713 1.9920243949027499 -0.2778794303551408 -0.35106228229671793
Ni 6.0202686852787926 1.287612862224187 7.607371030650884 -1.6705254280854458 1.4636565246109114 2.1224423172073963
P 5.707555780428625 6.928627437653548 0.517479738354559 -0.2828650564951902 0.8525022178494609 -0.3111626178883028
P 1.1062020942033584 5.92413393414244 1.7071384289050835 0.09800171075746993 1.0978474230223223 -0.49659572008656405
P 5.711740820496516 6.670282770478225 6.227475704729229 0.1659449115666626 0.06192090587451272 0.9820305384603023
P 8.682317679732511 5.8270298196050625 5.888323413116081 -0.8786459661243642 -0.9318042953148985 -1.436208712812604
P 0.9773606490843165 1.131983432349873 5.542936437089989 0.24985774833123417 -1.5134546790799615 -1.0653962444721523
P 4.788226444178799 2.1113480538497718 2.6408199359712525 -0.402742484279829 -0.8827453330047185 0.28453293111591643
P 8.70104317081579 3.3154651723586746 2.4637470691700143 1.3416674497999088 1.6170904481947568 -0.008787259274326801
P 3.9158925912748606 3.7192889161033387 5.007108700130437 -1.522631460483223 -1.7639906844251427 0.6579617540332927
Ni 8.98169251701664 8.525607036833977 5.479146732821329 -0.025260831449317785 1.149740769457504 -1.5069017084527918
Ni 6.8982695857579595 0.8254875023889775 5.533346263981187 1.1642921849091175 -1.054202432638862 -1.5238141679374144
Ni 4.843452195631474 9.089785857032956 0.9367014468924416 1.0313075303185593 -0.3220651237334195 0.42387026739737965
Ni 0.5672174016291182 2.3715848438174816 11.558717156238073 0.15480020780375275 -0.09927466393262258 0.8155809193430792
Ni 3.5156853186801773 4.867108390937278 7.191932635617581 -2.137825998752318 -0.8902562966697828 1.5028043984549666
Ni 0.9680957719629731 8.211747673346057 3.1077287313584474 -0.613456472532066 2.5228772363999714 -1.5539986619405946
Ni 1.061779152190962 3.548410654266733 3.9466661509366587 0.7377076039043683 0.5879806968584648 -1.0157582697300507
Ni 0.6416794241109964 7.660319710191341 0.3095801833205056 -0.5030764427149013 0.3707538471883744 1.0196226377814632
Ni 6.19444651099966 4.976422756006809 12.48733653577446 -1.3104771402400335 0.5884645784734188 0.05006066410181701
Ni 2.0018845559493137 7.917834825994632 6.094275852626343 0.9037592162522241 0.9792321497795587 0.5997062128255092
Ni 7.622467933541668 8.458292205274278 1.2807974918508207 -0.7108730002100273 -0.2947911185088149 -0.37769042640720757
Ni 4.483669241019955 5.516190395943416 1.5180743504171172 0.681422041938762 -0.9598108078301536 -0.2175202125407931
Ni 9.147062184910878 0.808872240863317 0.20248416911101472 -0.6915241633697703 0.053597473610481894 -0.4322194106930234
Ni 9.449615415654138 7.155607606324525 7.276472309149355 0.4426961418546311 0.09660225930678201 2.1693459237374704
Ni 1.2211369028384524 3.0943757505093163 6.25751478519871 -1.020699930006042 2.485513708149848 -0.02188445877791715
Ni 0.5680087377132249 3.0305841820802684 0.5525184969808704 0.2762655489008016 -0.1253497637531196 0.7325314590200674
Ni 6.9181415354789895 8.623596627554983 7.1412945828763 0.3180457181613813 -2.9221127359678065 -0.32854096126575033
Ni 4.008662532913421 8.823425300195304 5.079055970250807 -0.243868877737651 -0.9135564048483039 0.49595500117877167
Ni 0.984519024968815 6.746983649584396 11.980961600842807 0.5762212423296915 -0.19000838027376954 -1.6189853512246248
Ni 2.427192748149407 4.520365238229944 0.8825047119731635 -0.4518248436287767 -0.6193527834118431 -1.601103328737881
Ni 8.644251524638381 2.4348078433286195 4.755074215863715 -2.406904028765745 0.2301481857174488 1.8584908097872572
Ni 2.897212827221818 9.259368527400882 13.311705541931484 -0.22942519150849522 0.2177834935045088 0.004594561349217894
Ni 5.607040252383792 0.06971773429801131 3.664169421792699 1.318882076474277 2.008998046642611 -1.6151942596133086
Ni 0.3330639437905502 1.3090041026602866 3.132734578784141 1.488424989804843 -1.31904791262818 -1.3248835454733505
P 6.639645294524648 5.856697932157613 2.6253632501258566 -0.5045455710612601 2.3922649386963317 -0.5147150553950942
P 0.6674365281724852 4.215835997476899 10.098988229680584 -1.3960102862168475 -0.0867626475085409 0.03618519167130542
P 7.183215821649895 2.8144813892650338 6.500641379058121 0.9895443303388441 0.42146911415505484 0.600333819107179
P 7.7779295889811895 9.162087317626778 3.358180543456956 0.8830268688008792 -0.4193155581471617 1.4770563429565853
P 4.080936031101445 0.053151873022595456 7.152316431162003 -0.3949337868686876 -0.2963366086190638 0.6967805266727033
P 4.366767743177011 2.9662426863371776 8.219211771533956 0.5799138606899302 0.226493619683997 0.6653289930316413
P 2.286653696604524 1.1578579785157168 10.295023335934196 0.2965371546656441 -0.04870852094929676 2.5324103727013867
P 1.6119488070847314 0.031615228076342226 1.3102913054072256 -0.5861030202197777 1.267911756073997 0.5805036717551294
Ni 4.543956187922217 7.276805993858555 8.053243708155623 -0.02350785331395306 0.4196372031526385 -0.16764672474911774
Ni 2.6618346160092607 8.4023021480631 11.256862053559587 -0.9241388083498407 2.864063654343874 0.35918311163163946
Ni 3.0142261746879573 1.5695391582898504 4.271617268724777 -0.3118480739911016 1.3505284997349645 -0.7105174166428215
Ni 3.363896059202235 9.17495934509617 2.602090139779496 -1.3017240766377516 0.32039930599522237 1.3877529313040617
Ni 5.1253971333010035 2.5510941682439903 0.3388325881068473 0.36000406487103803 -0.4392637191343145 0.7203873674583658
Ni 8.340794176107623 6.038006171357179 1.3445042409822785 -0.258958939301554 -0.3183982164047936 -0.8235243425598721
Ni 2.995221059546691 7.272294725723011 1.1505728397249304 -0.4305489649691359 -0.34510375072043786 0.02966513116460052
Ni 6.052621188788031 2.7147022045729017 4.663427430858073 -1.3530954891311922 0.6418378518882365 -1.5770583719735356
Ni 1.5015159457832477 5.6381437684340145 5.780156438764496 0.024180711011261583 -1.0989421987483976 0.3579554098721255
Ni 0.2762583164102419 6.29450531974978 3.7206329757420686 -1.4057491107711662 -2.6388306465398554 0.9392982896990983
Ni 8.97431044188575 1.6844739669249444 7.419685498768799 -1.6697754372932985 -1.3282470626289447 -2.5497691756948093
Ni 7.358735842849105 1.813082391995663 2.331911782470112 -1.490457961074472 -2.4151004485336083 0.10262378291051358
Ni 4.560202345691334 3.517297817414576 10.773145988126913 0.6112113852516312 -0.32597577164173536 0.4217169684998027
Ni 7.500141728973752 3.5912677015543957 11.239290477755608 0.3088707365303326 -0.8443119687291847 0.08052283724641617
Ni 8.11676870164939 5.870567285433829 10.11788242727885 -0.047200054724570326 -1.1887130369556431 0.5892446511725529
Ni 4.219760055090667 6.342479487298626 12.356510691923894 -0.3977630287873666 0.6032453363270192 0.17462958382485408
Ni 8.569824921203848 2.4233991817627 9.427559602040219 0.5273121753338144 -0.07383308393106638 1.7529616803044905
Ni 2.640359488355765 2.201014168444663 1.832193764278965 0.21197819967664136 -0.4527895215348912 0.3194893925864434
Ni 0.22011539804736574 4.601866330331579 12.482685455609923 -1.2447168060147726 0.06910739632062292 0.1848720874884687
Ni 2.844913807576086 2.3777365730932223 13.116243664996748 -1.2228770844318617 0.5514674324237793 -0.22563384278686302
Ni 4.191042664335276 0.6175077884583008 9.607237632981715 -0.08413652273960348 0.3281468111511252 -1.975240490576192
Ni 2.9919494580682287 1.9594655863524997 6.5096312925224415 2.687093338200985 -0.9271176884725065 1.4430391054708762
Ni 2.252427711906765 4.172978950189236 11.618305042995361 1.623853992170836 0.8313618363264199 0.23737504248319116
Ni 3.9301347766283947 5.884129052246258 5.351745351600926 -1.771585208942949 3.2902646267569593 -0.8161051672776656
P 7.9345936278700595 1.0068703080040073 11.686950885071086 1.1031611219257518 1.3234833226917144 0.10956576144598551
P 4.908837621191054 8.228431908806021 10.61069745955846 -0.7072657424747432 -1.6403082810721168 0.7817611425801568
P 8.635797557285203 8.999672343945283 8.398698726035827 0.2584925411880968 -0.16766472247124672 -0.09265510173357591
P 2.1239963820727725 6.253521753650639 8.058441919393625 -0.09898747170950695 1.0332515414188075 0.4976303319986656
P 2.470208249069929 7.232243239817164 4.1048858316681365 1.8386575771114142 -0.5887700255289796 0.3178593131821881
P 8.012832439295165 6.148075521383278 12.584658757077069 0.6896806824031284 0.23231536857209664 -0.22616426136903628
P 6.576851051902425 0.8987825604688515 14.088299845701028 0.9817366613689674 0.41597209559622556 -1.3761636838045654
P 4.1134656298474095 4.290150751288237 13.186472179240685 -0.09274329057200802 -0.16687307980788682 -1.2948206646496991
