# total energy = -340893.2004085579 ev
CRYSTAL
PRIMVEC
9.05924653293466 0.00000000000000 0.00000000000000

0.00000000000000 9.05924653293466 0.00000000000000

0.00000000000000 0.00000000000000 13.25912302362522

PRIMCOORD
 96 1
Ni 6.37316184527637 1.9455819124080578 11.470229159100661 -0.3169553133106799 -0.13169190392106353 0.22660983354688716
Ni 4.446160447588555 0.2587891553646469 6.149196433736499 1.0650103218876432 0.43727985593506624 -0.5660628137394509
Ni 2.976660061059696 1.6487104022264982 4.793544504809185 -0.858416783561683 0.3776783422223496 0.18343638348320668
Ni 3.3524013719016357 4.201406782938718 4.665567246253134 -0.025965570825826248 0.7064039086950802 -0.14271499450444455
Ni 5.205542732283674 4.573116729055886 2.6422914233898087 -0.19939290681246305 -0.6685819527513002 0.6399406348655237
Ni 7.547321734294428 6.040814325516813 2.539573156127264 -1.1863090554998408 0.12672710371662047 -0.17577115362846502
Ni 5.40083291064754 4.495623933874528 11.752820578909954 -1.140417692284365 -0.2355444170323556 -0.29665953917612137
Ni 5.453947273302239 7.60795527160432 12.678506170710838 0.7132764674451973 1.5175756432268703 -0.7968236933402342
Ni 1.9515519558993502 6.667442410938189 0.1376615931420788 -0.4012741272644186 -1.1139744104911717 0.7098494440415195
Ni 2.7399600666128308 1.5138272800082122 0.35840644252541787 -0.42688694273651645 -0.027579452280165402 0.6418013422233464
Ni 0.4210647214442691 0.13774131451191698 4.682021555802806 0.09309347482257516 -0.635044483115487 0.4266717414019168
Ni 8.742553430840172 1.8491281141504117 1.4089674068559226 0.2851944759593153 1.806897768201314 -0.12356516104887107
Ni 7.00662966186 0.7675356066103886 4.8478537820868 -0.8758635182832205 -0.8065779445135205 -0.36187994173751226
Ni 0.7435503453849782 7.1834389772159195 2.2997549690101358 0.15084919357580473 0.8748332772464934 0.30354726743489013
Ni 7.518314026769211 3.995200212454963 3.8986730343000793 0.548207787835901 -0.60169521823108 0.41192003701403895
Ni 7.629715581871519 3.762549701226015 12.595251694709356 0.5998144562685993 0.12274575047136926 0.5211140169429025
Ni 7.9853091283361675 9.02728555061455 7.022999720416547 -0.5839456075571426 0.5355885564099937 0.06427603637025059
Ni 6.8109499358935155 0.8306993914879865 0.44686454975815565 -0.5432902959296256 -1.5587130366971285 0.222686587233081
Ni 1.8034423336851813 6.568488260626526 9.140096724483543 0.9348232846468805 0.5145703022871138 -0.45557454047919604
Ni 0.18191238895022174 5.0111584785770615 1.249401461426142 0.5640331849039318 -1.642331996370365 -0.4009663662160127
Ni 6.04044289640734 1.7088366217283295 7.003203454806272 1.1586270162035401 0.9687767587741896 1.2761305444393634
Ni 3.4760963246028567 4.127918174742416 0.5111091027518556 -0.4090550567614181 0.4649544390321992 -0.45406581714415345
Ni 6.104845080291402 5.859674690299228 4.931280383773159 -0.3648264259603459 -0.792108547252752 0.09775848439841228
Ni 5.45657445480827 3.067623955894393 9.352428251574981 -0.10142744860956728 -0.6678481599090692 -0.36986887348025976
P 0.2851642458358886 5.456828113712302 12.248194676289996 0.3510897931005437 0.47450120218036995 0.42305214237145855
P 3.988387659032426 6.003299985459998 12.763549847910392 0.3375632193690186 0.22229192289782362 0.040776924807045895
P 2.351979713651413 8.526472281592367 1.5399414641781652 0.3667403551536071 0.2027728790282895 -1.417921998688274
P 6.604154514382547 7.768729720526874 5.902218724053108 -0.6687986967477967 0.052521981158116 -0.3029384302062976
P 4.728274445103476 0.9019331532123877 12.882683469962348 0.05207538053900063 -0.2006182945791319 -1.4949208819418318
P 3.8850760111193807 6.340403609670129 8.133743071577634 0.5989294825604847 -0.3312431906882618 0.1388943352067737
P 4.917259387852866 0.9067128117040504 4.047121472336061 -0.17568502167256195 0.6036554272812442 -0.9103926624083417
P 0.41856074569162394 5.483154284252051 3.6285181481855457 -0.4520346456467376 -1.4154588818597622 -1.9179820231743547
Ni 1.560609229308718 1.2314505643426887 2.753455626231917 -0.008063750844740952 -0.5346781287805824 -0.6289918491635038
Ni 1.7753949062966519 6.524641507215518 4.758235185368123 1.0380301937543737 0.9750628488932174 0.007604037599503033
Ni 5.919212058773844 5.673217277343571 9.464136915136097 -0.6489906608829339 0.21993807795366638 -0.9638890916645851
Ni 8.651064099704268 2.5013123341528725 10.358636956535731 0.4445267673054667 -0.6248027507828207 -0.06447375420335347
Ni 2.4320000386265037 5.221034043922687 6.801439538841682 -0.44270565493632785 0.29139854788749814 0.9179730458587609
Ni 0.5505521564039608 9.042151774240061 8.91901396520305 0.13112574700494836 -0.12521246684430695 0.8503512329447291
Ni 1.5240098731557272 1.0372293770743808 11.329045330891185 -1.2198910052203444 0.7454975322624322 1.1610536233671616
Ni 4.263707221617954 7.09160539471026 1.4868651503590709 -0.7341936772138388 -0.9434261958245429 0.7355728169495525
Ni 5.7089469458256 7.975090298202363 7.980042988303561 -1.2038720040842685 0.250291236324227 0.13051202468034942
Ni 5.191645848041425 2.807188735427519 5.099564948104336 0.6258967551779478 0.7663931447645188 -0.3135190339356213
Ni 0.7356461527504524 7.608589418864397 6.784110106073104 0.18687497685111043 -0.613102431626757 -0.12669882158184634
Ni 4.882154807384342 4.603184368430087 7.128091510281094 0.4781305714028411 0.1588306691193845 -0.2430435536228782
Ni 7.880819778368695 7.467908378839696 9.040613514172046 0.6473716372222722 -0.3042931444619792 0.685845110707122
Ni 4.698378931414152 0.0989179133253722 10.497499805773327 -0.9700368564335358 1.31161768160238 0.3032922140012905
Ni 8.308760467961509 6.905147981754604 4.631636744140408 -0.496669510747293 2.0732152047504684 0.9290588713592774
Ni 7.1544131511975575 6.059992750510843 7.308296231252395 0.22167974323512143 -0.6459629298002038 -1.425081749661507
Ni 2.575960525910457 5.377351343531562 2.449357555059456 -0.5965638105417854 -0.2118193055012739 0.6018353433533699
Ni 2.54476048071469 5.071266579585747 11.4495043207167 -1.062626652146815 -0.07962912178755319 0.5027712527696566
Ni 1.0840928595940391 3.318184597597218 3.8009663422414532 -0.12838135149059182 1.0947795827302758 0.25758185644836934
Ni 3.647107722152362 2.507146488945577 2.555284607457989 0.9318199790441823 0.6032445649960708 0.44562668523786475
Ni 1.0891207414417892 3.3866543831923424 8.096697094568617 0.5241065239123232 0.49233617347926173 0.36203215104466036
Ni 3.5154768694536114 2.5756343930338463 7.248921929216084 0.02693950470332134 0.29448541434293796 -0.3806821620456799
Ni 3.8478787446926037 7.084919670739739 5.78423925001449 0.9959620609397299 -1.1375246870072862 -0.02350965308616596
Ni 0.6825671211573865 7.452027519598064 11.258082440639303 -0.13194695735466308 -0.7254910072335182 0.23381817836986826
P 9.30638281902082 5.808136636548148 7.8950917154190465 -0.6461765884729065 -0.9171016989974012 0.2486555004930169
P 8.600730925747333 1.8200388734060422 8.087230181900331 -1.0184216754948268 -0.9039343083775078 1.0352264057569913
P 2.0198314973164515 3.2396046928271587 10.436229403429385 -0.9951282521845249 -0.9733432950989495 -0.20559954984380718
P 4.237381051078205 6.1394332837052925 3.7661081732797013 -0.8605731677830534 0.5611491784879175 -0.08174436835834309
P 7.107151061828708 4.0564950747646495 10.460201981709593 -0.5640213578293898 0.35253243908434123 -0.4138532494810098
P 6.206362997383088 7.728905272594067 10.431177967540545 -0.6047458321319455 -0.8942031971326728 -1.10417336524035
P 2.3343141828349947 8.810552135613525 5.671245079364733 -0.19806364647807825 -1.4591280406129385 -0.6086312832292808
P 7.070832542319466 3.8782272207105533 1.4850877261815423 -0.08675621975063769 0.39721461248306433 1.0487851182780326
Ni 5.28550870177933 2.737269470380791 0.5738842459514923 0.5603691057887834 0.5386240008022078 -0.22134087183846396
Ni 1.2641182074832045 1.2131146492799034 6.850325951120984 0.6255167461307098 0.4707147385547442 0.08298081186860548
Ni 6.823605703355329 0.895103387221363 9.254934451810808 0.1759472741950131 -0.25082396889924546 -0.15241268140818265
Ni 2.450000761566106 1.4835784557025598 9.239487530480002 1.2285455955715485 -0.19992538227716536 -0.8610632200455944
Ni 6.2669602977066905 2.1646707315179397 2.747211087569477 1.0223642050823425 -0.31245176901337157 0.008717068158023698
Ni 3.8518829316776584 6.771424443097601 10.52666967381219 1.0689379390768237 0.4553117737361126 -0.2409542751940173
Ni 8.292372290911816 7.108437474842007 0.22375523701938826 -0.5132307575400838 -0.17154374581067874 0.006649901216349838
Ni 7.753039105463266 3.8884369915977866 8.334486010453501 -0.3641836501700244 -0.34361559621068566 -0.3531248212527015
Ni 3.016602279197947 8.43684009600383 12.346736630882608 1.1557278402788742 0.3309529131413526 0.23572979357028434
Ni 0.47387831711276024 4.826666922127642 10.011936872431328 -0.7453185834824068 0.25965776514079153 0.6820609610743416
Ni 8.326072688161599 2.4090892040445944 5.9329540298997046 0.42264205141723343 1.0566899749474061 0.029364054984413943
Ni 3.76770441252578 2.68716277758817 11.588924313618508 0.34105246346919976 -0.45229869794140165 -0.05349360104276593
Ni 0.9958286202379534 3.3033274332182816 12.510685439804174 0.4403268702915062 -0.12777277137231544 0.5340561789258672
Ni 2.963487916543248 8.35789782137087 7.709994095373926 -0.09070389154447604 0.023498083121940176 2.0338225618854584
Ni 5.7649512081369325 7.959064491015571 3.5588416709469612 0.08369506432681069 -0.8259113547348098 0.8321964164125732
Ni 2.981841950099179 8.366748705272224 3.5040676543201763 1.048642422052581 -0.6641977076406754 1.4521115000857894
Ni 3.495129801651726 4.339143567827349 9.242484329246192 -0.29357318694131374 0.6207293520443954 -0.3612911591135778
Ni 7.309471215532851 6.1821929275275975 11.4090248892567 0.9873462942462607 -1.0183432568484074 0.4664629052569257
Ni 0.7325080297377308 -0.1614194672785188 0.18541922329844518 -0.3563358719908315 0.8854226227265655 -0.10930402314416658
Ni 4.713091147847929 0.2672785753277577 1.8857917909540671 -0.030738823844753516 1.3565425671395284 -0.7716852464013936
Ni 5.990852580669352 5.568347439020052 0.6014977354291979 0.5501127181680977 0.14538174270333026 -0.5723429903212078
Ni 7.762995217446468 8.740116493512163 11.353813311020462 0.9530230954843588 1.2941382938706938 0.9232612908408938
Ni 0.18004980785491112 4.922740232029243 5.730447255716166 -0.7765024652843789 -0.8489628372376347 1.2768337411539752
Ni 8.033594912567713 8.889068625657575 2.6165685986717886 0.19322123078411238 -0.1420472790134586 0.06892227689301034
P 8.552010297680308 1.815282768955468 3.629711250959147 -0.9874221417895188 -0.22886289124712197 0.30174929499420294
P 1.8283280840199003 3.2783420311712645 1.669575658932332 -0.4692800629907466 -0.2501110019926209 -0.9704605742345157
P 4.518235813319544 1.021004266462993 8.471518891883445 0.7980665646083998 0.09202800967253828 -0.5410932882783068
P 8.472914015855615 1.5652656820469943 12.52805473325767 0.606996061618703 -0.24969833993523446 -1.542796622577188
P 6.595367045207199 7.774518579086717 1.4367720464363083 -1.1309557755405168 -0.4163603321735797 -0.2125888366774468
P 1.6933543693358888 3.286812426716573 5.974627470057965 1.031988615545984 -0.6402352832878071 -0.36783538798999876
P 6.815325551988044 3.9965772179339862 6.244556780932842 -0.4602212952225881 0.41469965664170516 -0.7196792856477476
P 2.3332270732462916 8.415179437448929 10.252749764822116 0.20052573486532563 0.5236720074780659 -0.8975132353425124
