# total energy = -340885.9166038307 ev
CRYSTAL
PRIMVEC
9.10082347256740 0.00000000000000 0.00000000000000

0.00000000000000 9.10082347256740 0.00000000000000

0.00000000000000 0.00000000000000 13.31997507744120

PRIMCOORD
 96 1
Ni 6.5399882770131885 2.1192996668310347 11.305355105729332 0.2858259388957271 0.5486222496655003 0.22395491242254334
Ni 4.730680860123532 0.8595946212307849 6.09765822236062 -0.5338983131917644 -1.2999088778058838 -0.32876798967489185
Ni 2.431849248174959 1.2935910518075109 4.724475008581196 1.3221610043358647 0.7171377501728166 0.3366052263311235
Ni 3.507666694532196 4.022136246795307 4.370150827223153 -1.38150360796024 1.183274382438575 -0.2571051739222669
Ni 3.44111237230152 2.661017084642983 2.4480650954812107 0.5763875927042267 0.2957660808275745 -0.8054294327313742
Ni 5.19134634387471 4.585941363233517 2.4374890284958055 -0.08066399080997076 -0.3638931155127991 -0.02190245650004615
Ni 5.2635249750262885 4.5371973525856975 11.63335970553519 1.3146083887995876 -0.3237342839057263 1.098292480979541
Ni 5.421970312102191 8.022421416375265 12.352705176189188 0.23574059220356172 0.6636186952087539 0.7658719821537262
Ni 1.7916518193062423 6.7205759176563316 0.4167085062625744 1.6444955796805871 0.2399988532592834 -2.1163526593698907
Ni 2.6444717875261543 1.7472489014663037 -0.22297472607858398 1.1405848139898487 -0.8229949524189633 2.5939810943253327
Ni 7.912001124890949 0.050496829253265485 6.86444901614947 0.3646042826472108 -0.08317672992949547 -0.21070858893559838
Ni 8.872984380368017 2.125060488104386 1.3037138977827853 0.28363381634041474 1.0972085038867427 0.5161399607670789
Ni 6.80768900016584 1.150990248439199 4.878055045415813 0.8706665474633133 0.08805822639151287 0.03177857796317753
Ni 0.7943371663483748 7.736946784933742 2.240153142371858 0.24529635421279689 -1.152056562074874 1.7937002956744332
Ni 7.823104280976106 3.95719277032353 3.817145658028365 0.23047034494355795 -0.6923124635990207 -0.8764592428856907
Ni 7.930566804824024 3.625030914344421 12.86014252213647 -0.14368275773435255 0.3497263370941138 -0.9325524863348327
Ni 8.10895204618099 7.21119221153484 9.1266607345124 0.6442955694001097 -0.42226898434853083 -0.5090804828171361
Ni 6.812312218502116 0.8661444839012918 0.08611745241897956 -0.3043579362616436 -0.9846898304600203 0.5725682189581365
Ni 2.193252958564451 6.529185599522717 9.173333397732392 -1.537407847461449 -0.7660306192187776 -2.0327123595404153
Ni 0.3306929830667567 5.138388651947962 1.0188344601979409 -1.2604570995681648 -1.1799520029335615 0.5173632916512186
Ni 6.785938032008953 2.356558135387541 7.312692785910131 -0.02163480466095629 -1.074197644813866 -0.8432331338427091
Ni 3.573966193704967 4.532983671306769 0.37450798770881444 0.1282833924601468 -0.45367063858826384 -0.014904685025974331
Ni 6.433526843749897 5.774945751418037 4.395777836107245 -2.299845092902013 -0.24920031725289343 1.2990128483541756
Ni 5.679123180822277 3.1815295837078397 9.233393372315891 0.9812255260605036 -0.039230663365848566 0.7361106917308936
P 0.12729139808232234 5.582699955875741 12.132020217302347 1.4172378281370561 0.5886769515945409 1.2025959655853224
P 4.142785863889807 6.2986344378832095 12.596407027781291 -0.051166238461169945 -0.04217560492678543 0.10950405497011462
P 2.3473207995384864 8.744535357536927 1.1360421458460244 1.6103675276486267 -0.061646569167203506 -0.15234968938073115
P 6.54716882675201 8.016460376984988 5.470273842892775 -0.471340287953885 0.01896599957954153 0.597916467914938
P 4.733775140112377 1.3822967784289253 12.430693773060998 0.9046017667581776 -2.3059560908957577 1.9401068800978523
P 4.029617123709516 6.276473932668975 7.911345865599193 0.04408490613435633 -0.2336052910281138 1.4062710447129072
P 4.81822168133738 1.432342206836759 3.6395230656804154 -0.8270482965527304 -0.9665514689880966 0.801610058985284
P 0.40816556324631076 5.7006830316857355 3.3781319434579604 0.25644568596139705 -1.247633208330619 -0.16984218973853976
Ni 0.506621912161988 8.94252377270558 5.028450704108968 -1.0102075151151504 0.5812423496933666 -1.0714437362178129
Ni 1.8934991350567547 6.805468399232668 4.76379602658063 -1.0060371857875448 -3.5751852802295976 -2.1632657789816614
Ni 6.014297409378763 5.921833042653251 9.142018374162923 -0.5412778934852871 0.35059536996262847 0.3109093642269162
Ni 8.845044852233439 2.7456274406909245 9.899139542986628 -0.014380437091388138 -0.5771627803073544 1.1989740525620192
Ni 2.741532070117452 5.010485678526668 6.4946598054236455 0.077047477103306 1.2935255999873594 0.7359440842460423
Ni 0.2701624959084837 0.10481691445745495 9.300006849899296 1.3609085574177078 0.23991786350970296 -0.3130780897434608
Ni 1.4652416837769882 1.2903511586427194 11.139095801599243 -0.8097396300709537 0.0010387256771595013 -0.5704262329144693
Ni 4.006164301558764 6.996148853133548 1.5879408063229232 0.6399642890146076 0.033491446889226194 -0.3937505651938638
Ni 6.135320160236623 8.244727231926847 8.106976257399877 -1.790809861500516 -0.517251962884335 -0.7940911249004194
Ni 5.332381805601606 3.12241063427389 5.061137221779377 1.6652125005129643 -0.43610100513561667 0.29769929329454536
Ni 0.8315977579081772 7.8483681670026835 7.286479683992859 -0.4821993421555761 -2.0937524054718715 -0.24605740074853752
Ni 5.426238598322099 4.950147218744174 6.936576682689467 0.510361920632721 -0.4436829312479327 -0.25349920173856344
Ni 0.7993635511655501 7.570310706710894 11.103064731293834 0.23567888572769088 -0.9915803869322665 -0.0001537519690448965
Ni 4.512297499498985 0.30529349477008033 10.090813806813337 0.9625122659217165 -0.05679335483996026 0.7317652702780043
Ni 8.250679170493628 7.120966647389492 4.295345698410454 0.8879140216898515 1.7473178517551522 0.7840152287216563
Ni 7.567616862955899 6.353293983803822 6.673347194120697 -0.3716231371672052 0.5213919531946375 0.1620412056368822
Ni 2.403873316746393 5.1935214406903984 2.506659837481756 -0.009237202327551833 1.3474953693355953 0.41600654837858675
Ni 2.5169055445742345 5.482536292472101 11.439567680080824 -0.960985801974861 0.06153729728284886 0.38232406852447703
Ni 1.1745340788249174 3.409132078534448 3.728287947654558 -0.34818521785923906 -0.494926045693625 -0.16429066379269122
Ni 1.6585795781388761 1.0798036070487504 2.57737505621508 -1.1920737258977598 -0.09715813181025203 -0.6754298289110691
Ni 1.0703933555532603 3.5381089491283415 7.727237116345214 0.3123982900676168 -0.011524455699831765 0.8260237119429581
Ni 4.2661748288567845 2.914411313258971 7.328423559324014 -1.4147240605762668 1.211172908621056 -0.7555461747476859
Ni 4.35758350005669 6.928111096672924 5.830619129076172 0.4459259616458385 0.9722852861480804 -0.8928155727565269
Ni 0.5464907997359176 8.922210734661157 -0.14019636580050898 1.3249205693588733 0.6514188107084523 0.5367229271247531
P 0.2773348549061585 5.7093288140075105 7.82824260592229 1.5672951219391846 1.0402457133484537 -0.22528854363230233
P 8.783159252456521 1.7765171498313872 8.022447808763404 0.13324793555427375 0.05620842887076771 -0.9394918937671431
P 2.1072956806390124 3.3292814531752306 10.229567692089635 -1.0276169688408496 0.6652274344567705 -1.5053379635100979
P 4.2167118531527334 6.045686149618556 3.724145252798903 -0.3316640802757643 0.8072456600045065 -0.0369817194306718
P 7.313967811282007 4.281418708213598 10.593150141190774 -1.2401793231557352 -0.6388587146552546 -0.44453525194589893
P 6.274389844088252 8.044581921589499 10.309700442977245 -0.17692326495503724 -0.6515090564294135 -0.7596509409446789
P 2.525787948306921 8.37091925053078 5.672111906400493 1.0610140562440564 3.773050951764257 1.5760029341258277
P 7.166243244285105 3.9323475221777966 1.6545406326710825 0.26543966192989127 0.5364167087382439 -0.5357384517242967
Ni 5.6497457225752346 2.9548189695839 0.31136465412466596 -1.0722724027666954 0.8580326607493868 0.41701159260433346
Ni 1.4335708180088007 0.9917895430130783 6.964175840025273 -0.07844769988494232 1.258811850655258 -0.29745272450137805
Ni 7.188340043734863 0.929412498767344 9.315524664043357 -1.5325235227859544 0.21261094816463386 -0.09703831840293611
Ni 2.8582137281674314 1.5140129968952973 8.764077555831188 -0.5201596234494332 0.9643670597422681 0.8459718729301108
Ni 6.532034157277154 1.8934445301157752 2.445893638994921 0.615461675887553 0.6353962100279508 0.13495283406052241
Ni 3.893022863848964 7.132888726170045 10.394535589365553 2.5200999307651504 -0.15120760535648795 0.8479187122438365
Ni 8.274996570876558 7.200780869454723 13.561466542102488 -0.408183195679426 -0.6767228366908797 -0.8862068091907577
Ni 7.72772765073168 4.422126540294617 8.277098861104273 -0.16966581206167555 -0.3013278911860682 0.2281823202403296
Ni 2.849577046669153 8.638019319332656 12.065193780449123 0.8552797805945979 -0.553340481076776 0.6350231429592482
Ni 0.4852904919682943 4.9769491439416775 10.031167009616585 0.10782332483358205 0.43321159940296355 -0.19354184734832472
Ni 8.827243641474078 2.672038181897372 5.747182779259292 0.7964848219435766 -2.2708191379833083 0.1399662281147138
Ni 3.8453800528442343 2.435971921218921 10.979802267773458 0.33069066061890146 1.6033957243164838 -1.101912337120315
Ni 1.4927534732072267 3.5047453301897855 12.32806287640743 -2.1134288008548765 1.16833653018182 0.309275428167919
Ni 3.1651390005904534 8.37258470123066 7.714796290625354 1.7726319050399084 -0.20395712914437775 0.15109241993486236
Ni 6.209264351146542 8.550915337646645 3.308242169415778 -1.6850467616300722 -0.8903519417073829 0.24645052242189816
Ni 3.4408939525376008 8.464239094664974 3.602027672874401 0.5886072746988702 -0.23698269214077894 -0.29938876518182633
Ni 4.101076789804863 4.668640546347171 9.811787108819159 -2.73385939071193 0.3371914378518967 -2.296600874933103
Ni 7.3728319376580504 6.353712621684665 11.284283059005292 -0.4129842166124952 -0.3791446423552309 0.6037557003045344
Ni 8.099141358451648 -0.05978603979625076 2.151948871125107 0.8563848407333188 0.8327072946107207 -0.06449689413180505
Ni 4.501230898127112 0.5378350065082961 1.4258369382013856 0.012563181376991266 -0.2953696167201042 -0.42327042902985174
Ni 6.234801261878019 5.563670133944339 0.28457364991535855 -0.3956850632124153 0.6923260904457754 -0.1158629073086069
Ni 7.941041852668617 8.891732076771026 11.365162077419624 -0.019196627533108874 0.325351250683859 0.2833792771274474
Ni 0.27102616405831154 4.924573904718712 5.6204301499279685 0.2673253089883783 1.1983834701658715 0.17638487595306396
Ni 7.474752059996536 6.176756209616667 2.2666738521233167 -0.05238545558025171 -0.35306337188714676 0.15881447116946842
P 8.675860543431542 1.5892131014477486 3.708214261268095 0.535862893117303 -0.02360504101344967 -0.483908868647515
P 1.7511804572168375 3.532093304797085 1.3108962676863063 0.3367754333604006 -1.9233155195721263 -0.3887489982142143
P 5.069486317255162 1.2198743814850062 8.24018956133144 0.4260868154327242 -0.6934653462565412 0.03135048928682342
P 8.689793904204844 1.5443369407859868 12.518046207228467 0.12910203170670026 1.4053565033184376 -1.5364292855982635
P 6.461976018000286 7.981149181818158 1.1517437966247177 -1.2180439247092765 -0.6696839275662273 0.06142699695722969
P 2.4540552575066763 2.9961185066114955 6.034268256459714 -0.7017545828485269 -0.8279723510288967 0.1747396270401571
P 7.167581065339106 3.9489929283530887 5.980761784876121 -0.4031695445149186 2.2556336884921215 -0.9344335054076295
P 2.380802729182498 8.68942987126498 9.759758610971415 -0.9443605347133541 -0.062290630509105625 1.1840570262408705
