# total energy = -381165.21573947644 ev
CRYSTAL
PRIMVEC
9.26450112519522 0.00000000000000 0.00000000000000

0.00000000000000 9.26450112519522 0.00000000000000

0.00000000000000 0.00000000000000 13.55953386685207

PRIMCOORD
 96 1
Ni 9.017296497167562 3.2644489010655926 0.11684944761077387 -0.9336431482958502 -0.8429238301324062 0.8279777503455354
Ni 2.4254371450020606 0.08121632316374801 5.985002098976443 -0.6366663349896261 -0.28947202028874663 0.7579411573424237
Ni 5.594711825422784 8.324154312217967 3.9518313456302065 0.03266020923718246 0.5679173504496864 -0.9067185559908642
Ni 0.26591527163257367 1.8357423802530501 11.176391277032549 -1.196778587572597 -0.1720782781579101 0.1267528147482333
Ni 6.005119963293618 8.000230292883087 11.29598672279373 0.6915077083095381 0.8473615541887859 -1.2770008628594587
Ni 6.226208019505937 4.377022848037496 7.015146999579846 0.36871933325684886 2.2646423197486354 -0.9934300385464956
Ni 2.94159956386785 4.9619000721717565 1.4887960754803728 -0.4915141917985986 -0.10276930734944235 0.8255413729899007
Ni 8.415548616380493 6.735422062485068 4.106830156209095 0.4020030350106431 -0.6444565204580062 -0.3310534432749589
Ni 3.0726181395866994 8.730134018523701 3.866311661667321 -0.8198296673171042 -2.018380773409092 -1.027275526341031
Ni 5.1964494486018316 4.162040098104255 11.767302470786785 -0.32929609426422 -2.4261050271742284 -1.0942550776853734
Ni 8.470672398414658 4.613721588741845 5.571653408430375 -1.2516711258454185 1.4494735482423102 0.21355428591450962
Ni 3.2373409706064384 3.0955848380174045 11.25717958024168 1.0311758898367016 -0.45371537578327026 0.9824565702541274
Ni 5.756923976622143 8.964785304466782 13.52215000606711 -0.03372027507058064 1.1424717465999163 0.2516546923306569
Ni 6.781642658883125 5.443672662649172 9.350654558056288 -2.561640730321414 -1.376942985172751 0.23893313099893043
Ni 5.761130060158868 1.3809294882158722 2.207423976732117 0.11817407194028678 0.6728636108457895 -0.27658333725153655
Ni 3.1478736826898124 5.065755130424359 10.013227594905056 1.0992062510430618 0.2181699303096501 0.6258563888583156
Ni 6.938518457401531 3.9495124409842988 12.948608825579404 1.320701389071203 -0.10884225301639963 1.1219790259632034
Ni 5.240502151723252 4.2484315716283865 2.631064601641504 -1.3181459696392008 -0.743521382372668 0.12495561363849447
Ni 4.180874829007692 0.4785828227203807 10.059004421696487 1.1249900448753851 -0.14334311500674668 0.39663071495513624
Ni 5.871859378288672 0.986085712331156 8.325445783682767 1.3015911506043132 1.9851970875682714 1.5447367770226945
Ni 0.5633863607418814 8.851295164984679 10.22947494924967 -3.35672430104209 -1.9668026442214834 3.6332582731129297
Ni 8.694901120527748 1.153170991152359 8.84099211321994 -1.2332085482648567 0.592667817921489 0.10893789805399949
Ni 8.263212423441372 6.992234035255999 9.673317678780268 0.34715523393282793 2.018055528859189 1.2135468081698713
Ni 9.26718788755538 8.438033560749723 2.172359692657679 0.13905400071308954 0.9045773412781453 -0.818263608381565
P 7.528741298717927 5.689672962540462 11.408761642784569 0.03919518214222281 0.470756390425957 -0.17304089918149554
Ni 7.900516466658934 7.829874645144563 13.4702576820453 1.2151833153320297 2.066139014629977 -1.751249068488758
P 0.8308358337702294 7.384613453826247 12.627193633164667 -0.5837430046280334 -1.8946893711950017 0.12204461063928658
Ni 7.773565006959076 -0.032224714462089875 4.409465278277368 0.24722699557660652 0.43499105990088954 -0.5485242906350554
P 7.092577847560543 9.000935388079775 2.158095140187426 1.0662732477604668 -0.3607172888879787 0.5639449960654997
P 4.400072926978841 6.017803065412066 0.1990894981551564 -1.973385182535008 0.4338875424240657 0.9111130855141342
P 5.386492161352558 8.067944532023878 8.965522758760885 0.8297433268863905 -0.8587011475713212 0.6338000691854246
Ni 7.390876256625422 4.305695453435642 3.3538828367779634 2.027078044072773 -1.235727972252601 -0.4919764761469979
Ni 2.767853108696636 7.403448184729685 11.475378964985385 -0.301845454252435 0.7019988376488491 1.8022227313231476
Ni 7.18200807747244 8.441841270735612 7.700296699359548 0.33783498497316655 -0.6354828562044863 0.7726645795955274
Ni 6.292791989502499 1.5567419271507195 10.837308680863334 -0.1607422843198006 0.35801531657578345 -0.3552693783995301
Ni 1.0492140233867524 2.44938588055808 7.59586075688282 0.8590909268105721 -0.1067444899471065 0.8149036907703966
Ni 8.021733200127002 2.714072679333892 6.615737677512537 0.00963520909691889 -2.0144693541698278 0.5934905709331004
Ni 4.636225062113439 3.8113694638563276 0.38379307887457315 0.7470463648067909 0.40501919612914766 0.6659907949853562
Ni 2.0673919678130925 1.511290284350785 3.922162707044289 -1.2962666530676064 0.16546591504771502 -0.14853108696558937
Ni 6.8902967287481145 7.242069838636724 5.7386256603371555 -0.8844396899880059 -0.3304047539473664 0.13438462026187822
Ni 2.643227038793513 7.483512003946365 0.902779317700701 -1.228554337322297 -0.2642276438996611 -2.1315604774585806
Ni 4.204981061083809 1.715127839361825 13.430189640882348 -0.41265820073164416 -1.8747005867779005 -0.6854499321512325
Ni 4.816780925653579 6.07786482657635 11.167414901837104 -0.30098799134814613 2.3769758737477447 -0.8025585389414822
Ni 9.084806917282345 2.5184156788667456 4.277870450584985 -0.1789336105168467 0.052807373609018736 0.4912663374538507
Ni 6.085711859077684 7.2539932516582315 1.4983551878001797 -1.7926751968440287 0.9754073767168299 0.7112820627229879
Ni 3.6876142570643324 4.534741716163483 6.641635664117294 0.22585804298252718 -0.1955136263627149 -0.5081643987607699
Ni 3.123294961053402 4.094233213951641 4.190289415109057 -0.07227396697406263 0.23462781875535718 -0.10380314793059542
Ni 2.806745484659564 2.3499777828729393 5.968553903577542 0.03182408648913229 0.37773876314663973 0.2305402789495449
Ni 1.1646219146135737 6.229135601879516 10.226003540656695 -0.613578342821911 -0.3375328803517154 2.208929085346731
Ni 3.16494815836863 2.6748560458295865 2.233309919485337 1.5617060578871813 -1.0714622481605742 -1.2473735269113293
Ni 3.208602487939215 7.566660902056723 9.268090249970529 0.677239114205666 -1.1645760346981235 0.8235803926087881
Ni 6.139649784960525 0.4760193352432625 6.107064681402448 -0.6271589097198231 -0.8318205211303932 -1.1293992296866742
Ni 4.029298325165513 -0.07345452407329033 7.7346967186992215 -0.9357954187521627 0.23512018501074347 -2.0247511957118096
Ni 2.7261535888754977 6.976447325241509 7.186959953354332 -1.6504744229718413 -0.8621369127257474 -0.6350303420480999
Ni 1.0176128098542252 3.479153715963368 2.135653738973753 -0.3148027857440514 -0.33023531824903773 0.7970769470016207
Ni 1.0921457218651252 6.395581630119146 2.75186628545661 1.3792191828014375 -0.1270898863726779 0.23978005238025799
P 4.111511508656467 8.975921234887801 12.141925546391203 -0.14307854849145035 0.807634410802493 0.3642121894151147
Ni 3.7972874220593646 6.858556547697854 2.6208949586937895 1.5662929059269153 -0.7161427332493989 1.6114152521868506
P 0.48097399047550976 4.642756535446899 3.8884408491911535 0.3931928929181809 0.485672388305841 0.26034399257453866
Ni 4.497609595425175 1.0629069561340625 4.105745283120658 -0.013362023129202793 2.154827161296005 1.5485399528188686
P 1.6644324888927582 3.072868281118619 9.939070821642154 -1.8317181696791034 0.2800499556438983 -1.670080627238543
P 1.5091223910741474 0.8825873373740687 1.8015600766911588 0.5519214892420623 0.3273261150220427 -0.07694334742527395
P 0.47718851529245776 1.2165679727422396 5.900200413855178 0.03960835842024146 -0.29563624011792955 -0.718928266414336
Ni 5.064087520211561 3.6479158694985516 9.473856674127706 1.0602406684131416 0.257545346783479 0.077763272223408
Ni 4.838005897862028 6.212524351259809 7.565528780012256 1.8039733954656674 1.6052723725139064 1.5483262941461657
Ni 0.7046857534226324 5.277773239979292 0.7100156209527593 0.8905954251767565 0.6948676259207065 -2.2418145232208424
Ni 0.6742833663430837 4.074249684901608 11.773648654096599 0.08750981008721058 1.4234025621868711 -1.0465451732039202
Ni 8.830931791386174 3.9762683203985287 8.680582833950638 0.027976430608267946 0.028578840078957234 -0.08222773575266484
Ni 0.7509674955284933 8.447603790470948 4.354372995547223 0.6213965533147491 0.2689492177450465 1.1080354192989175
Ni 2.3940860730014535 0.9831025429504836 11.455609445912662 0.6548864575420785 -0.3728318127633256 -0.08090721716902839
Ni 7.7305962504759735 3.6657685632766754 10.735313934448119 -0.357310577199275 -1.0830859484424316 0.040161659820550186
Ni 1.4654495325011971 4.381858917654611 6.157994423751425 -0.24961297931027981 -0.5047887974203177 -1.7041238328661814
Ni 2.454045924652733 6.5392462499517165 4.7752611371553755 -1.067892528531445 -1.2410648110844817 -0.6754285433594883
Ni 4.0622521558706435 7.675639229463089 5.6489156424895555 3.3635955742406263 0.9615915538796602 -0.03059355651614086
Ni 6.237371743430503 6.236417499808735 3.3880262294348893 -0.6052034884946544 -1.099502442127242 2.054086197230501
Ni 7.336502899187017 1.729812073735632 13.024976108824381 0.2249476153531158 -1.5852406506740118 -0.13135586073788344
Ni 5.005980568796724 2.5054639062140125 6.637839071532823 -0.27964115024125386 -0.9673168863992114 -0.06443441632498581
Ni 3.4125234234608954 2.41827568558821 8.762103032753163 -1.348847769598432 -0.7734114850638809 -1.1449796006234345
Ni 1.3917782191002432 0.009996396775607331 13.211012851263918 -0.27455627951917877 1.089903228474581 1.585286930530915
Ni 3.9270923481233444 0.04630490335881649 1.815634706887176 -0.7263315008569426 -0.10892349987629629 -0.6399684027796655
Ni 8.260294105568976 6.4302030710370754 1.53723088766098 -0.8342628120232988 -1.5857078201184174 1.5905530640258607
Ni 2.020198598790902 0.25052045001809103 9.06208016943226 2.0631778751191243 2.5713067926562685 -2.9284006258590467
Ni 0.5617761904364128 6.521486201185415 6.204706965162258 -0.42158198558383525 0.9846985722107686 -0.3453657461325729
Ni 1.9468793364348718 2.9115825800374817 13.327069257573497 1.4065101573069068 -0.6408639180107414 0.8662247096418758
Ni 6.479666242848908 2.337693054305326 4.7195453534956675 0.10036404034205941 0.8695702290753412 -0.9969383088100702
Ni 2.8328991714969503 5.1645425065302915 12.506079735659723 -0.2643081194286093 0.2138813302366252 0.289300784818205
Ni 6.33362064621251 6.095133856779994 13.209738982351366 1.40567711988265 0.38189315163464554 -1.7220001989259697
Ni 8.617727825679918 1.6033331035960665 2.163328656905258 -0.9758804596985063 -0.14077792538273173 -0.6416036243902433
P 5.296580177379184 4.422381845825609 4.951874028992366 -0.025126105643666408 -0.5056843126513936 -0.6135230641039434
Ni 1.808532540280892 4.949068738034392 8.327926817099364 -0.7253837922316927 -0.7753089591969099 -0.9244362849856014
P 7.735645403620279 0.11151309492981945 11.571516693753205 1.1827635042404276 -0.25396045764569813 -0.24817624686375322
Ni 8.027384545848152 6.110318374217641 7.612634136273217 0.2136059650880515 -0.007334585988200271 -1.6674807277218509
P 6.812493447819893 3.012778726450789 8.445434044294075 1.273540158004368 -1.3416409674373473 1.5376983821186743
P 6.86418936441664 2.8887641136256916 1.2789273301997122 0.48200805208037634 1.9298558917938056 0.6437507526402333
P 0.9348715497958852 7.077560091144176 8.377066657819938 -0.5787152123961388 -0.6453430368280176 0.023636922692649616
Ni 0.3362856432623054 8.754129076585633 7.348033497358399 -0.4309086623013998 1.1409789641044736 -0.8035440427832032
