# total energy = -340886.70464142575 ev
CRYSTAL
PRIMVEC
9.08190471811865 0.00000000000000 0.00000000000000
0.00000000000000 9.08190471811865 0.00000000000000
0.00000000000000 0.00000000000000 13.29228556796861
PRIMCOORD
 96 1
Ni 6.429171285179222 2.1768236174118702 11.077565385622309 0.7681042139183546 0.2613066135981242 0.4718419101806519
Ni 4.944216263600491 0.6148095410979094 5.50842960440901 -1.7909726123306253 -1.777101767885804 1.431477882995838
Ni 2.8742685028426997 1.8984269051520013 4.714335087221492 -0.11000490586593313 -1.5656683849690392 -0.8168726415713092
Ni 3.5068231778899976 4.344283790890162 4.748589307865799 0.11916137555422059 1.2481500000660375 0.06430534694628925
Ni 3.3135874877107967 3.052873244256628 2.6034933251599974 1.9260470595706765 -1.9903500925241204 0.12356953192424523
Ni 5.262518865912877 4.474182276420693 2.990032819805017 0.8989394262660777 0.26981387973818693 -0.4436705899527585
Ni 5.993793847030012 2.577299295098671 0.2582003721827666 1.5626123717515346 0.20123587355847278 0.23026234269780987
Ni 5.967801435257071 8.371981459490678 12.344505647741162 -0.3756705677637014 0.30521462783498404 -0.7957772543535907
Ni 2.3672893266019917 5.833080458234075 0.2450588558181802 0.8873365519198266 0.6153305496263274 0.83108621406753
Ni 1.0902735992067922 0.18570497465085628 0.11727917869667312 -2.0792909786309033 -1.3725268583829264 -0.19201486918083707
Ni 8.082005318505967 0.07484306994396667 6.986106387415122 -0.32218982223674186 -0.6785133529323992 -1.097872876943619
Ni 8.992039433420029 2.5553120033787926 1.3919544992037218 -0.029100002689749885 0.6619287091008406 -0.28179367780788245
Ni 7.0273600321521625 0.7918004280142663 4.669474109865232 1.3241029585535842 -0.3228084296573473 -0.31044322322377504
Ni 1.403345024307014 7.370755937654148 2.3387249193664026 -1.000029031920252 0.5715983988456994 -0.6325661967783235
Ni 7.828138831333 4.015564243677858 3.6344430134855776 -0.13900463553239287 -0.5920330125509675 0.8363284363030759
Ni 8.034570529306082 4.3718746179223755 12.591251013295972 -1.488059121824992 -0.09992155348800211 -0.3704059769306524
Ni 8.513186916599587 7.553229570547908 8.91149383540051 -1.044345337339124 -0.7743391390844729 0.33104572996547504
Ni 7.540460412283493 0.5709012555637936 0.3160130540915761 0.411982000600226 1.4378560186080398 -0.6878462002975508
Ni 2.0233303429973066 6.9258697450932445 8.92374986603908 0.7855373217931374 0.07824741094867814 0.0610439025861981
Ni 0.35668091596371243 5.1835880305814195 1.199657877989343 -1.3184185065742973 -0.5948200883778014 1.2513474239574127
Ni 6.572601808984275 2.2332131648256346 6.6247292184368085 0.13703439917989949 0.9727568264678602 0.5650549413002268
Ni 4.791721998722972 4.471621179243905 0.6892075977026468 -0.6935370800347411 -0.3517024869838782 0.48092381787726207
Ni 6.126053627829923 5.950300604549014 4.739949691751334 -0.005975757967460676 -0.06725054561754223 1.043115578697081
Ni 5.419526837516864 3.408121035629925 9.04037605577472 1.0287179152145123 -1.147713711725146 0.07579946362881786
P 0.557791525866295 6.201324455493843 12.33587965448402 -0.8144691743361393 -0.5527702103956028 -0.573031017527168
P 4.388013162898098 6.193232478243775 12.894009027211935 -0.3754959898590501 0.7201230580533857 -2.9695369908880407
P 2.8369509556816177 8.78520813163213 1.3093327777281254 -2.4824026733246924 -0.2785093506296558 -0.6390078386386091
P 6.456544146494261 7.930310261258084 5.746800545471917 -0.15267236282747254 0.2501742511303885 0.6945922607721328
P 4.607768015333409 1.5855552819591885 12.451508651063593 0.2867625917773835 -1.6451460687803925 -1.0588502158235182
P 4.139132641505475 6.701800987838873 8.130731554580107 0.07803812315134948 -0.7186765554148461 -0.019135949498502527
P 4.820230098148291 1.1573797943815873 3.363161065510447 -1.3234943784353077 -0.8399562628636501 -0.7668058068219051
P 0.25060699151073434 5.786635596666352 3.522402277524974 0.5677291456982804 -0.5799868800197108 0.20924434568524605
Ni 0.6314076304606724 9.05484988758553 4.65118315343242 1.3779017495415948 2.014728264258169 -1.1087478719849098
Ni 1.8512191635741713 6.685671524768034 4.706014245968395 0.7879500449996882 -0.5465352852294845 -0.45460831991118483
Ni 6.264189401088637 6.151292241497639 9.043260468765316 -0.18815770021827594 -2.03367369501242 2.127174432575743
Ni 9.061343449576324 2.421662691131901 10.207411731427095 -1.0582007551649775 2.2363267606333936 -1.8004301581990994
Ni 2.615579524177269 5.207527931850977 6.98863206516287 0.10126701177230302 1.5646641120742408 -0.6088282297314354
Ni 0.8711326835415191 0.17238726933155465 8.658834333386391 0.41057894960511226 0.8828741452730989 1.2615847854147046
Ni 1.6557856524134709 1.3782698849271782 11.290626874159418 0.4309467146281869 -0.5767454902642777 0.25112915884449005
Ni 4.3588239206066115 7.109051766567818 1.6097621912322835 0.2755831781217964 -0.4127713292707407 -0.7678069943929099
Ni 5.784001844250506 8.175721494985696 8.177666839011469 -0.7390234945023143 0.4980445367179487 -1.608523275351036
Ni 5.297311643516699 2.7429169125310118 4.588364525552525 0.7480051291756343 1.7541145629620112 0.5967954669366174
Ni 0.8710854576361315 7.806859928193936 6.5251833672131765 0.48372940564685724 -0.9243655796486662 2.201240458453222
Ni 5.116845111601913 4.779343362368492 7.299910722239339 0.5603863321799639 1.5007590858901636 -1.5572696193823825
Ni 0.7451648464440168 7.881585841564922 10.882460639418344 0.19792789223116236 -0.8296448536353132 1.0352446605894363
Ni 4.720683338734172 0.3222777520793382 10.269341240819019 0.45994104497800786 1.0190505673280772 -0.22058882416378783
Ni 8.303013473815026 7.381281865412653 4.720941264832827 -0.8296181141624357 -1.0299965248166196 -0.13973739993335935
Ni 7.446789645328176 6.354826811813289 7.137346441228405 0.48692451554538724 -0.3959915387092406 -2.2160602970748737
Ni 2.6512986560790788 5.321805540984073 2.5582064064647594 -0.04930861642714089 1.103919340248015 1.2188574217495072
Ni 2.46829827270215 5.9658215799927445 11.250816344108163 -0.1870495547557617 -0.15700698564708443 -0.5847825016361413
Ni 1.161157866812595 3.3923548487543744 3.6577181193177557 -0.6685158754000551 0.5969811005848621 0.16409988793812383
Ni 1.5400367746894532 1.1321411807138713 2.3846357649270504 0.5059907881482189 0.06338412068360053 0.7712031645586523
Ni 1.534251601279473 3.5681986910841057 8.122769448569855 -1.2304261004237131 -0.02500526379508597 1.2743744809802053
Ni 3.9488758161276456 2.8452972262683867 6.755791095982754 -0.3981484371512433 0.2014719008286788 0.27545770828752564
Ni 4.04371814881277 7.241947280709485 5.954213089172279 0.8852359606370561 -0.703902225319149 -0.599641935246477
Ni 8.582781553712113 7.354335853627078 0.6013819447295329 0.8640914653489571 0.6307101174061912 -0.47494086082094983
P 0.55144145797264 5.835759620174333 7.8037548249147015 -1.00256079720317 -0.11697568075681145 -0.21128271627151354
P 8.697358865706322 1.8844589354431323 7.9498636024695255 0.6252005004418717 0.41366067385422955 -0.03960835842024146
P 2.0860499781139845 3.4657548040125548 10.275162741848527 -0.16884717281512213 0.7217901613431634 0.06890607894309424
P 4.286504712029417 6.3861503017520995 3.6206721211126522 -0.8812273536982953 -0.9599475905183338 1.5721156832562797
P 7.188709154289854 4.17776706487448 10.255436844444326 -0.035335184966184305 0.38368572475869406 0.19085015944877454
P 6.775010223094528 8.348150541079708 10.19188712322141 -0.6821386083898123 0.17283418248732815 0.01691143104335797
P 2.6712243553906903 -0.20675773835835293 5.563672107236148 -1.4935579401560342 0.392279379964976 -0.06227314700760888
P 7.240757551169913 3.9853759918493266 1.5181121481132627 -1.298651608360015 1.57096871413603 -0.35595303473011597
Ni 2.6839208584160477 1.7335267582053568 0.05783538667101512 1.0074721184618585 2.642046839484308 1.9514037931679102
Ni 1.751999352735812 1.5313908012415705 6.9230607119131715 -0.6920376126710791 -0.3473035865852341 -0.8866441538384923
Ni 6.749499152280344 1.1243216606102715 8.722876293853924 0.7402997901115766 0.6557441775566835 2.4781832359267066
Ni 2.8463870548542545 1.6834672984945067 9.214092915981032 0.44083929115155046 -0.420753576145269 -1.3815560584647302
Ni 6.54765381627279 1.9808361100533536 2.554989595755474 1.31911964640638 0.5821370935934942 -0.9321894465684591
Ni 4.580940068311303 7.04800320194947 10.687224205593587 -0.016186637062191478 -0.23152269746747225 -0.047005936435893236
Ni 7.524521669215179 6.602835470337217 11.25027142981523 0.6903468552322175 -0.2523501757357847 -0.14249285119130944
Ni 8.119667978052574 4.029495885767199 8.240286573174442 -1.1974871836038474 -0.4482872627891634 -1.3050382286126494
Ni 3.3492702919930766 8.775653967696025 12.293011247058919 0.1680807269627428 -0.9207215551381757 0.4417327495000972
Ni 0.1611129926107547 5.218026613894834 9.957982662979584 0.6319501604608793 0.06454600220218562 1.1452133139007954
Ni 8.865256041264102 2.2035516634802725 5.58598998029374 0.20367662178948148 0.9775455061057552 0.698763361430687
Ni 4.082043787415779 2.7882356178933376 10.869062105145591 -0.6960940421286399 0.8204117650728193 0.2787500058855522
Ni 1.2166483056430184 3.848393620510656 12.271105692482983 0.9455555834627198 -0.2997816297448708 0.22096060568090978
Ni 3.112205328852235 8.88634422440064 7.668983897414854 1.479659070686755 -1.356037859588968 0.7400151689916223
Ni 5.757718811521333 8.113937296071887 3.523439431062525 0.348644931104477 0.10333957803061558 -0.713227359374817
Ni 3.206984088203184 8.496730504952986 3.437451955637574 0.9077343988498884 0.32033399997492573 0.8086631091773234
Ni 3.6166234079161543 4.959982450476042 9.385403979584042 0.037033141493897505 -0.37035455486742674 -0.10298785111815166
Ni 5.374653145493768 4.823072734376429 11.332072147089473 0.46552136727926285 -0.20511592533916934 0.2648647632630277
Ni 8.384196621557278 9.081995701278515 2.421761683895117 -0.22549731720899877 -1.7554463943995573 0.2902194399777324
Ni 4.770434013679026 0.28253896907665393 1.0019575233700377 2.0658330533537836 1.9514459592597555 0.6179397051144003
Ni 6.527301267431713 6.248949964696255 0.08798549449904126 -0.7644527332086962 -1.6348778540851652 0.6541192403587508
Ni 8.349076895377696 0.47094762681095004 11.211923086450014 -0.9523404675950372 -0.722617285230149 0.0894903308523491
Ni 0.05526248301787945 4.759626546869173 5.84125508081857 0.26175449976882015 0.6208869606681823 -0.11029724029537134
Ni 7.413395481076217 6.159683921608819 2.6246287342019228 -0.6866182414277207 0.46074939981191615 -1.2027985685144318
P 8.64003388208969 1.718577942769207 3.5153047688595116 0.5972883474126358 1.1164706945504643 -0.0016933285420228901
P 2.066741848334364 3.820266961090391 1.1940843129631187 -0.5354003516585877 -1.5922083402410965 -1.816261468804401
P 4.8533699690635475 1.1954965491723055 7.7132472854298655 -0.1648614486944967 0.39227758019276315 1.420543238361205
P 8.76293021895602 2.1883758004220666 12.494283514868405 -0.25831076419459387 -0.8276630473185939 -0.39939670773604763
P 6.593244978781582 8.014544929040765 1.2843339263492999 -0.024911161419382905 -0.33852609750292023 1.1089556171203416
P 1.861481716091091 3.4467827047135775 5.880387192575122 0.045305151694702624 -0.006984915958265389 -0.6332066585757998
P 6.9224458669526445 4.292417032107748 5.949919164543959 -0.026791666271547405 -0.17094750698757655 0.09095765942649496
P 2.622781474748877 8.642422423073715 10.245295081262338 0.35701001523972065 0.5399373202969927 -0.8862484610619704
