# total energy = -340868.11408451776 ev
CRYSTAL
PRIMVEC
9.27191771289782 0.00000000000000 0.00000000000000

0.00000000000000 9.27191771289782 0.00000000000000

0.00000000000000 0.00000000000000 13.57038879263015

PRIMCOORD
 96 1
Ni 3.9302267922098575 4.679258655589485 12.058335603586789 0.40205702817703015 -1.3719015660941016 0.8293548331987199
Ni 7.627339032100713 4.776419080128138 11.418803232688944 0.24555937806619643 -1.2112261304564946 -0.36678946322398764
Ni 0.25811256936248567 8.061960169637633 13.22688094196461 1.2594397140472438 0.3302821123265731 -0.7687133082572633
Ni 8.478955391815454 8.538610909658923 10.415599364927164 1.1827064257502469 0.2338577733585521 1.1979175862730465
Ni 7.3176940719048105 6.369371611613854 7.694898859698852 0.028337413492112492 -0.4744667493980087 1.7823969548464722
Ni 3.852991718595297 8.306451364852801 9.323630794014246 -1.327437936464088 1.6043771143931465 1.8946993984973302
Ni 8.49033203471162 2.5507879792350794 2.438829574205569 0.1785119495983958 0.05965062178309727 0.16617399685833317
Ni 3.9130737446484005 7.711092263788627 12.150030232699779 1.2152997863052362 1.4897809896121053 -1.3640391326268895
Ni 3.7806614893915524 6.117583417246864 2.634867582422542 0.9683406996780356 0.1930973036117384 -0.566474961576205
Ni 9.105866828475108 7.882205503111162 2.2183517183846804 -2.257260168351951 -1.7260604850382726 1.3713053272709996
Ni 1.358651173713812 8.284699446161353 4.347640177871475 0.06643833412889204 0.2787885724329715 0.34155254303406984
Ni 5.9656074158523555 5.667839782103061 12.820380603319121 -0.46875350106331526 0.12680989323841388 -0.8011184640608461
Ni 0.39525999293805586 3.7604116213514325 5.187945725305015 -2.5863657438719194 0.2559060114078432 0.20943640709139416
Ni 4.222579626080292 8.540873257553514 5.496509579908667 1.9419866136190684 1.5566633532569514 0.6805928611692472
Ni 2.1990577850492015 3.243066434980286 3.9783091025040216 0.8799114631003492 0.01025638762068556 -1.480589295810508
Ni 4.2980159476803 0.49157945455031776 0.38650544833939215 0.8409394527125259 -1.6310836771500556 -0.48297812930312944
Ni 3.7353403561589027 6.446449062629202 4.874863665254501 -1.0851870539458341 -1.3683025358889338 0.9213609884943873
Ni 2.0559550087986453 4.71733842117592 1.864028168845862 2.6248145347664216 -2.3467355868059645 0.6907412624571588
Ni 5.057061482068778 0.6166604045602229 11.388596252337338 0.13482839266751617 1.2012348235717376 0.8022806026897472
Ni 2.881081499927937 1.2045426312711212 5.316674247699071 0.41257618254079914 0.4328164208470739 -0.37839233757023866
Ni 2.819710677328324 1.4132164087944472 8.093651583997124 0.2527911199279453 -0.15351259934058076 0.2773700948188901
Ni 0.47615005647084707 8.158944427741872 8.173702538987044 1.1410910642023058 -0.5663875440687213 -1.0631850957534463
Ni 7.3650086674216295 4.535432669766068 6.135050782814989 0.28984637290902987 -0.9896348331701215 -0.49576859619957847
Ni 7.575648091476323 1.0101012472650042 12.350777447866191 0.9395661986485044 0.051724939178117366 -0.7332392837203694
P 6.607530087107684 3.0048615998984514 10.304484704399325 0.3953482486982869 -1.2066490526087734 -0.9007901063215713
P 7.813129716985295 4.09836374598254 3.8438394087315593 0.7475608425493642 0.08290984942135399 1.275297764125423
P 0.4737838630991261 5.78672430958036 1.4814521591856835 -2.988596064402021 1.7423078001350703 -2.02703510664998
P 2.6674379745705887 8.196885114564294 0.23335469498486258 -0.4287821028767002 1.2483777998061274 -0.626061048669954
P 4.785125410755278 6.78511512491557 10.398514002364195 0.06671884148378832 0.8769392678459026 0.8394847225438703
P 1.5202143379075364 2.4069434495764606 1.8972763381705264 -1.999614548545182 0.4198552327007156 -0.5905096339279055
P 3.57108833586095 3.8009206293492737 8.040644958265181 0.8315880934046129 -0.6517206582195872 1.588910386216115
P 1.5395555580227793 4.733898066010926 11.198501543302468 -0.324743441896531 -0.5922163322063673 0.9483735125274894
Ni 3.192311958033575 5.20742416980075 9.991198662161594 -0.5101729445503664 0.313154451507351 -2.4163744301500256
Ni 2.769262173662438 0.8336751991572174 11.0543028263915 -0.18481320922607525 -0.17152266276475622 -0.32028026391885484
Ni 7.53500927663207 7.010515441790717 0.3798890079394701 0.8856571073348747 -0.5395706809861933 1.6357731122059247
Ni 0.12253951739552926 5.001068371677622 12.8933348325774 0.8221125498140099 3.0582449350484104 0.3173975430544211
Ni 4.894302240504552 1.9661101272470134 6.846708473537601 -0.76260822380079 2.5705503741062183 -1.8358507037902383
Ni 9.270721523417112 6.234112877653564 6.40546811402548 -0.04219797352428861 0.4285987832213005 -0.3306474660857919
Ni 6.601790770112797 0.405715934416464 7.064065401894065 -0.5826302311798288 -1.0994741599924678 -1.5294276574694499
Ni 1.0590013406915582 0.7728514196960508 9.374329639455352 1.071684134363393 -0.9062891817629296 -0.1324128412474881
Ni 0.5260440994642054 2.8585878278284262 11.238222438304243 -0.26945803906066496 0.29076837050266696 1.1679086986157823
Ni 5.541611895885938 4.9046311567118295 10.324934845859625 0.8309502027102978 -1.262920987727625 0.08156361980610469
Ni 0.6190432873836254 5.675554017546916 3.634882837721409 -0.1682236802985103 0.10113408573886455 0.8643547463126725
Ni 3.844285387968157 2.853608808076803 10.430987966569193 0.5425163938780786 -0.44168544120192965 -0.5327166341788374
Ni 7.115186119586008 6.988355558724835 5.608044258303822 -2.921050870362195 -0.25956212010319163 -1.0831797937078183
Ni 7.417904957334122 2.057151086169147 5.558187302980866 1.3005758219659214 0.5407328196150946 0.31718388438171824
Ni 6.788796076203082 7.130688765814525 9.780952367413173 -0.7482013043468404 -0.700771135889335 1.0592284250985435
Ni 3.9592478943003226 3.8952716628548885 5.274321982482193 0.9098565873992137 0.3758214915192689 0.8022620907469861
Ni 2.054610580746531 3.7144043662163244 13.329079726527533 -0.14231004575654202 -0.7966262326174474 -1.0634972276772263
Ni 2.1167973320950138 3.141103157124425 6.673849332130838 -0.2750152214334683 0.24915558005788704 -1.1812280414325076
Ni 7.982175318682856 0.4884956147562958 3.7033995272159492 -1.386164503771019 -0.704917811067857 -1.004869647842005
Ni 1.7142848452096218 5.2577057789498225 7.917643699373134 0.2409671307098237 0.3414535555623603 -0.16768580551716927
Ni 4.819839470252626 0.6806421991562179 2.917104754190517 0.15456726585734024 -0.4345526868118903 -0.7472895911658485
Ni 7.556473765877893 5.190373113332902 1.962617395886797 0.53265801302676 -0.49612623664931327 -0.2413941909449133
Ni 6.449870400223892 8.109191317896045 12.204135580667415 -1.6939620618418307 1.2014304845223116 -0.2848034111684837
Ni 9.187264993092423 6.1886248499041 9.9761902091412 -0.35917591254278786 -1.113386913418818 -1.2416757051956036
P 2.0976786380021895 7.009439899349025 9.134404863658572 -0.4698644747393069 0.5726790335043879 -0.11979129582873563
P 1.2025398970693513 0.6743168969689606 6.443709210978168 0.21461075220348202 -1.4179531090365258 -0.1677228294026918
P 4.524686517266755 0.19710706031634348 7.755667007654414 0.3132729793630863 -1.9217546028429096 -0.3173337796960213
P 3.4889298740003714 8.245905742919657 3.4438665000770228 0.7595036167335371 -1.3734825374279764 0.32447399028522833
P 7.75656174770289 8.525352067489795 8.35481368705851 -0.9764173060385829 -0.4697215214035394 -0.23643710404995408
P 6.616013891712405 8.861635246952762 1.0636604792859539 -0.15388643774023175 0.6364508765447103 0.21129685733890063
P 6.81950466729689 3.840289191482218 0.039817322944822334 -0.5555328607424046 0.64301644557737 -0.09676603857815594
P 5.359585609547277 5.457506331329194 5.9900648800997125 0.466107578800036 0.6539978842895381 1.5430465338044652
Ni 1.9407792483616617 1.0400031815275443 13.262720612258697 -0.7866866049062323 -0.028988416812550075 0.4342456970944328
Ni 9.201682824961647 0.48671911534398493 1.200479676978456 -0.34804560695758124 3.041074851027027 -0.16272820440157781
Ni 1.5380256916186494 6.889044049302798 11.43124800049272 1.0897463911817427 0.47947834367998715 0.25737539686451805
Ni 3.057665170634937 6.092947932181572 13.455447618700427 -1.2335307074909658 -0.4563278737054528 2.48255359708026
Ni 1.9483451331239043 7.4183778251317625 2.0368743295679845 1.0222623893971556 -0.4363277764344421 -0.07291828542628087
Ni 3.5841061081724557 2.4995513625731274 1.1519690040911352 0.6102107119012588 1.0308071936433731 2.1094739299721867
Ni 5.115576554047348 7.200144700562024 0.8273869846403634 -0.5983180742287307 0.8313937180056198 0.4136434474630489
Ni 8.327480073971389 1.5111185867411638 9.787534501717975 -2.35035672849832 2.0201000700930436 0.3147212817738386
Ni 5.111886330842235 4.703365641351533 1.247199942577065 -0.5152647572509772 -0.7722406046842313 0.5845464743659352
Ni 0.7678659096021072 1.4346345384522667 4.012668974749021 -0.9606749556026615 0.3785779712184835 1.05895305994997
Ni 1.3072754782878482 3.0998616676361213 9.010927955393603 0.965380588608447 0.7106539422206858 1.042045999781986
Ni 4.411124070492308 6.858112932186571 7.576605880564483 0.7392790621565462 -0.5985350753355434 -0.8771966352723473
Ni 6.22418265390312 2.613076721677171 3.6459015845981853 -0.663878890848676 0.916329596718067 -1.5191982664319579
Ni 2.2224508331559885 7.662609406654109 6.547372958522014 -0.355059319271253 -0.44161422164436204 0.8304349536367762
Ni 8.724846646588341 3.107520271574372 0.13355455550526496 0.5835082629094079 -2.3966669244187693 0.36664908099138144
Ni 5.884227795070243 5.466546450989962 3.846133281145994 -0.24670660429676225 -1.5878258949026847 0.2372390311259592
Ni 6.171898310552279 0.3728738750827142 9.388863370294587 -0.568738303689085 0.03737612665561305 0.3536894355069199
Ni 9.164539523052893 2.078365233639749 7.343724053377261 -0.5204604425193037 -0.5241417480256328 -0.3767645721588285
Ni 5.808754385799831 4.377105404815018 8.167352202622265 -2.1424143894539487 1.9267422858654883 -1.568007574625177
Ni 8.417195148676608 8.83866870705561 5.826065983152262 2.0922683647271776 1.4183009792942476 1.6013558110683195
Ni 6.629810505102377 7.510012186780346 2.992338947986828 0.4534821767265416 0.7293137234137181 -0.6726180704938868
Ni 6.863574091653434 2.541682956151106 7.927889168322003 2.0872963654338825 -0.4899383626710465 1.3276281980980231
Ni 2.4065076694492236 0.5988407061232692 2.7072386080637294 -0.23988289650670946 0.23684308123912112 -1.5747801174623202
Ni 6.495794208100593 1.7927623557826882 0.7326493121707957 -0.3835661684616942 0.11595700968430997 0.5701349269262955
P 4.185056175549905 2.568191368571758 12.720854912600508 -0.2437737469206834 -1.1095045476452763 -1.4706427261207575
P 8.669650921110854 7.347141682204911 4.337557894672378 -0.26220907080773553 0.4078684926524846 -1.5544781726801744
P 8.125593340131838 6.934902953756294 11.876410381149975 1.2095243172740398 -1.6144614952123422 -0.8695504315809991
P 0.5051934111635542 0.722470601028651 11.469896134628083 -0.2967937507611405 -0.5200902036640784 1.4329390409223968
P 1.7972685077366712 5.414336282979927 5.698179350876358 1.7310905912630123 -0.4330678747362477 -0.7343955088119997
P 4.292044832745392 3.5508199239856286 3.168224443298488 0.2085421774118989 0.7000314295098331 -1.1498099321325423
P 8.912176469794655 4.068433995967197 8.117901357290224 -1.0965521012496664 1.5107928159770818 -0.8041068572652088
P 5.847047405491084 0.8143719939041377 4.734613858049707 0.5974487842499001 -0.8545210480517025 1.5448948998671135
