# total energy = -381172.6108823019 ev
CRYSTAL
PRIMVEC
9.24172938147857 0.00000000000000 0.00000000000000

0.00000000000000 9.24172938147857 0.00000000000000

0.00000000000000 0.00000000000000 13.52620511811229

PRIMCOORD
 96 1
Ni 0.867047934031301 0.6679542882157192 1.2326433438205016 -0.11581482767949086 -0.025831102130490998 -0.9607016950755389
Ni 6.593853569947504 2.8165370855221066 7.483954073044362 0.4245009590028431 0.10176657711654086 0.6805180420672539
Ni 9.18175027755032 0.76353964394505 5.770278729599807 -0.2054727944579558 0.38656818851281166 -1.8959785223200702
Ni 1.168265458914043 3.723760664294343 4.769041813218048 -0.45346186501156743 0.0326506961554857 -1.1743649957640871
Ni 5.089632774811873 0.390582272755263 7.907825054015683 0.41323129962629473 0.9096244167837496 -0.33573696479355725
Ni 7.728054015401138 4.919243015406136 8.183367207114458 0.05580296590223292 0.479198093435407 0.16275211566097778
Ni 8.2664956361907 5.927099782341799 0.6316546246590743 -0.03711773078790382 -0.15059825390726322 0.8972640954461838
Ni 8.528156712182167 3.321847107490299 1.2010264643985253 1.3678407657611669 0.5390317777635878 1.254989391585374
Ni 6.464016517829957 3.5639988933529207 2.2706438585596946 -0.19500146261298676 1.8778661289900755 -1.2767057002165432
Ni 1.8751375925402687 2.294564225987686 6.437688679971571 0.38599946049353523 -0.24524853169399696 0.3414939218819925
Ni 6.860763948067434 3.7831202902998244 13.227018682965149 -1.9259066773380702 1.1351420457077226 0.2110798562320881
Ni 5.98877908235123 6.416791282131994 9.529427822961592 -0.0799772491555913 0.07325587127135771 -0.6367892337207356
Ni 7.1707869924360885 4.0630707481790145 10.552536215430003 -0.32983525459714164 0.14496933775626 0.05870162760626664
Ni 6.046706240346303 6.068710797331988 6.4142618208774875 -0.8341414559540861 -0.5360562400750316 0.9601864460020173
Ni 0.6351304389733607 4.907533744637188 6.779077228730698 0.3068853306691876 -0.3412416966618704 0.26983547700474175
Ni 6.488174397695802 0.06309420873455103 11.83718738975741 -0.8623122619613472 0.07766377053106624 2.1131099840628766
Ni 0.6371710127585096 7.2942472514750465 1.9986727095849313 0.43581946933945587 0.15197533676044794 -0.3097479969289633
Ni 3.843856933941117 9.026544679054904 13.027682903847163 0.2880445438136007 -1.2576710521825953 -2.963275069138729
Ni 8.765234788769215 2.492660689233442 9.3494479212694 0.10109397652954848 0.7909736623173603 -1.1327511768780427
Ni 6.300659714268866 8.783089809389267 4.0504354561543074 -0.4828089507151169 1.2306415588686288 1.049427894068354
Ni 3.977557028822216 2.7888118982238903 7.083321419893496 1.0068938773608853 0.08913243329229811 0.7352270035743595
Ni 3.07265312405393 5.300538274589406 4.076743886381585 0.6068564507170452 0.07864721749025809 2.160590289032027
Ni 3.542798366798885 6.472555875517808 10.117262789095838 0.37230242262241686 -0.6270282976792297 1.422876257369756
Ni 2.7809194615729975 0.8472844963522226 8.689977540366936 0.20346913376436568 0.8137533792160373 -0.12157229898855836
P 0.6076325982109897 2.5256536621183194 2.8513377406188276 -0.21327634966277462 0.07635687879418461 -0.4455161278019295
Ni 3.1290461550185023 3.739785822552712 10.171381430529046 0.37019411803016244 0.25259545897737146 -1.505499943009259
P 1.8580681188936667 8.20869786240302 8.762099994258696 -0.3726749754704872 -0.46900726894533423 0.3566729436152761
Ni 7.8706076867594685 0.4029282986591588 8.02805994959895 -1.3229696162800892 1.3813213167461047 -0.8144712312186683
P 4.420818081617 2.01423485721542 9.444848442416744 0.8147622800965258 0.6851254589322782 0.37235615867848776
P 7.727517995113373 7.355325839093017 8.216858309197793 -0.18288051097973665 -1.0608063111086248 0.3887693099291885
P 3.1699870149288683 1.4137719924397492 0.3747705984390902 -1.4802738214526183 2.1387680509506133 -0.3942439598905146
Ni 8.91922047902351 7.79317123863555 12.12659398485111 0.7270393255572447 -2.4102595755015392 -0.2513631292321671
Ni 5.205856759965997 4.162142084124641 8.902339536650535 -0.13871615775769658 -0.04312279933140315 0.24876631503926833
Ni 6.9342356944077075 5.976838768354798 12.256594615573718 -0.006426729461950223 0.35704858178713994 1.371122264725916
Ni 8.108730078734748 5.096305303221644 3.0493473316110493 0.4418615617684777 0.15447496325385007 -0.16131049811844478
Ni 6.686843848145722 1.7423431871109116 9.956896609071313 -1.6730718486563831 0.18738508371830956 0.11270919217097362
Ni 3.736625151200715 0.24682994913274095 3.6019334187872505 2.5877502829242722 0.3799830790961263 0.9208570522747754
Ni 1.610131010614817 0.6110427962486704 3.5067500782737437 -2.0369881040976336 0.3006768878656305 0.5134199907327546
Ni 1.5375649537262852 5.08905978760771 0.2993460747401125 -0.5098137614387349 1.9897050027409537 0.4547075644932104
Ni 3.529388617875647 6.253360544738109 1.6784939291089391 -1.9574026910638225 -1.050639912098584 0.6992202464624473
Ni 2.136428999367759 9.167166829031459 5.83612420108725 1.1379813149287306 0.3913393846492099 0.03596484813038322
Ni 7.857253388210827 4.61341571604861 5.5476242196182 -0.37602640844122337 -0.48810465189641744 -0.1449096881629182
Ni 0.9669251487543957 2.936374586754097 11.10832825843079 -1.9139325356953294 -0.6447272576208897 -0.367967799802805
Ni 1.1653635559768296 2.7496639337588085 0.07076022302250785 0.21506712301461028 -1.282661917799978 -0.22689008379146733
Ni 7.493027602674158 7.276604790624281 2.5232461916879245 -0.3009126580255204 0.22764598812088538 -0.33220426904995043
Ni 4.113493622145371 7.604760107485971 5.241458672975637 2.609018705384745 0.05813392802825472 0.3099002062361115
Ni 5.871686374661763 5.753484659480367 3.908667331769428 -0.6267822431066947 -0.44399737716455795 -0.8498714650948331
Ni 3.847276373707897 7.526861572907082 8.182839504382882 0.13916892902439904 0.4220350139608538 -1.349128276953328
Ni 7.340400446597477 8.79143509076603 9.928666823364269 -0.46801276624254884 -2.9770631240617567 0.20065069047896408
Ni 7.087823990310726 1.5617043501339325 5.633610191331979 -1.27167250866801 -0.0034429642432779414 -0.06976996960528628
Ni 0.3019624082481542 9.39421762954565 10.106090462787565 0.8948385167238265 0.4309474859591352 -0.4107087903147572
Ni 7.500134492351601 7.093156468001084 4.818088593721503 1.2176348621963158 -0.9410466398487728 0.9940548166146881
Ni 2.2594548971390447 6.901621632415905 6.306552240742647 -0.9676351889705787 -1.5153410974693966 0.6047203782106488
Ni 5.7663306629285405 1.829428000414609 3.67950664450184 -0.5750832720705064 -0.21895180278099713 0.4036706525210531
Ni 4.9738339091963235 4.781402625888503 11.741529948541103 -0.33280873540316874 0.013199529409409527 -1.073943362711215
Ni 2.531836378885822 7.396765752374751 3.647043222694358 -1.7817557217180475 1.0411718247071486 -0.5192692504246799
P 5.392946323854361 7.115891121585621 11.517387520174493 -2.0685224272604894 1.6899017757295285 -0.7559151280513303
Ni 4.317273748787261 4.1360619246061185 0.7862927809877862 -0.461170803620051 0.11630102328729003 -1.3196369523624305
P 1.7248393521966376 7.5423507108776855 13.389793257592979 -0.25591038228321733 -0.425522458288822 0.21518410820844874
Ni 2.8368041974371025 5.134381227111195 8.02666629685076 0.19404912600204646 -0.5744155565795205 0.3231866389323724
P 9.036202285963784 2.8104190608583 6.31147623400681 -1.5579244793575622 1.389903144877845 0.4850990323008743
P 5.646197426365369 5.693949440621997 1.3264690743293057 1.2896455482066629 0.05137398359660184 0.7535769668364569
P 3.8300035820211082 5.229376960523984 6.10598546330862 1.0649910386139336 0.08973432854235514 0.32419656825412557
Ni 2.892300780679032 8.686559948945977 1.5981888482725652 -0.6606570414772687 -0.5977969116179382 -0.3400402201546015
Ni 8.917418341849125 4.657951608578645 12.273773141623693 0.47281918649225674 -0.9742382961093932 0.21407724829751518
Ni 0.3546698376478834 6.155851061010282 4.508621901444631 1.6768176888520607 0.0679624840829023 0.17049242172802898
Ni 2.7887472061201946 1.5811212229717833 11.36604311609681 -0.05989179125962589 -1.5066613103072115 0.11104491709467328
Ni 0.6633805564844234 0.9964801984142945 7.861429725590849 1.6303282870412696 -0.2168725516544652 0.6138056283413686
Ni 3.577103665215878 6.259700370900301 12.921366976460513 -0.7360620978811453 0.6684012041990618 -1.4175982968002683
Ni 8.040895787145113 8.523914758525539 0.6506704064540111 -0.3681056109322499 -0.06279379539776928 -0.5432082777387807
Ni 9.225204887775725 7.884331654472085 6.532589223574636 0.23242361201518683 -1.4487667519832728 1.4223172995424924
Ni 7.9789207518045 2.843670802157961 3.752763982727007 0.5127856995828654 -0.33000263341294134 1.3333851551864584
Ni 0.7445423456083121 6.326933950098476 8.684851153235497 -0.8505489507778319 1.5064682204597992 -0.8292447899834171
Ni 5.065881531026402 7.650515908257127 2.4338380076886366 -1.3616932581025323 -1.042402097569824 1.6705627090812845
Ni 3.3793121790304017 2.54103189933973 4.61822511187194 -0.4761263964886187 -1.5387301658172983 1.0398369079458092
Ni 4.782733434878817 2.5134176127907066 12.182402938536601 0.6881447053745762 -1.0306920082217474 0.4523925432067886
Ni 8.989152643118711 0.696978862625312 12.381589925816089 0.758883466651035 2.1162071349309617 0.13918538408463127
Ni 5.48218446003822 3.833247428934999 5.376788084696961 -0.03495234770546884 -0.08267125104798666 0.5020778262470579
Ni 4.947180762473638 2.0548152896909095 1.454580695623994 0.15591863767891212 -1.969432625645163 -0.47874737905123355
Ni 7.257215642973729 1.5375464702680866 0.2777823482324697 -0.9512665178045681 -0.8040214966402541 1.3551834820084725
Ni 8.302954257487855 0.5738097180529856 2.7139927077809234 -0.47939066906218736 -0.23902003428578192 1.0355843033170424
Ni 1.4841385178026225 4.806678754975376 2.654923272069164 -1.509083546595459 -0.293591698884075 -1.3753496725437022
Ni 6.7006232662329355 8.416932502470821 6.541880858011178 -1.068637120006953 -0.09146390963895216 -0.6063067488611623
Ni 8.152535874665931 6.218436050471456 10.474071162857323 1.5619323149653745 0.6534366124694294 -1.852469543293842
Ni 5.518014643756615 7.636126536049352 0.16374033531871626 1.6138197478632854 -0.5156208550388153 -0.2273963340039245
Ni 4.423424249223032 3.7979625072334695 3.241379372221776 0.6105899496175484 0.5777549053653985 -2.097038275311995
Ni 2.6131728366896896 3.810771543765245 12.312322242043134 2.339299442242894 1.4719437043203683 1.1534099907789748
Ni 1.3380360224701213 5.778816238941837 11.008260664088246 0.6180273797322001 0.42533888152310617 1.0657487427155647
P 7.727323918802286 2.407590572873415 11.896946258459986 0.5205419464895163 -0.31604154324715894 -1.4943904633596587
Ni 2.590650742874438 2.5310785570996703 2.113131524481068 0.6869314017927652 0.410536526402951 0.429689445182318
P 0.971786298260683 4.374775787243762 9.468492482144663 -0.06531424782677785 -1.2540051732952338 -0.7954427538323074
Ni 4.350229754755741 9.052449245720538 10.370595218822919 0.76941084854492 -0.46080647830209676 0.28678136083046096
P 0.18705074862614665 8.342943219300981 4.355695313345129 0.19224935378914632 -0.5813832461466052 -1.0383695793716634
P 4.737319578084339 0.49021550583013346 5.63919681657257 0.2781447682013855 0.3609114071766559 0.09568514680915134
P 6.08002267374966 0.07019185668289442 1.9266186444885067 1.765107057417773 2.2290281700894514 -1.0472609683240222
Ni 2.0481797281975362 8.221941260202465 11.226222224033174 0.23930542673668462 -0.13617642205497837 0.44498853743323363
