# total energy = -340875.8942740032 ev
CRYSTAL
PRIMVEC
9.19634744810265 0.00000000000000 0.00000000000000
0.00000000000000 9.19634744810265 0.00000000000000
0.00000000000000 0.00000000000000 13.45978407134255
PRIMCOORD
 96 1
Ni 6.032997011918655 0.9767716454609169 7.577481253071734 0.061011763796682016 1.0206937593584549 -0.7237871371685342
Ni 0.7505589726975812 2.2154552646230465 3.8761482299502124 -2.192996473276875 -1.3033898943759488 0.6626105656592136
Ni 1.95251330001402 4.0381437285155775 13.204020861898602 -0.4559918305222727 -0.043180906262848213 -1.1553573443133327
Ni 0.6157598322721947 6.744969030597525 10.828113245802435 -0.8257447472499585 -0.5469952555850386 0.055863129716207015
Ni 1.5780748196341543 6.218708051136433 5.710138085151781 -0.5007238833223248 0.1620059815235726 -1.6295883235514517
Ni 2.2845658152678716 2.4671500963726425 10.95335646165363 1.2109217118421982 -0.25838378352437436 0.7186606145752461
Ni 7.503097516832798 7.911498108128344 7.653367672474391 0.04836605000821348 -0.23718709484210118 -0.793508255813756
Ni 6.052576035514509 1.9618291999212998 2.8515086766833897 0.1999922309593588 -0.7672236110856141 -0.5164916876795428
Ni 3.9870120370205373 2.9315840323227356 1.491236470123324 -0.02085036108644796 0.4315403823481278 -0.36194241954433154
Ni 8.615717605956437 8.624490921367636 9.754345885137113 0.47825321302363444 -0.461648771697734 -1.3008624999684049
Ni 3.113294660425343 7.985455133848329 5.518376768985338 0.8956098476722124 0.20294154339566983 0.8682635944487757
Ni 2.6016742660110324 1.0365019217667237 2.101422396241716 -1.056032029648433 2.738734973636677 1.067607136080542
Ni 5.9017467419515315 8.22501998338894 4.79454973888448 -1.7977492689328263 1.540508854984276 0.45377451115597983
Ni 3.9349147290494213 4.5172274458598425 7.951192302372956 -0.42669616688194906 0.3152393590608378 2.210424181835019
Ni 1.5771459885476438 6.265857724211086 1.1205648136348914 -0.6934324361360767 -1.2625018979123355 0.7733585203387584
Ni 6.586175700193773 0.9869887874125338 10.159875376777126 2.099299817652662 -1.4958513641759013 0.12222690185342176
Ni 7.901051057491948 0.37709714441066017 3.0773102727183392 0.2861460412393072 0.2355526445624717 -0.10115388323320644
Ni 4.704796147250641 5.988643028450927 4.280507026567329 0.6526156592300308 1.1984009536673685 0.38509134685696905
Ni 1.5300331008625554 2.2587148827512245 6.834124859650936 0.9452203116104881 -0.9227498984221141 0.2354667697168848
Ni 6.142304797010391 3.7830186591890658 7.167388533856208 0.21163007230860328 -0.09699383831824586 0.4331367803009702
Ni 6.992847378179775 7.078722870118747 3.188367203083879 -0.22757091190857584 -0.8138896476835854 -0.4775438456614356
Ni 1.0287677936107293 9.065777650934093 3.735009127633336 0.2635794687927009 -1.6126031018473648 -0.8326666711807723
Ni 3.9825702012305904 2.5776258175830593 6.376424489260675 0.5815701653464307 0.43813809017030353 0.4861979217920079
Ni 8.516893656890662 3.029497542996781 6.864247495530793 -1.232758862321948 1.340220947161369 -0.8749633750664544
P 3.285597425146759 7.5813400404370785 7.9213381998369226 1.3178976010738206 0.7311181236123087 -0.5952692601000781
P 3.224441714995317 2.4020951349273343 8.656458344534167 0.840745591534165 -0.9102301686885486 -0.3386785639203845
P 7.015875032047325 6.664712506914573 5.743006750362649 -0.05918859454501419 -0.693681061811773 -0.4578386539230245
P 4.153530299232892 4.696887288494214 5.895385628461042 0.6321262810274275 0.09816831824232125 -1.189456599989887
P 0.1969977163709898 4.378951166485845 0.8924981572374909 -0.220511176848317 -1.0622841812057315 -0.3986194632503909
P 2.5871900188699017 6.776668840054971 3.608581422238154 -2.1314216378878714 -1.7411824282813755 0.6878307736785831
P 2.5276804549014833 6.762929497052527 12.714381577018724 0.4075201081741304 -0.2982297118767186 -0.32849108186442133
P 0.5806766866095278 0.6679159968666138 5.700663088434633 -0.5074357481248616 0.04352337720393149 0.15962848243033154
Ni 6.485613641471065 5.63676318822166 0.03622717127813158 -0.1700162534225588 0.4110949700095824 0.05927909737629146
Ni 8.297073365198946 0.09490262653816837 11.881772792896909 -1.257664367314376 1.3943454969199147 0.45927821458302837
Ni 2.5705814154814046 5.716808195914615 10.22222109428099 1.4836579074335028 -1.1151396344438667 0.3222985799004643
Ni 1.038846990351478 4.448475552763274 2.813000811252242 -0.17585625714310357 0.2693027444297233 -0.2992792361871555
Ni 1.4234658272933962 3.547279490163192 9.021042938684367 0.48157764941117703 0.7376602956062006 -2.14004074701545
Ni 4.053924660638867 0.6962287915798837 10.0830610459227 -0.6117893692422883 0.6543470400988407 -1.1616102672015802
Ni 7.347624067837268 1.0814720605096637 5.481025804056002 -0.42436340498371433 1.0223570059934908 0.05470973283805417
Ni 0.12388215643729976 6.543890894889062 3.5150490514612733 1.8276090326067362 1.8921282953360445 0.014034623716195184
Ni 4.64210464708487 3.383005136714289 4.020316609097748 -1.0838583078320816 0.03803895705059255 0.5312675604371366
Ni 3.512048283307527 8.486113482172335 3.2283556804450093 2.3909202517429793 0.8695614873245927 -0.5264562550914224
Ni 3.4639973681885365 8.66595725175453 12.219195975027215 -1.1855986596963775 0.3624129314228468 -0.238370316516925
Ni 8.505904021758186 4.5318220491696675 9.64423158037917 -1.3162582656981847 -0.48418680489925 0.25723809995570535
Ni 2.908988606782571 1.1604870772948048 4.704436570067646 -1.0120211712851215 0.9384104877775065 -0.19914865201214088
Ni 3.6123896296928475 0.5075822782748374 7.42966652218359 -0.6459878695008682 -0.4259988837046082 0.35873779656410476
Ni 6.134690221370482 3.1015325321120053 0.5268513849636067 0.8728694686519033 0.6974433570676827 -0.14587050941429072
Ni 1.3870850770138317 1.0295310904441983 9.114885226368331 0.49789207030048444 -0.5101207511561924 -0.8310551037192784
Ni 7.170796700199384 6.487268984001479 11.116355281719375 -0.12004917747581262 1.3675779990180834 -0.15793129723356672
Ni 5.000127647371453 1.4839777931274545 12.095460040513437 1.0606785272815087 -0.1618224047578568 0.12070455167162436
Ni 6.445324443550241 4.29674501715596 11.437128476897925 1.155443733379552 -0.8881243379284446 -0.0849559333171053
Ni 8.764220223629442 7.946011999887497 1.402105471207869 -1.2956254199391815 -1.0088610283895851 2.0236145110042054
Ni 7.982769800410099 5.311929805669896 2.1067792685970868 -1.4755694739984135 -1.0247360477486287 -0.4029481725327318
Ni 5.416188796043865 8.314647585063518 8.763854209003272 -0.7213101363829514 -1.031886799860797 -0.5266835406108801
Ni 5.349680811710748 2.7532116783231317 9.973053418794494 -1.6938185942854314 1.8357717709231869 -1.4487469544889306
Ni 0.8224596951408943 1.737070469680512 13.0771765619666 0.14402702844764873 -0.00861422403157226 -0.8131049469987609
P 2.4810733663229105 2.9089058396560508 3.0367424254715636 2.520675857873278 0.9514434097020645 0.42107959202611994
P 5.523933202079097 8.332525284392 10.79680612037859 -0.46596128303015877 -0.2005121080185708 0.030218432564909244
P 6.0975185852152745 8.76443173961944 2.18296181038574 -1.4290587320313841 0.30708741937766465 -0.22328951092440258
P 7.762480495001433 7.389016827445033 12.970466745012876 -0.18869017568297825 -0.24682924591755556 0.4579628382057145
P 1.0361616569132495 4.395293075799998 6.917709541454761 -0.3583081652258539 0.4869903357863161 -0.06890145095740392
P 4.883490373408937 0.8683062457902153 5.266732517146393 0.9213617598253359 0.3195822094105657 1.0140549138856987
P 5.563256783523843 5.353874346121132 1.9908096494551706 0.2434832122634581 0.017736498047814617 0.6623750526096399
P 7.240744118456808 2.148616211783847 12.183729341678337 -0.21248419277878244 0.04056480879623982 -0.6780577534522193
Ni 6.694324745514218 4.5991669011153835 4.975664443676138 -0.45685880650825833 -0.005475421292274441 -0.32631335748681217
Ni 6.5344646388130885 5.705055263948669 8.972709695700468 -1.4620246454344432 -0.12487770921270752 -0.34618669937197155
Ni 2.4613563975161905 8.137682272214766 9.992395176627655 0.324883309908505 -0.9749710605103594 -1.0421789258154244
Ni 3.8529844701412714 5.258664561580098 0.40545132268719025 0.05769735471146837 0.895571281124793 -0.08919696798164638
Ni 8.434172512106871 0.9618827590345734 7.78446620270956 0.7921576553231324 -0.9429929649418664 0.26332621513131427
Ni 1.9295776096203816 3.9200810207074253 4.993808837078965 2.9644842589554816 0.011658153064218631 0.45431032905479174
Ni 4.426174410339628 3.7707967135061686 12.399381848732364 -0.5802337059231942 -0.33302265118618773 -1.6494135858074948
Ni 4.47169632992604 7.3047966780364755 1.2277031803770437 0.8086553958678395 0.7786094843250526 0.7031069831113633
Ni 3.4147417315613002 5.012864588508259 2.5835648187282927 -0.6361839960365689 -0.021988588455949226 0.7436571366195838
Ni 0.6089536155679718 7.9929685496669345 12.923976450046172 2.3837108784787335 -0.23602032822750965 -1.4783933166004537
Ni 9.003279274063537 4.746814258481008 4.819652088723484 -1.1154666787659822 -0.9607901410242872 0.7805514385427718
Ni 8.75812304530908 5.038917840667511 12.44163170791699 -0.3688813127560098 -0.03308444125879463 -0.455244667943603
Ni 8.30572712809406 8.21124385499693 5.0633552945901315 1.5885069801301093 -0.5408711449651717 0.3068449643495554
Ni 9.122243223916026 2.2811079886487824 10.628962664507165 -1.9515367192013486 -0.23948951772303273 0.575552498397441
Ni 4.553047218948544 6.333791142389838 11.828834938774238 0.24301424304683952 -0.005689079964977298 -0.7116548726813744
Ni 1.6761814536034148 6.296748255098107 7.981032610387904 -0.7741303655077765 -2.614773091370019 1.9703245413318131
Ni 5.228206259020463 6.742081377516691 7.000460114550205 -0.8465285167645291 -0.7923391752063192 -0.5309718835735887
Ni 2.2934954685847213 8.45010978213581 1.0579836696378144 -0.026982956346747078 -1.3472400587916797 -1.1196539773744523
Ni 8.207050320586546 5.533368654502462 7.129769035583049 0.22069629627592957 -1.1898330094926994 -0.8882310387096379
Ni 5.684620980045434 8.277558716034832 12.81683716366928 1.6517363204034006 -0.3397489141664278 1.3676420194867995
Ni 6.940722481166486 0.8088178334207968 0.5700539857379592 1.2269294001243645 0.003600829977380895 0.05224070247227132
Ni 1.0694892198589374 8.25475177450467 7.038727035679704 -0.3467489996333447 1.4111170599512988 0.21351340537424518
Ni 4.5073413724143085 0.7151070535045273 0.8209643690550862 0.200292535808597 -0.7858440544002789 0.6992467288250087
Ni 8.483354577954978 2.4423843328481563 1.8391848718428547 -0.3857536630313163 1.3485510642936194 -0.1890658138548421
P 1.0084898476131459 4.310337218600145 10.95559117406969 0.4008894902314902 0.3593263220777231 1.3246932838394152
P 1.27064092634653 0.23827828054058262 11.142277945745674 -1.1410458127866672 0.6267814717757464 0.7283598441408811
P 3.0576015806242705 2.126425425528895 12.952955979945303 0.5829331071322283 -0.9376584401028303 1.4444799516824607
P 0.43152296754122604 0.6643772423904823 1.3896554561096706 0.5089264737377751 -0.5133564844846707 1.2944319138517124
P 4.611775093388711 4.764066606186888 10.208828453575194 0.4499780202280251 0.9809095374819816 -0.10481307725234852
P 8.792333457604323 6.5174513961393785 8.854909083792965 -0.4536768092358509 2.445605301990685 1.3918720956787578
P 7.7586364217919135 2.7619206193025923 4.066429853821412 -0.49919664804452096 0.5466216742957037 -0.016132901006120602
P 7.31013975587076 2.6597675924812063 8.686716166720673 0.10044837252574958 0.056108927178425944 0.5489716625851191
