# total energy = -381172.86582113133 ev
CRYSTAL
PRIMVEC
9.21187829913020 0.00000000000000 0.00000000000000

0.00000000000000 9.21187829913020 0.00000000000000

0.00000000000000 0.00000000000000 13.48251504170431

PRIMCOORD
 96 1
Ni 8.101607379572288 8.913468630247651 10.22530088618677 0.0008183821362373003 -1.5899403701425263 0.25598365872331397
Ni 1.0723823784195428 4.033466934989123 5.771041802738799 0.3076013828996057 -0.33761695542508957 0.05863812135818288
Ni 7.115540300009326 6.69462194881896 10.411791675859334 -0.9842380876345823 -0.7392955172167784 0.12780233905867022
Ni 5.745586619672588 0.6723510398895185 13.214832643866169 0.20047199880925476 -0.006243666916866666 -0.49012965274624615
Ni 8.178609469555443 4.810194082159792 4.812421514311715 -0.3068092260156135 -0.3126137485125326 0.1280676769049149
Ni 0.8681642503137225 7.536735007546087 2.2428159885391326 0.14570647303260065 -0.5121583504115115 -1.21990257518457
Ni 7.510711451594128 6.306580790971083 8.004352975337673 0.8570350727228078 -0.9454290851871846 -0.22134909936858008
Ni 9.105269146522238 0.1714827976878111 8.029619314900515 0.18675953431916867 -0.9345957420171065 1.990609516833094
Ni 2.694363834787998 7.819281736097744 7.614938326448226 -0.3528707962603665 -0.39990938570640805 -0.11716054307410789
Ni 4.789559474962488 2.2592776149059106 4.498522158261831 0.33121799387728124 -0.6836159642662871 0.7983866669519798
Ni 4.793852210209783 1.7230541841223934 9.159454335359408 0.6465213734068349 2.151512495100475 1.4168573048691857
Ni 8.779785853619403 4.9722678674407605 0.6210252180496882 -1.0508060053628032 -1.2863496510642105 2.4013131649415294
Ni 6.150522362163257 4.531064960425186 11.87798737501507 0.598570042338537 0.5497635623587951 0.3731097490150606
Ni 7.550617308013201 8.558931073460757 2.9710472028570294 0.07002682281109875 -0.07410459242489818 -0.09839817486494021
Ni 0.6494328080831914 2.10852522794882 7.201402374457824 0.4123506967935543 1.3540254571446295 -0.261820062899433
Ni 1.5646467263702313 4.60053173403004 10.052630677397293 0.4903499962871684 -0.06203789106835122 0.2600071780604103
Ni 3.955654199723218 8.291952419089206 12.752666265601084 0.6225959729394891 0.6205591450151183 -0.8466676134455549
Ni 3.040242226054597 3.521129904412129 8.47916726238932 -0.8149448284209772 0.417274616457733 0.8353850985532001
Ni 1.311255592362978 0.08096964592952895 6.242997643980926 1.2594132316846827 0.17423363393801605 -1.2046962997577768
Ni 6.482776385552707 5.536117720985311 0.7441042016668588 0.3403407821141558 -0.6691915613108411 0.0971884708275552
Ni 6.7635267978528155 4.011597936111267 9.209298887182577 0.28445399824886497 -0.1532752865187941 1.2903945105575454
Ni 4.562643278939633 8.870163590767953 8.715974252049561 -0.5451954833721385 -2.3361997202716474 -1.9999773312012392
Ni 3.3339445391222977 2.4740894029567753 6.541621863577877 -0.5075733021439903 0.23805458504871907 -1.9633589086472574
Ni 3.156357950930498 4.670670974744448 4.705518588836718 1.711447620221104 -0.6448966933192183 -0.3036645097390448
P 4.4936186754890075 1.6188862652888596 11.543364977737037 0.26827276050331217 0.26093226097784095 -0.5708880030422362
Ni 7.934780265133369 -0.1338587235021193 5.760417743595651 -0.37047205428189744 2.3248860950310415 -0.9542459121478664
P 8.086122212296099 5.775212020005861 12.28986518892712 -1.37836429100031 0.775541129812374 -0.5955479676827615
Ni 3.0471879822272605 0.546791297469565 3.7932653682073614 0.3839700887683323 1.201049704144125 -0.5416902984323574
P 1.4525750160298727 5.2399834720693566 1.643936125713694 0.2890557586869344 2.0769682440349975 -2.041715848590606
P 5.933122036334517 2.8313536756947437 2.19448126355509 -1.4622529593951656 -0.4051662632299731 0.38121078085564025
P 2.254754582703287 2.4736656565589734 4.540438967694819 0.24014129237441864 0.17634810917785756 0.20430242829893847
Ni 3.138615873492102 9.36350572846957 10.699939226364545 0.6262361407952376 -1.0903642272713996 -0.6740239497024779
Ni 9.34084450806539 6.533137723743628 9.737449949087969 0.07087322997179407 0.5646291666167179 0.1021815531667724
Ni 3.6150910621855674 8.14823790708691 2.0458365543331527 -0.07231021952863675 -0.20063243564651898 -1.5135984037466772
Ni 5.301693844218795 8.73004171126876 4.257684050695546 0.11996870194686436 0.4110396912916146 0.08279055023467032
Ni 7.492858831617175 1.7838525803287364 7.754967165977468 -0.5750948420347322 0.3007079982138821 0.7177561004831058
Ni 7.823666590127171 0.7264579277618785 0.8223683189652053 -1.290633366041229 -0.9107256202677284 -1.5685248805812277
Ni 2.671527588697767 1.1366352289557913 8.28186357007024 -0.16703711618957684 -1.4937777694763241 -0.6381128376281655
Ni 4.247329899584041 4.310035154580492 10.378826048485998 0.7199613356645407 -0.8045020358210984 -0.1769975698363984
Ni 8.406750845380639 1.8598689993430908 10.079312882641485 0.22979825857719777 2.100683585374066 -1.0273655149516758
Ni 3.7115210033201125 5.496285559591944 7.192005337492659 -0.6468036805339441 -0.838436483785014 -0.2506912999761231
Ni -0.13243733069384073 2.053014449836786 4.352102117628353 1.5550556424501993 0.8511099654876245 1.8558939955943583
Ni 0.016784963292057146 7.641483274707044 12.05618655310804 -0.7824008330466848 -0.2943658580459382 -0.12679112418533647
Ni 0.9628531464659948 5.5842313608922405 7.700403368945739 0.5489868320937706 -0.7399521769641707 0.47558029417716163
Ni 1.3991645461504219 0.33719895961423274 12.275964464703577 -0.30510844127442294 0.5490829913520027 0.9957208914632013
Ni 0.18466407422291048 1.1654684077627386 2.14548604690317 2.0416127473538386 0.8781952517401908 0.5723525034029047
Ni 3.525523970319769 5.317418520328526 2.2342415722983957 -1.1937287450026797 -0.14180508109566548 0.6371692427679736
Ni 4.669556337480665 6.592397736288386 11.279391238038594 0.6369671540594966 0.012928020915577734 -0.18454067229097895
Ni 7.962526442311173 4.139587772003831 7.088930868603017 0.175233278847124 -0.5355762151148197 -0.37435879093081337
Ni 1.1010589552968675 5.562620294604349 3.7527773210852224 -1.8061359503346248 0.6070744802651222 -0.017450591376279623
Ni 5.70446479532939 8.822510544771678 10.593238962210238 0.4759957844480254 0.3389493010832678 1.4432579063499016
Ni 6.988222931226317 7.034881094375579 5.016857042743363 -0.5123936063507691 -0.8565738168156731 0.27660416318714304
Ni 2.6187066790239535 7.426468825335491 3.948421954138127 1.5319923328728324 0.15337118866671007 -0.39311730248523913
Ni 2.5386462454740557 2.955502158372453 11.617357547107977 1.0894759111291754 0.5356967998530838 0.6115592555093532
Ni 7.082248572147247 1.5975976147384265 3.5093368579237407 -1.0395240046910807 -0.2215650720341281 0.19068432329487162
Ni 3.6817574248136435 3.0054121145309325 2.4727610501184487 -0.20618858957805783 -1.21113279941174 1.340236630890653
P 3.4044246193305896 5.055893297859122 12.300826402812865 -0.2665146401616249 -0.14801043857542898 -0.035997244030215425
Ni 1.0834550560316674 5.151355991781293 12.614416239754789 2.654158020925545 -0.03564474578680312 -1.9328723100226262
P 2.0464095331580063 9.499196694548274 1.3435017720478724 -1.006237988944441 -0.49512299219577954 0.10308966680333859
Ni 6.626352719381808 2.2045222108073497 11.5445652854682 -0.49527802971640505 0.6752123135836242 -0.3842850489055898
P 1.3975248318284934 8.272156092809293 9.296288495524353 0.30382468946599284 0.39706008918307106 0.4583893842201718
P 9.052457448726637 7.3834401422021845 4.526606411370055 -0.26702526124945625 -1.9004288447819397 -0.2051508923421628
P 5.908277600793833 8.049191792539851 1.3442764910055927 1.073795524279441 0.8728586700186257 -1.5234508710607249
Ni 4.554426283573563 3.671799384465302 0.5309404186283144 0.6011786836059776 0.5012468457053303 -1.8281026844137034
Ni 5.7352693160739365 4.939722301713941 6.035650240846122 0.8431606287335608 1.1667113358735712 -1.2855353826930311
Ni 7.098258816481584 3.134175748193396 0.6267375037296206 1.0209200164366483 -0.09135129532048783 -2.453302670634943
Ni 8.603019122588568 4.163722892922106 10.945065463239024 -0.582866515560351 0.25307239861378994 -0.4620210674354882
Ni 2.193329778778455 6.916305798016784 11.055217418159774 -1.0637790205837034 1.0528446330593868 1.6657146369603635
Ni 1.3684152966751533 3.5174267293704697 2.7143268960635685 0.0023445889727766074 -2.681830547140149 0.7835765985223409
Ni 6.568465276690798 7.567815884637025 12.667995287005539 -0.9007605386352163 0.20145878820255628 -0.5111664188118874
Ni 5.846392202958348 4.2261241559375256 3.710428474564041 0.32640874541409587 1.5617579941710393 0.2816854343647923
Ni 1.9338772289069937 6.398975929448299 5.665946247769207 -0.7825525281332006 0.22700346944088 3.0274793717307795
Ni 7.786809865396629 6.178968642085256 2.7664504665566514 0.555301718568205 -1.1427424837627997 0.971314951815011
Ni 8.284324983928775 3.7471617601265277 2.6568106920645467 -1.0616444907392037 -0.16067697829950392 0.11516562413126617
Ni 5.337629381128028 6.600393646577341 2.7556375639101356 1.9072708074044378 -0.5007295397492796 -1.5030298842022114
Ni 3.4401022236498573 1.2222688488246036 0.019878311996010162 1.3194564609205082 -0.6060578660751498 -0.14747539200756535
Ni 6.799010952729608 8.39247243415036 7.906322009769694 0.5930007757808755 1.9284351001868787 0.6446179857365351
Ni 3.349798181527012 6.262584860625403 9.37966428404314 1.1146058734275834 -0.18188060896031258 -2.2193135139048485
Ni 3.808033851358575 0.1868730826184076 6.019875820594041 -1.6591760645108973 -0.6850038457527492 0.36154441277496446
Ni 5.316027526718351 3.3568913277510855 7.503531713714852 -0.034526830132276025 -0.6908304797368554 0.16235102356781717
Ni 5.817697202324596 0.9319288713046778 6.428692527375881 0.18864878092208154 0.19259568138497155 -0.03662793563567886
Ni 2.0898988102019675 7.300155551277707 0.012319965922176187 -1.1496880618426975 -0.364098803765702 1.090051581126987
Ni 0.11363865082440379 2.7124467517202784 12.75433822149676 -0.1007273372187491 -0.2700141686744511 -0.030331303993689704
Ni 9.115623297633741 7.462339879097233 6.726331997191853 0.5269882163354924 -1.599173715815336 0.09874861622582348
Ni 8.172069036024155 7.26630189884463 0.8053604282203917 0.6613628092950417 1.5839669261679108 0.0055587250347001035
Ni 4.420807990092806 6.315645279132757 0.3781706303425586 -0.4676736377355752 -0.30989892068453084 -0.6774679423870203
Ni 0.8479119360622612 -0.1669920070589335 3.9463723112357165 -0.5324862633355862 1.8525978413415902 0.6260499929263605
Ni 1.4961011405866864 1.6767184367105898 10.153101869503915 -1.1743207727897131 0.11757680467592008 -0.7139642375408414
P 8.312872594511116 0.9066201571020556 12.13504575773895 0.26538669720476876 -1.130240494641047 0.20912607493982696
Ni 2.1869459471767887 2.8723004743518947 0.43759092956822426 -1.8593971236516105 2.1412432519639837 1.522237567478914
P 0.2082041078086208 3.668473896430379 8.618468363539728 -0.36597365219091166 -0.05656067000386388 1.097027755334504
Ni 5.108603664994378 0.7739341056964617 2.05189060069479 0.2000724493779909 0.6563938953255405 0.6716245962323659
P 5.595921234344641 5.764682843208308 8.58984521555604 -1.9284955211111692 -0.39430386659417255 0.254516073038852
P 7.170120678421839 2.522350432915113 5.686182901827706 -0.09714630473571012 0.5453240385302027 -0.7006744624104707
P 4.688974976753842 6.629936140006697 4.6163991942520735 -1.2973462592850302 -1.0297759241653814 3.365414629727236
Ni 5.128492110056423 7.336929369104332 6.700512944936226 -0.1626616128297005 0.3544502249323444 -0.4087737780755734
