# total energy = -340890.9964275558 ev
CRYSTAL
PRIMVEC
9.08769909008960 0.00000000000000 0.00000000000000

0.00000000000000 9.08769909008960 0.00000000000000

0.00000000000000 0.00000000000000 13.30076621705127

PRIMCOORD
 96 1
Ni 6.462280822999127 1.8438577445475204 11.52806677872857 0.7571042632634252 0.8907872294725885 0.05801488595188718
Ni 4.637752613891697 0.35144857737405494 6.03234996964286 -0.7890085681711896 -0.6777525635069747 0.31207767350340443
Ni 2.71106049438582 1.7325697845102157 4.752576597549002 0.25790504411574294 -1.0155824062738188 0.5316709665231424
Ni 3.5783450335137115 4.565959793028174 4.975337906680017 -0.5691357962378198 -1.0480947770792273 -0.3305592772473598
Ni 5.303144835512748 4.829730251960295 2.9557495120562787 -0.16360160814546665 -0.9050393685162285 -1.3247950995246023
Ni 7.38116531616032 6.404755689319873 2.916046264578982 -0.6723113378867452 -1.1374938337693505 -0.5335944087981004
Ni 5.272482939614833 4.460233504683081 12.121506235986454 -0.5238874659229816 0.7140920213679574 -0.06298457125233668
Ni 5.876278738474752 7.681995410976169 12.01684320840605 -0.9588304461947551 -0.10663367540085505 1.948058787955077
Ni 1.960534709999011 6.543761130829805 0.33590043342273823 0.09648578833357577 -0.10535480868843147 -0.03367810897873555
Ni 2.776955398699922 1.7872232053549284 0.19138512010400338 0.6104642226729615 -1.16001438346937 0.7162777161653665
Ni 0.5689399299457346 0.08653670346719161 4.5155703204808235 1.1103884929121264 0.11643240665883174 1.07214590449116
Ni 8.852418320426155 2.412756779848459 1.333042736404709 -1.1019028240386184 -0.9204297349293697 0.21726978709288386
Ni 6.847890060325838 0.7186479543836364 5.009401328255048 -0.17528547224129812 -0.0010163570796563142 -1.2303353404821198
Ni 0.6490752583475762 7.4412350055157495 2.4064281063738573 0.8009220317793239 -0.42282768506547824 -0.04507709484429656
Ni 7.418234039742891 3.9415530931912346 3.6972275834745156 1.043475533139661 -0.11901250868118214 -0.12666488302011733
Ni 7.692010055101688 3.9231686784308666 12.709839315264183 -0.2257289736038306 -0.1603861865319625 -0.6381784007587784
Ni 7.817783807095506 8.93154491425637 7.024320463213004 1.124784099512166 0.16027742886824012 0.8653433354781871
Ni 6.824943620746041 0.9470745349736803 0.5994273420258547 1.0389884439025847 -2.2537459845511054 -1.3074337254280193
Ni 1.7481733634244778 6.50428416705371 9.147973914833248 1.4239463505054832 0.26259679316445744 -0.11471850929151856
Ni 0.21291751374375426 4.680428447660697 1.338269980779481 -0.42134801519615817 1.9103980401795102 0.3450497575540509
Ni 6.4853908411581065 2.125576408695523 7.0875790260926115 -0.5638143840249064 0.08125148788232457 0.3138558484497498
Ni 3.7464311113227904 4.370192584541843 0.8819602639902334 -0.2616274872726526 1.4790592323192269 -0.63964135845755
Ni 5.876687684922708 5.8377468953783795 5.016795988803991 0.5681086405248861 0.30638936486937557 0.0421213546500823
Ni 5.3080340174905425 2.9231037715008314 9.391218897157474 -0.28047315922424604 0.08460806305938333 -0.3333036727617163
P 0.3514531212234767 5.445694479571638 12.39756417252485 0.304074857803586 0.5268591469567958 0.5865825309593575
P 3.9880548481733418 6.238459888182961 12.660440401890774 0.5781814513798559 -0.12460362961571445 0.5344477579373312
P 2.482695710147912 8.550879385100513 1.4395414791514975 -0.6135552028934593 0.11323344010555984 -0.7595930911235499
P 6.427547638019331 7.822445796602214 5.862379103093642 -1.2061926817976454 -0.5200117850176592 -0.22889425870568966
P 4.861137339163376 0.8354857721046565 12.75008782467209 0.5062545833325668 0.4601107377866527 -0.12063898854101159
P 3.892634010316761 5.991001848674893 8.217731615657467 -0.32890245837022714 2.1267954519697696 0.2738607961140509
P 4.774976866428305 0.9643138996797693 3.952176613139267 -0.12030525935067668 1.506210338812722 0.5355417623324582
P 0.09830618223938768 5.5315187074495 3.536873319841473 1.07418941728375 -0.058028769908958125 -0.1733725714893014
Ni 1.545653994697438 1.2158432282697182 2.5487323825639723 0.9805117878229306 -0.3189381480686636 -0.5482170438072816
Ni 1.494653828787806 6.667544676776899 4.856002789316807 1.8559276770457716 -0.7683312423274962 -1.0662544787073895
Ni 5.915274054212141 5.656483654246248 9.083704799842243 0.18426016493608266 0.25535682377259245 1.4652094709203283
Ni 8.679915620979141 2.118360775813797 10.199785087747962 0.4510134034710748 0.8120322827598724 0.1915772674227862
Ni 2.1974510188486374 5.227980478378293 6.8304216856088935 -1.202717064544219 -0.4442490881640478 1.0814103605122214
Ni 0.7914204291824871 8.839422911079973 8.872807481551396 -0.5190849023280157 1.4195142828760585 0.22621414077036525
Ni 1.4478158289484897 0.9336520037818544 11.558725039546948 0.5283437019221223 0.42266262024252366 -0.8508988779180828
Ni 4.213011745344944 7.006479492843477 1.6154575182841227 0.09666370867233674 -0.10316397168469975 -0.7981254428707931
Ni 5.508554092472016 8.028727472650456 8.015267681893372 0.30720569012308385 -0.5121583504115115 -0.2586496355912513
Ni 5.390468533699786 2.942724113303913 4.862281480447771 -0.4661595150838939 -0.12651498770581437 -0.010766751598200812
Ni 0.5385588439420835 7.290342853918541 6.9828623810890305 0.7926487360269381 0.27373249806630273 -0.10735307006538286
Ni 5.023016518662355 4.553518733311444 7.177492718450042 0.36637551561502063 -1.5163266013111176 -1.0694395613035903
Ni 8.47042598723915 7.017602836227901 9.146803419222206 -1.0096750396504481 0.5809230186807349 -0.0817148006719883
Ni 4.841253454093834 0.3938708643453224 10.473768302640392 -1.6590277118584913 -1.0485938282028326 -0.20789245964304195
Ni 8.341035331105626 7.29592270100844 4.899203892078962 -1.3509010525830347 -0.3087262405326683 0.4435983419539264
Ni 7.291188009910985 6.185551305516197 7.1689002991935284 -0.20360051713590743 -0.6420635947457974 -0.8170312786363606
Ni 2.201685886509701 5.167638158057559 2.728332574807746 0.13633017402402325 0.6619762745093244 -0.2938341539121843
Ni 2.6085603391301646 4.983657694971226 11.414185189441337 -0.6189786879018758 0.8918418959893478 2.415431606620782
Ni 1.1232668401511472 3.3515251580791956 3.873502586711458 -0.8600584329301639 0.03693466824282027 -0.14296233462856026
Ni 3.7165871083207898 2.633151652200632 2.743509031876364 0.5291600271758305 1.577323195599148 0.6364249084027813
Ni 1.1676329859050358 3.2775058509990185 8.350247531423266 -1.145472481099453 0.2881206484671748 -0.5987191663218915
Ni 3.3338586715274627 2.5664933811836774 6.944143331396482 0.9452431944286238 0.6112314398562891 0.27622132592642756
Ni 3.8854183774350344 6.686465265769032 6.170743809020625 0.5986975690553367 1.5070562317527851 -0.5685027906395113
Ni 0.8280792975472171 7.407019819370032 11.449844410933283 0.46313718331780235 0.012693793417584589 -0.02892542478509857
P 0.17331786603327293 5.342567273095782 7.9432304019309585 0.24981789623223427 0.22207055091563688 0.30258413219067243
P 8.483775816840227 1.6913025440619551 8.105673018758235 -0.043521834542034725 -0.13758255837388564 -0.5691874754113616
P 1.983372097192686 3.0603643748328127 10.730579401798174 -0.3119586314270369 -1.5146949792449655 -0.7925800875725318
P 3.8457233088866967 6.22098424330694 3.6825564024615947 0.30577512832414433 0.9121340705794807 0.5494519446556472
P 6.72456998701976 4.13759293264287 10.610207377996923 0.6808432866171564 -0.47214684301558035 -0.4209178696372751
P 6.388852216343777 7.640582767346412 10.000872626691901 0.2268510030234158 0.41357762722212 -0.7438260580972802
P 2.4008882451588693 8.392090023208318 5.813299167949638 -0.7085654351227731 1.414626615766454 0.5100657295485409
P 6.954061645914261 3.9425800031605482 1.491653979399572 -0.1635170188514603 -0.8803513788512451 1.1077088891974343
Ni 5.3211384792228476 2.7450757511569805 0.575615753516158 -0.008263525560372865 0.12482140205347536 -0.13215290271788208
Ni 1.0700583634225487 1.1331542564928576 6.751694950527791 0.7550723204350609 -0.0666098267097498 0.30426666209941794
Ni 6.746444078136027 0.7334590859587465 9.200432656407258 0.7311019256623925 0.1025530775735782 -0.4934633451051695
Ni 2.611195771794775 1.6230993642416083 9.024117667295403 0.9790778835898817 -1.0922969255177382 1.7748651652458014
Ni 6.412925530580166 1.8249462432542303 2.672523198670142 1.3639715126137477 1.2209045340865232 1.3295395561881231
Ni 4.007202629636563 6.802024444262774 10.453883508800965 0.10000717122327293 0.6848246398624076 -0.5488809026435257
Ni 8.11909554995006 7.335172472313448 13.212369068371391 0.5122539954491113 0.008327031808456625 0.34805280604643285
Ni 7.670454033444945 3.8745949281124448 8.610211153309852 -0.11733177854464955 -0.2089412126225305 -0.47977530609511565
Ni 3.272989264673807 8.478804845572842 12.425256208440715 -0.12285347969382712 -0.6748186776896313 0.2561368964717266
Ni 0.43631768810346727 4.772950309586207 10.170470897588537 -0.06788895053248953 -0.828950655781766 0.7226257698705812
Ni 8.369797897945253 2.4810871874526153 5.596895612929524 1.0836875865821722 -0.8109619325138291 -0.40440187426012286
Ni 4.031112365293769 2.5286522031994103 11.524780666826766 -0.8263358438667381 0.2457650663190993 -0.47780918350768037
Ni 0.9495373013602644 3.297544226948901 12.789603865553211 1.0770590255220613 -0.057865504858216475 -1.6307237227074756
Ni 3.163927790853156 8.439864056028513 7.98462305262326 -0.6572523866710939 -0.21822572324824996 0.0712447543785999
Ni 5.61133596639182 8.120785861934948 3.4593034488231464 0.3775446448579627 -1.1280275461501283 0.6710700092804766
Ni 3.187292264579753 8.368834601867842 3.543816321757894 -0.8231849569425822 0.029857706791380834 1.00007299778431
Ni 3.1551854245657243 4.406379801336596 9.32041845300766 0.6586433534813496 -1.4189062169784143 -0.9035275598573923
Ni 7.752515954001605 6.148927879176957 11.12340427200661 -1.3721707605950884 -1.130182644819918 0.9351253892683314
Ni 0.4979522791997441 9.130501905036764 0.49709621796868797 0.3107813232894841 0.2910635331455826 -0.27732098674850947
Ni 4.561370505112214 0.7084679141391655 1.8568267995670564 -1.025018611986054 -2.1337214896656413 -2.3290800785077304
Ni 6.426220833988183 5.797497477200589 0.6184860640404093 -1.2924866171998837 -0.36162977339991914 -0.7640734954924068
Ni 7.917130530852472 8.843757743428315 11.157187792457263 0.6661100941720399 -0.24039994535244402 0.06860268877006248
Ni 8.873701711117594 4.812281870180806 5.617937270831726 0.8157614107850015 1.103991331136531 0.5081214613379765
Ni 7.929480713580768 8.79439336331051 2.957704276077512 -0.7479711906139054 0.39614349090607254 -1.2613127627002405
P 8.66731098268323 1.6704099244207857 3.4047436312765216 -1.18025693576849 0.6840409676188477 0.8512115240624955
P 2.0275474012708616 3.23634766293688 1.5999093743328057 -1.4255121523307064 0.30835548745681085 -0.2573386300893116
P 4.717533522038643 1.1401608723011838 8.166536972992585 -0.21450070898817897 -0.007605066040767547 0.23478799848230533
P 8.596317879317933 1.5350668255447792 12.292753924223181 -1.1750545656319442 -0.07077861337545874 2.168222608766305
P 6.59667880119541 7.734304205519263 1.429645883880828 -0.3752383653222892 1.9667324531051806 -0.13327236103430595
P 1.491800291350952 3.3154379059717205 6.0796069123988605 0.32759505241271325 -1.0075315109448841 -1.0351235616305399
P 6.895936724111337 4.064146150589833 6.05385691772585 -0.8754899369938858 0.33192016215062836 0.24115739234375885
P 2.380731729124022 8.426941348273079 10.236614804850952 0.7932136073914726 0.4351126730804184 0.0641986461650959
