# total energy = -340856.21166942985 ev
CRYSTAL
PRIMVEC
9.37065656323236 0.00000000000000 0.00000000000000

0.00000000000000 9.37065656323236 0.00000000000000

0.00000000000000 0.00000000000000 13.71490308076839

PRIMCOORD
 96 1
Ni 8.638058829339249 7.981222642618919 4.861371168636924 0.6712975519102502 -1.9330175773512388 1.6413182103938702
Ni 4.215455545323454 8.841917467503182 0.9632182436058319 0.386798816466379 0.8864312664967379 -0.2650876779071112
Ni 6.766073354522115 9.327251893907434 12.867884276828844 -0.06122876490349455 1.948142605918135 1.8568324482482281
Ni 1.0332742107295905 3.1138692466961366 9.210380125530309 -1.8599409119702226 -2.172261297612052 1.6692020812883315
Ni 0.8030999571413532 7.012240508030112 10.910096383241402 0.7385866640752119 0.8689714191490776 0.16356869802500218
Ni 8.06900695529737 7.631284835972454 7.306710586021843 1.048956353748574 -2.1084367469569236 -0.259620741255269
Ni 6.524816425164791 8.63724358219973 1.7541363469382623 0.8748636162637965 1.1888572758429912 0.29216010864387104
Ni 0.9104024108187314 2.360149839567767 6.066238972118998 -0.9756650012535908 -0.6678407037099015 0.30808500740424355
Ni 4.740184212814407 0.9672017098013495 8.194846442209219 1.4301259969536337 -1.9996307464950978 2.103966627000712
Ni 3.6928821288910036 7.2098208061540605 11.171817889932038 0.366262129965608 0.6346102237915457 -1.7035826156507305
Ni 3.92727036683145 4.727505714196352 6.586239206200734 1.327190339229656 -1.7542703718135852 -0.2703746373376634
Ni 0.9936550738802636 2.308442555477279 11.336711463089616 -0.11154448243891112 -2.145979223987072 1.4905746891579943
Ni 3.9833162650092704 6.964928061967612 5.773809823173101 -0.0031179768036914044 1.0151175508222583 0.8106130338148426
Ni 7.695979850354609 4.730391876483388 11.66865386046327 0.722873367105013 0.7775015959728545 -1.277377015251955
Ni 2.986831252782626 1.6375503835928076 4.856694273839976 0.6720115472581395 0.15797963397299888 2.852651041631558
Ni 0.4288556038833766 5.9890116413644945 3.9556522120748845 -0.35824748719124755 -1.109643901436618 0.2767080357548589
Ni 3.043373795769579 3.6888433758205066 11.531354060314257 -0.6457580128782492 -0.7957186332015135 0.055681866943336364
Ni 5.42949909592068 2.1637315028840547 2.771836526105984 2.6843707970634996 -0.7018512563273912 4.294077551199675
Ni 7.48083894143226 3.3301440050883926 6.079267933300479 1.7643136149822 -1.030864786354186 -1.9061346369174654
Ni 7.60367888111008 6.39940892553032 0.6391293936762223 -0.6408464345092447 -0.4262292545478595 -0.44772187720399664
Ni 4.519992519889743 8.52392422980642 3.6437892580410454 -0.5587955906540764 0.2879159886555364 -1.660296808378902
Ni 5.770028763163947 4.250305017873749 1.6325942432239313 0.0005227052726894223 0.8356463226343865 -0.7724185250229924
Ni 8.120920393836933 0.632690815405368 5.8991639100639475 -0.31105745976900623 1.0345862010698312 0.9526189180674045
Ni 7.884292568927 2.599579490853753 9.783211185449986 1.6346030031572236 1.1915821309733219 0.7991811378288172
P 2.5278658545463033 5.542855930941093 10.461645798973535 0.18078274791044346 -0.14320864631141142 -0.24499476381197804
P 8.978438566074098 1.8313168244088855 8.171627828849413 0.12609821188336992 -0.7131368565435395 -2.426445698343098
P 5.493894249286 8.483133760860081 9.73079266851019 -1.3016556852936614 -0.9691122877367375 -0.6495025675223459
P 0.6538806815731499 3.6185259673726953 4.042756215071392 -0.2175731772659156 0.028869888956814797 0.2663045810333478
P 4.585221661708135 1.9007533911197443 1.1185275090128186 -2.740486923330777 -1.55157025500476 -3.7914525941998956
P 6.862478671434573 4.556631787884272 9.543666275085654 -2.145787676801556 0.26025348974326146 3.3790810714707353
P 0.9204336988975403 8.91392159417069 2.77525213050087 0.9641132918602494 -0.37356611982618887 -0.10030259097650468
P 0.6043427045263274 9.365699698659748 12.24742216851628 1.6361937446831114 1.120374914700877 -1.0361041803762543
Ni 2.3268184134152 9.302963151543796 10.650280868139022 0.2767646000244072 0.5423958091398143 -0.013480550984938076
Ni 3.7691873870187393 8.190862976013701 8.081808209519194 0.20361774352708803 -0.6226692493795857 0.40975182571812657
Ni 2.5618719679867494 1.1600779382236985 7.531333662535921 -0.6393564802272795 1.238179262006571 0.3662104507920661
Ni 5.064643203686673 2.367337133315032 12.768108334674025 0.17095933406211847 -1.5851897428314181 1.2747274934442498
Ni 6.91010971982746 0.5715800772400689 10.441141864881763 0.22466916488074856 -0.8360443294037537 0.11616166949594832
Ni 0.9984622208064 4.684925449805779 6.161488887050964 -0.27086134716609483 0.1396075592237144 1.0003519624773094
Ni 0.34479331607638986 5.204312842934358 8.795477429586535 2.430266871861402 -0.6426022408580869 -1.9251168344469232
Ni 6.425047042469715 6.000724962334613 6.212343441374827 -1.403547732244473 0.4086760761554446 -1.5498257615098276
Ni 0.0010223386542718882 0.5751343673552415 9.913488615410992 0.23716858289933992 -1.1399911462699077 -0.07069196719892341
Ni 2.6202230477314887 5.376976564690672 4.729378908485892 0.4792770263024585 -0.7078694374970131 -1.2707561675013277
Ni 2.8772039391590987 5.787308254259065 8.29381369668426 -0.6965244447978391 0.4742926857139896 1.036925904946601
Ni 2.8023698741452097 6.66284619947666 1.309759187170963 0.8479387668484946 0.963620668494547 0.3497055111585074
Ni 0.5592511041197616 9.069146523666692 7.011524589852418 -0.4009923343579416 5.637001756224821 1.3016600561690357
Ni 8.162010723800107 2.1291069260963864 3.9720827216660886 1.1944859348836783 -1.6028907596556072 -0.09467804570087564
Ni 5.715997556192987 2.612070576336287 10.713781123782226 1.9426831254654606 1.7421411926502188 -1.9690287053385251
Ni 5.918253812048207 8.301933370780747 5.2859706202125984 1.5325926854609928 -0.190795137841123 1.205538593153414
Ni 9.164015052867871 0.08651927401367869 0.5872271999247912 -3.601669956783687 0.4461964416984057 1.0358270154554676
Ni 2.948589602479385 1.1062435150450367 12.938132342416512 -0.025357247817866007 1.9374499020909792 -0.4254841488517188
Ni 1.2754213524806433 7.2163708952405505 6.477342803805742 1.348487815155852 -3.965748448834416 -0.7024212698982484
Ni 5.357476227939619 5.966906262029688 8.496382932475802 0.18564161866464157 0.4512471167484357 0.5906271333423764
Ni 2.5896465946710934 8.226771332779695 13.028554494977435 -0.7105832368837504 -0.7767783446535848 -0.6732788440063372
Ni 3.9564318507186558 3.402504216713393 9.448964543575089 -0.30690538527384564 0.5824317420157776 -2.239002507693344
Ni 8.022678428196361 3.3398801174787547 1.9112541491030355 1.3195312800225019 0.3893105271446392 -1.6175578747494788
Ni 5.1839316644463524 6.704601846070936 1.5732779858312542 -0.5065240349438697 0.09912836816274541 -1.7559379893239953
P 8.585095877240764 5.929273704416894 6.093874913083055 0.9283664732779432 -0.7142861396566343 -1.018254553789343
P 0.40651220986645736 7.846163366505071 8.62264222481122 0.6427338813399447 -1.0408491512604074 2.804195774343648
P 5.581388071604393 3.7202631879907506 5.3172405018744255 -0.8672117561454937 1.4631358762207511 -0.333265106214297
P 7.368943928868918 9.25521028461282 3.8706341172767362 -1.2378226499981004 1.1002835432676406 -1.0103730941587372
P 7.4712152769232105 1.3405380464177226 1.6798560877398405 0.29519940969082714 -0.6945652641889393 -0.029350942358291384
P 2.6952164139105714 8.976124013850404 6.127763893313801 0.628434176887821 -0.9236474705357188 -0.9851878531423613
P 2.327605548584392 3.6336127247822074 7.887633208067678 1.8036324671864807 1.1799265490122648 -3.919559094762546
P 7.060808622100609 6.111579831995808 2.6463456276262067 2.5122300410987704 -1.3780570441725364 -1.104595283269117
Ni 0.7679084556187311 7.216024180939835 0.8627591805720352 -1.316742918644087 0.6556325916794837 -1.3226988791172059
Ni 8.468028262137018 7.950346328541689 12.694486832646964 0.6080196177872109 -1.3629723819252721 -0.8887591432989661
Ni 8.300996305103137 6.5004527175469455 9.541156813201015 -3.4789563451018344 1.6385295919051395 1.5189858933108356
Ni 5.542078166428677 6.180716537689832 3.810288024704367 -3.406116992542605 -0.018954943835948 3.748245462684803
Ni 6.42911390751054 2.583461961198871 7.979399112810292 0.7831819341870835 -0.16527796740662504 1.306445393372821
Ni 8.647185849039165 7.543884720221823 2.6102208086886853 -0.5653801858501295 0.41721445264375895 -0.7839560933489467
Ni 5.854805095017272 1.3682564491614095 5.692357263278256 0.4203236876967019 -0.5010087615525952 -1.3728821848398163
Ni 2.510614475421514 5.767067635622701 12.907767666199257 -1.2907387812708417 0.3009982757607913 -0.9952951167796924
Ni 0.9380027432870396 4.915743467514534 1.2921826462560433 -0.30179506063047384 -0.04287725897950035 -0.49365386384942084
Ni 4.019852455779262 4.193518837810618 13.499950069427246 0.9141318177357999 0.6785997419986184 2.228443758340891
Ni 7.464955678196779 4.7295110347464355 7.709600099978663 2.0537990050073853 1.2900322421221202 -0.17269919957136065
Ni 0.04836851908116596 2.362511245075343 13.604306388614221 0.011351677567393354 0.456816126195781 0.033842402470741724
Ni 4.79432786766668 0.13854703456590947 11.69886766910643 0.13637285433650065 -2.395493730046274 0.3318972793324929
Ni 0.7168739846847663 4.530506396792521 11.143070589074336 -0.6513748448443943 1.0746460452051945 0.9794388664737261
Ni 2.3565889899928516 7.602676220835038 4.11045265081893 -0.8582103239778316 0.9374195846191469 -0.7727190869825465
Ni 1.8356460678394413 0.20924770287586336 1.015729530047709 1.7838048909375923 0.14890775357871774 0.7353416747753528
Ni 0.9185239590465725 0.25352499320858657 4.760319880094879 0.9491936944359395 0.8027590849880626 -0.5382535048366666
Ni 6.529155039252123 7.528516843109027 11.47589101698791 -0.8804061433485805 -0.4777297364199966 -0.6687264487489644
Ni 7.562944636104398 2.387268520277784 12.116801772517269 0.4177633831686935 -1.0048727331657983 1.1334266056785125
Ni 6.839351890511172 3.924374833887637 3.7275188875324807 -0.010855711767581305 2.1366366064299074 0.03363465733530981
Ni 3.3968443400206323 3.3717309798607 2.3267612524088657 0.12142111812267475 1.502455242645664 -0.37029361972250424
Ni 1.1853880821759293 2.666036188709814 2.030285853867051 -1.079218237956909 -0.9400246263421618 1.3770568850427962
Ni 5.400787403558726 5.371372911938567 11.521245932849885 -0.7208707348526875 -1.622842520187186 -0.6130540948873249
Ni 3.0174264471565744 1.1865313023026127 2.8126935267154325 0.42550626033890593 -2.0845689392003908 -1.8743252057163524
P 2.007944333981487 3.290112559340918 0.13758091985229415 0.2855220345020631 0.5638210688931258 -0.7252390391237122
P 4.7968485743394496 6.833335928860919 12.958965186561125 -0.2664454774865863 0.6147116850954057 1.8295563861410944
P 3.937521865344497 1.6515782567866206 10.698419806129175 -3.297515394782102 0.337402011200806 -0.6413187461599729
P 3.6209998207615843 5.524817416647111 2.7923816910875705 0.44748816392663576 -0.6910526230499905 0.8369724976449779
P 4.66340105119109 2.5116639889804366 6.891821008997557 -3.647395226734944 1.5059267461340324 0.393960881432457
P 6.43840022837565 4.024828274527368 13.19495768094164 -0.631287587176216 -0.13952296992970808 0.9465783683002795
P 9.07920123838744 5.841573727649427 12.910359589863523 2.455842663447977 -0.06525948332944245 -0.17548241874345263
P 6.640000538256542 8.953550101676793 7.272354947083648 -3.2459953725259383 2.8364065547482378 -0.20951559706876177
