# total energy = -340871.8137593705 ev
CRYSTAL
PRIMVEC
9.24482520874452 0.00000000000000 0.00000000000000
0.00000000000000 9.24482520874452 0.00000000000000
0.00000000000000 0.00000000000000 13.53073617424872
PRIMCOORD
 96 1
Ni 4.9140776514966396 2.888619628352865 9.947175033066891 -1.6589444081160656 -1.0725835062492108 -1.0228935952232512
Ni 7.380643269732326 6.569123258734231 7.164971664435354 0.41827477558747317 -1.2668650599770375 1.622162977621658
Ni 5.452690419188508 5.810594586443157 12.539271511845719 -1.123036263583124 -1.8934881517980489 1.8999043397370379
Ni 5.358975624967805 0.38664355571217046 4.554513113615372 -0.04619629605040431 0.9328854441942191 -1.2550847795126578
Ni 5.200297443256828 5.334412124105181 6.379173530911884 1.2812205573677613 0.8431341463709996 -1.0009677416844376
Ni 0.8552831650754329 5.269088188427613 1.7372792528992853 -0.5526897348666546 -0.4991614239312113 0.28116144354052225
Ni 4.25730677145054 5.039853499910637 8.658913247799246 0.780125663859263 -0.5137892011467152 1.1418343701262335
Ni 7.264398836218353 6.582029034874322 11.36990465150993 0.41528921059658797 -0.015188277704664166 0.18870791629479114
Ni 0.6059298877074055 3.268202910971778 0.012263260780681164 -0.3248426864785567 -0.14892138042547257 0.25749623871309846
Ni 1.0109586275240168 0.6280601505470544 7.1825886035560975 0.46289678517222216 0.1547639552491786 -1.2787391857068042
Ni 7.831531890007774 0.9107437966241585 3.426577862412415 0.46250700593297117 0.16745363490170515 -0.30898695039322266
Ni 5.710047866314481 2.6502695420750495 1.0723692286456379 0.3513787850958723 0.2803960261294074 0.8384495964111366
Ni 2.766264365305511 0.8733651189095335 9.061345116184803 0.003972354384186707 0.39277148911004617 0.3192078567902825
Ni 0.29536199951443987 6.652742703710681 10.598274212782083 0.24880796691048115 -1.3838394551822684 -2.461545113149393
Ni 7.542862219539044 4.1888118606898415 6.027321026308599 -0.05682472229852794 -2.1079785763735828 1.060937180259534
Ni 6.441932952047 7.679685634204768 5.527969182765539 -1.8769703566486835 0.5217426516658369 -1.6041405729023082
Ni 5.34078180874739 7.829867821451028 7.826949230099003 -1.7828294143982004 -1.625700044240639 -0.8157495837104597
Ni 6.32525401174321 -0.22700113872081235 9.439799605632723 0.4257245469972991 0.4593931428943378 0.623717745248758
Ni 3.453080927626178 3.950397060634819 6.911202134014231 0.383487749815275 -1.2171255266600651 -1.0490414572632125
Ni 2.478907460031547 0.6114139180844126 3.757552778006267 2.1518981605746683 0.951971771401709 0.5311665160828982
Ni 3.9318519410524244 5.917002525821703 2.4482922965175606 0.7242401655455526 -0.9450148804679015 -2.1392969268708897
Ni 0.23377112429917105 7.9419798180490835 12.377227289237458 0.659107951822594 -0.7577231277943466 1.2058895487349295
Ni 1.325070057260318 4.135145649734806 10.37304160914408 0.00871089751043661 1.134123631745537 1.7597200820742467
Ni 2.57161456829289 -0.014067850682218264 12.463459321848001 0.30473151755097844 -0.032392300287776475 -0.15216636972533149
P -0.01115757967297708 2.8681146058036373 6.728861821908867 -0.024440906651183716 -0.8499000043399233 1.0663547517306795
P 1.9232010103317771 5.325777457260736 8.690427008333875 0.5088300573692269 1.3628515400766916 -1.039298776054152
P 8.239801865579912 1.548970481570395 1.2263898673627915 -0.9629061589260255 0.7546524592888229 -0.04943614314394066
P 4.063618436270705 8.482737385214092 10.60606760052284 0.3031364051497166 -0.10708079024060267 0.10541137295797977
P 4.229951333342711 2.1155673354915314 7.842509195587104 0.4370340584728473 1.2509800133156648 2.01341391632212
P 1.1881449495161276 0.34886735050898965 10.938504122999033 -1.4342168791935557 0.4267691862117296 -1.4529573930258526
P 6.957248759944436 2.147008986388702 10.728763997624329 -0.4552598374522546 -0.051623380603246574 -1.4806777417592563
P 6.559434681803847 4.586135963088722 8.00073807878776 -0.6115186320794048 0.18655770272100772 0.7509045622106164
Ni 7.244688868646237 7.85657612178679 3.218799488969605 0.3164238662872422 -0.606632250521381 0.8534219014502528
Ni 5.2921540275891665 2.6921948248797154 5.757936985930016 1.4864442119293884 2.046551579416353 -0.8431426310114318
Ni 2.7985288056557387 2.3020909310520463 11.289802862565933 -0.8268179257094793 0.06752642498674821 0.3455696346132629
Ni 8.994706566347407 8.706952133584887 1.3592842312695324 -1.2839559540210532 -1.6574133161835198 0.4919361098273657
Ni 8.361889028693124 6.029817129143717 5.08187400441605 0.27050036428225027 -0.4508015445705849 -1.9796897845967971
Ni 2.511171900381775 3.5367558415545197 2.0891863019719294 -0.1297268097748927 0.7537600293815406 -1.100623957326195
Ni 6.789408956346044 2.418048774981246 8.392262902266383 -1.0164180148012365 0.4374888866220788 -0.07261206703977172
Ni 8.771129710923363 8.175670512368013 5.422090971877558 0.7753305564634647 2.843170098724316 -0.6192041736491207
Ni 2.5842245100228927 6.8701717503000825 11.574084014457513 0.7579568410717075 -0.4217527068337446 0.15309145264276217
Ni 3.166879625516621 5.01296030306857 4.358602322429751 -1.7738385237535 -0.33638771100367876 1.6614607467800162
Ni 6.230670203942871 9.428889787278196 1.406262735591515 1.0666481146013822 -0.5826163472227579 -0.3839209806979517
Ni 5.639103076845242 0.7848949140901709 6.915573087423282 -1.7438692310849193 -1.5525202776228553 1.509171478323575
Ni 2.6187816670513033 7.719697238169176 9.127496463728086 -0.08764376456191357 -0.9510235485558268 -0.37792465390520075
Ni 4.185298827070046 8.203257071108723 2.8547419659851254 0.7777553638548734 0.7353298477008111 0.13403315045973047
Ni 1.8218869697019358 7.1000073524625495 3.067133507260246 0.057379823471049564 0.8398459625380311 0.23810754977384155
Ni 9.107863228206085 2.379664260272322 11.237479924729206 0.25792355605850414 0.35811816070223484 -0.4026062158122809
Ni 3.2984057552767045 1.709830442055772 6.0011119465398615 -2.19207498990387 -1.575057796603739 -1.2534099629133961
Ni 4.8409141039517385 6.35926572407802 10.369956610936379 -0.6872216793396745 1.927999812421673 0.2541851720619945
Ni 5.230694428893374 0.9170256554258719 11.498325444446621 -0.924633488598072 -1.8537103576794784 -1.9615915323341893
Ni 2.9818721813078075 5.147130452868815 13.54805575645559 1.2225765224723073 -0.4390626588671019 0.18083339864272083
Ni 7.526896406219604 1.190030893880439 5.872366660234605 1.940278629789026 0.9353308204109182 -0.5782968939117976
Ni 9.281804616512543 8.560763710874815 8.841294237135997 -0.8607963395374529 -0.2041080528999452 1.580132125802853
Ni 2.0276305570928588 0.1797157061983638 1.3756836268962571 0.4284838549099911 0.3783601987807226 -0.15179433109789342
Ni 6.42152962257624 4.792147650413788 3.9429780883193297 -0.11123620716987294 1.7735479890962749 -0.5017996328850067
P 4.83047669617082 6.342440142004263 4.358886138566929 0.9565136251361205 1.557206627354931 0.6444287525438643
P 5.096792379027272 4.723800656858132 0.9505436940888478 0.11266214098312208 0.19442450706359418 -0.1769294356026243
P 3.6041413732773884 4.611439049976565 11.340854636921817 0.2658438393468454 0.24682178971838784 -0.13980553416713343
P 7.592590134909782 7.00130035257161 9.315208019341611 0.6248803980982915 0.6529355044632948 0.25316033034190594
P 7.270981151842812 8.037904125520134 13.032304517285805 0.8384375122262786 0.4546764541449589 0.7181193973597956
P 2.9509112613270294 8.951718128631487 7.035631011379795 0.010928731097361824 -1.010240682345931 1.4373060596418408
P 7.41569964732776 8.773385448300285 7.3815169057246175 0.5109977544445071 0.5898537455114615 -0.03703674103832331
P 4.592690544237235 1.1448514325648047 2.4177261305777438 -0.42308788070540043 -0.36259136598224007 0.7906869843148769
Ni 4.954875065612845 2.8856150601254082 12.36307438616234 -0.49796328985805205 3.3587649856212023 0.605992302944537
Ni 0.3311662834778775 4.0735566234846 3.904253364038804 -0.07330497934173827 1.0824724832281485 0.3037131035887931
Ni 7.65185871000586 3.3558161204844166 2.3513852641154993 1.1328673907409328 0.4574964400922572 -0.28445656935202623
Ni 7.393216232161068 4.116119799236018 13.460444395908013 -1.0356899756569713 -1.228094366966743 -0.6064077932154007
Ni 3.478772297177262 8.043737610294057 5.210185708414021 0.29471012875923436 -0.42227566921675014 -0.38574312150835505
Ni 0.6260077993270686 1.7625999049552277 4.960923030334082 0.20823930145949945 -0.42035402671400507 0.06381760867659332
Ni 3.534065597387781 7.668046399132866 0.5940835685484421 0.16994606230625567 -0.610453166929368 0.4541519491000566
Ni 4.501971073418672 3.2610011920511965 3.1263438399568373 1.118255554365029 -0.3590715257544397 0.9818248502073994
Ni 1.7342090464120903 3.1348463057992744 8.313149385148586 -0.7266176646387937 -0.9400675637649551 -0.7477271929238994
Ni 6.283661542649894 4.5332093381589065 10.519660840713842 1.8623824315321797 -0.3028445849409107 -0.31233041294415886
Ni 1.4091702331531615 4.514636484100566 6.156092198124738 -1.4455847547108653 0.2278614465658011 0.11523324414440798
Ni 8.05562645564947 6.120407172407867 0.4402811077087284 1.4165210045756893 1.2438945672237933 -0.21235023830407945
Ni 8.968164672867319 5.191080352417521 8.286128609717169 0.03575787432589971 -0.9167317172524923 0.41477216175085335
Ni 4.219366008356747 1.0105056310835694 0.2290618102835819 -0.08841226729682193 -0.51226736518555 0.5336098354170682
Ni 5.207619344906507 8.098087938322422 12.68214289123268 -0.14825932136144143 0.7193008192624064 -0.7532494082937092
Ni 0.7217693978725702 2.2215222784296293 2.5820704657244393 -0.5866820326516993 -1.566448200557857 -1.1801677184887933
Ni 0.03437873189982589 0.7971933052070499 13.035579034412468 1.5551697994305604 2.1605314107696336 0.1345910798457295
Ni 0.7760124859272771 5.586315124295155 12.832157747140736 0.23664227808222474 -0.9466812124267308 -1.5841888123707297
Ni 6.990788986188169 1.6384788802726604 12.827949502657233 0.6320938851275952 0.282622601467081 1.4061180640748105
Ni 8.90679752242468 1.7109768003948629 8.693335430378053 0.5168660402998261 0.5662453620639022 0.7887679129152932
Ni 6.239683908625243 6.903508590386879 1.4123652447821125 -2.3272245133562306 -0.28594266697924947 -0.31769013459417544
Ni 3.2027218132638513 6.4175451028653665 7.083096717995892 -1.2293472655372377 0.4404091455926673 -0.5981162426305698
Ni 7.88467114591984 9.392650072042409 11.16258667036782 0.46589751967175885 -0.7269755621988448 -0.2879054471325751
Ni 0.6699771130089365 7.044381238540682 7.1221598028829565 1.0344990406726635 -0.25412706513054945 0.4281416410792239
P 2.4298174376075616 2.9797458714852993 4.332054882054475 -0.3584791435860794 -0.41836270731558917 -0.017815430914866093
P 0.6904423828093089 9.04220647881717 3.260623078695803 -1.8701733883315081 0.06104133148303681 0.9508908796327042
P 2.4205911019429407 2.200092773348876 0.16512090047317618 -0.08742470657257202 -0.4176386846653711 -0.0770176523066351
P 6.87839040000534 2.760467859832848 4.248204316445143 -0.3070871622673485 -1.1789605855545695 1.0211241620276543
P 8.546526679889327 4.619417334223627 11.622523201179305 -0.35014465557845503 -0.3366170534056654 -0.6049304373389259
P 1.5497193124209305 6.989263590011152 0.6290955709823627 0.1183152255038414 1.5508850560122773 0.3277809431712742
P 1.261779983152106 6.425717528444049 5.113184378793743 0.6849470243728848 0.26609169369159336 -0.42935468755071865
P 8.182141890088689 5.915643536500361 2.652835905582563 -0.38805839990509294 -0.6948048910035712 0.6482064744187417
