# total energy = -340869.5838438787 ev
CRYSTAL
PRIMVEC
9.26958592851002 0.00000000000000 0.00000000000000

0.00000000000000 9.26958592851002 0.00000000000000

0.00000000000000 0.00000000000000 13.56697599047772

PRIMCOORD
 96 1
Ni 1.5715841574122216 8.005121813471709 10.516265650755633 0.5229484990484801 -0.4432594705572689 -1.2592211702785345
Ni 1.0691355153744253 5.4277226829653396 0.18942306389156083 0.5634312896538748 0.09369974094800637 0.3865429917018311
Ni 6.503726961599857 1.8038892533112183 13.154689247078686 0.9406625170364767 1.6716268886797403 -1.8271940565565046
Ni 0.23508689867140353 4.902795294765975 11.128990850148366 -1.5068726549870692 0.32032140156943545 0.3165243964208484
Ni 8.586343397728479 5.908832737925227 1.7550237035110847 0.23423058331693852 1.4151138398155176 -0.10001796985655033
Ni 1.4140568121463684 4.662045605979066 2.5093344140877445 0.5250768582453925 -1.3538159122369844 -0.08015439816340389
Ni 3.902820160880813 8.224977855310918 6.109915087145456 -0.2909396059732086 -0.19640477071841658 -0.1320945386761209
Ni 4.371573857641372 8.36952778011236 1.9948742424515313 0.23012093202393916 -0.5925426051975343 0.6894428553607095
Ni 5.957757613076055 7.308920283900261 4.4085344780826174 -0.548033724151882 0.08922730699894955 -0.1874655592472578
Ni 3.496219038558735 5.195278543275653 11.859396225270975 -0.43045537681406515 -1.397414879873858 1.566495765966341
Ni 4.994508579105175 3.5185865496877513 2.518532624321198 -2.1152090326837505 1.406012905955514 -1.0383153290949603
Ni 4.051300390165763 5.346660152993003 4.523650686312172 1.180372635410748 -0.3975707102709024 -0.23193844484865217
Ni 3.3175570371079846 6.607926378343028 0.09649175594591619 -0.19926229477186974 1.4900612398566855 -0.0077876143652188465
Ni 3.735114810136443 9.132210780805774 9.932966752265955 -1.2168776723153172 -0.8467671151378964 0.6304650912749207
Ni 4.733282374742634 1.41825593462521 11.269530752026306 1.123685981351981 0.5871252908367051 0.9535314025793449
Ni 5.525461198234444 5.20325038727522 13.435389924765282 -0.00662213330220795 0.9928389419297158 1.5452813366722549
Ni 4.146563925960582 1.5323738084376093 6.03754835584288 0.037523965087386986 -1.054568814839345 -0.08921650836567216
Ni 0.73036088110959 1.270878786079735 4.197961926668486 -0.2304708591641902 -0.8039731599008217 -0.7511508738934677
Ni 1.5247171303636071 3.4321383902226845 12.559695838833361 0.4352396855765859 -1.2034408300841208 0.3486431313322641
Ni 7.735821799663096 6.728050943913241 8.67788612168443 0.11549986754223333 -1.4438348618992942 -0.6227672084100306
Ni 8.371326079805286 4.068569628969475 3.1349350684983794 -1.8093223184824063 0.17054358668093855 2.0074628409450073
Ni 2.670057912622261 9.288310609820542 0.685890969012473 0.3841845187719835 -0.5470466776482643 -1.910240688666039
Ni 0.8330975571747015 8.13038172971141 5.4190305921299995 1.5889630938309216 -0.1399268902363461 -0.27542968326306755
Ni 0.9512449200413007 7.505472586419807 12.554893266302926 -0.36368125661230916 0.19051771581002028 2.0893311364757245
P 6.568317437168438 0.7906447070011958 10.070359629681276 -1.5982594315311829 -0.19517964006206387 -1.7753061094379619
P 9.104995276174696 7.742282701137163 3.5393930625266203 1.129186599455236 -1.3423685896319915 -1.5153434114622417
P 3.7385445569734657 7.55742861620768 3.966590278084322 0.29491324590897594 -0.8861289047649706 0.3635727560589029
P 8.871336820712983 1.1441264664866269 1.5630107172782692 0.6902527528565144 1.4411817405471632 1.1002218367917698
P 1.60358276844304 0.6192927011063267 9.582354856620368 -0.17286914949032162 1.237467580651527 -1.0147678807923233
P 0.783516395331816 3.335317563972135 4.245066255119878 0.9461029713257576 1.6087333344793133 0.4094389224633981
P 2.8760837320808266 4.015352935479345 0.9783204539230843 -0.35576688686123886 0.57407488541065 -0.6858571948919802
P 9.092777961766057 3.05146430007129 7.535017538024247 0.7653505624326173 -1.0716928761141413 -0.19171302166970208
Ni 7.97876838034291 2.5818670709805445 5.414077852305616 0.19554319404906967 1.5829904211872545 1.2390284973807435
Ni 6.183620346673076 5.473681290581446 2.630460094950926 0.759081441594454 0.9440769420346644 0.3645276637730045
Ni 6.085807674715604 3.040553997295139 7.039591534374906 -1.584687349273703 -0.5308479564012148 -0.6196983396767198
Ni 3.7794419706084517 2.1876871939601172 0.010482047900825402 -0.027673297545552342 0.5510794529567412 0.18002658647070932
Ni 1.6519792771892459 7.934784194554604 7.986797695775961 1.758413190337365 2.0314306646145144 0.13404112087953043
Ni 7.959061240409097 0.37918168679798714 11.541454058685938 0.4037413578579886 0.16117885763658693 1.328755883944563
Ni 7.692875807511943 1.575625696928281 3.4840944200105572 -0.4861714394294466 0.013430671583609128 -3.366549771772944
Ni 5.033700388907695 4.496110746169483 10.237328048334987 -0.3108121765274195 1.0044983805455152 0.8213792711924113
Ni 1.7791858064986081 6.083258538552951 4.218529284187367 0.34878351356487025 1.9410512462889924 -0.7596018328742983
Ni 6.852884459194826 2.970513005131506 10.989847874887557 1.6030655946705745 -0.5058516914671933 0.16964730011891427
Ni 5.143257626385459 2.5459659642243575 9.198572674267748 0.007638233271548137 -1.8585242341283539 -0.974805738577089
Ni 8.236212593598678 6.391138569485049 5.151991430358008 0.44856442770995003 0.8292363053429848 0.049955505982520416
Ni 7.518876407842335 1.1535536354954166 8.067154810250196 -0.7360669829771517 1.09322792197244 0.1030654984336225
Ni 8.018201199382625 9.065664422581486 4.7481841612701965 -1.7897940186414918 -0.16046331962680105 1.3857801238484069
Ni 5.618861547234016 6.094725016491863 6.342317513697936 0.16078162219816824 -0.7951113386348178 1.4016867677763345
Ni 5.676648146644829 2.6095275157418314 4.422183016576759 0.9010549299471837 0.9080203055214232 1.3443815062969622
Ni 0.4734172255003051 2.662883253022651 9.69219388951393 1.681165424297795 -1.0567771353445736 -1.1227241316593437
Ni 6.938859869771546 8.206540648665408 7.1222558488159935 0.18701510197340052 0.7266734575773937 -1.2936320436582367
Ni 2.935928179593851 3.036289987713976 10.481492652621245 0.062352079874660356 0.3547065639175246 -0.7950234069067018
Ni 2.8665638672115765 1.6808447681365133 7.9878961417224135 0.26610480631771594 -2.4572413435677163 1.602450329684079
Ni 7.052263985458404 5.6775936444215205 10.61790944262592 0.4936561778422659 0.2525576637609005 1.2988128165282278
Ni 5.824655627041432 7.779379584493286 9.525835409622047 0.3913941491465453 -0.12136892472850065 0.12079582583385003
Ni 3.976318708639607 4.637036262826937 8.096540324974645 1.0344830998330636 -0.03406377445292843 0.7964560255881703
Ni 2.0027404131701734 8.530216054219903 2.856336732927016 -0.8746705264163839 -0.21666712051187847 2.0080565086649482
P 9.042221639471132 2.476008398335138 11.621729600802967 -0.7521944846666336 -0.0765301711472553 1.9375997974052825
P 1.4116096414302224 7.497899334620219 1.1638836621850874 -0.33155943637709995 -1.5128496985061106 -1.3822656829372453
P 2.0877517867981092 0.5877455189159491 5.599688335456455 2.5620855311683166 0.5010673827046725 1.9122947429815904
P 8.80224132632604 7.1411778548117075 10.907794426166904 -0.3849090556428339 -0.2429206548917687 -0.6835704557403325
P 9.249545200976138 7.173871684795977 7.03719071158899 -2.7116535440388523 -1.1421938103481815 0.5582173495531031
P 6.891566441764816 4.746936474988404 4.865836528241939 -1.0251417678274797 -0.7902982335168905 -0.29865831477370497
P 5.867508923332125 7.5185983202609545 0.7996834803546579 1.63252452336164 -1.7365318168832415 -0.8873257532865492
P 3.7915665891566293 7.190640365953205 8.186055790462337 0.740624263330531 1.5612604857093304 -3.7059094209207526
Ni 3.2165834363088233 2.9548288655416606 4.18301101133488 -1.3545517619617444 -0.4965332422797449 -0.9106891106028381
Ni 2.014086386490487 3.534400463482241 7.47625855903721 -1.3860572887691935 1.7470208893400236 -0.13344051118105407
Ni 9.119622682955296 3.3954122903084025 1.1442275049745285 0.33546648474099 -1.192915505072765 -1.7430385076535078
Ni 7.801098224599082 4.5663093212959 6.9972897784539505 -0.10305161447655155 2.677843023247311 -2.4264809224564083
Ni 3.710986077658685 5.731014268804663 2.14757120642881 0.006049805738505711 -0.5200385244905367 0.817689738155966
Ni 5.174245852537262 9.219261463363832 13.25854476217955 -0.8718369136223307 -0.3235751326200428 -0.02955380239771684
Ni 5.195148769071009 0.32469227914374066 3.8518003592835868 0.3618388040869317 0.12036619449559915 0.7078974625214711
Ni 7.904407761081837 4.023695562920752 9.150206755155494 0.2640324971697195 -0.45165180838602215 0.8361176058438504
Ni 0.6745950514568082 5.881904590461575 8.608381838552862 0.536545006785992 -1.889629954394223 0.6688526899141836
Ni 7.882531538013259 4.824902963221374 13.053887133621375 0.2628081378443151 -0.8591503192935979 0.011501315771380192
Ni 5.909815314046104 1.7004962905540495 1.6648037494838972 0.7086729072349149 -1.8226115793921447 1.236511901606477
Ni 3.657324444038347 6.530488256514681 10.01193991754352 0.06888525300748782 0.2685784646691891 2.062044275735313
Ni 4.9508766375866164 0.09917344718902618 8.156221627773261 1.0672124717452847 1.252717821942378 -2.4843155740766893
Ni 5.435833570755597 7.099399830502352 11.764915042538439 -1.5773242240404124 0.027588708251546037 0.47320947995213997
Ni 2.8264636379765475 5.848728742002914 6.529432450664041 0.741898244946948 1.76848831518518 0.2673471633652493
Ni 8.639152229432582 8.784184172708418 9.40422122157424 0.8436905330951017 0.301327634075752 -0.3135953956995115
Ni 0.673875731579638 0.7069533224262116 13.087953789299057 -1.2192281748253646 1.123981915325845 0.529948584515397
Ni 0.11002905940750568 1.0641113997374891 6.506287221265764 0.7830199546879224 -0.6148713506017216 1.052157377184375
Ni 7.5303336161952 7.161107464810624 12.65528937189142 0.3325860778694014 0.19447155825144574 0.628008659314628
Ni 1.7234570551900104 1.6579210818447365 2.082191889087714 -0.34324767134830564 1.4310145702061743 -0.4933047080401181
Ni 7.771509705940225 9.208860987820211 0.3758863489586315 -1.205636295073543 -1.2260166585021077 -0.13856214867833555
Ni 0.950355039780884 4.970036871943715 5.9118370107627385 -2.888013223180936 -1.8558924529324619 0.30785617922288916
Ni 2.3761193391033597 0.9939962508854876 11.629747792732765 0.4261657482997757 -0.4864732869405816 0.4946044006881481
Ni 7.26188640430282 7.958375291041692 2.503391682473649 -0.9058492660120335 0.3861293012031802 -0.4072935939856211
P 3.452058730635555 8.119573392381765 12.116992459737899 -0.5108018363836171 0.8903848518278472 -1.0161912435024112
P 6.93098072163244 3.7888042525149195 1.324182613678697 -0.22580430692645626 0.0007649031904825536 -0.6358222418217759
P 6.364164074091166 0.8817350751581035 5.93648854789349 -0.14137982063278876 -0.10202343032235331 0.40783866785581374
P 2.0854714686307916 5.0808362339516435 10.243921504889512 0.5157185569589441 -1.0133368047727516 -1.1813026034241847
P 3.861681738008631 1.3480110115685642 2.2914490862419172 0.10394121617035647 0.14481327179436995 0.07685130193209991
P 3.9098650462757782 3.6971465856919963 6.127606092114261 -0.12329056723124572 0.5747536566452295 0.04753352680458911
P 5.18439604925764 3.552958174746348 12.167406957366321 -0.8232582333826789 -1.1407809891610545 0.601965184063015
P 6.110538930286352 5.062964472054941 8.490633994844845 0.8349582954284265 0.49439999798682593 -0.892511668362863
