# total energy = -381165.7834331627 ev
CRYSTAL
PRIMVEC
9.31079600074279 0.00000000000000 0.00000000000000
0.00000000000000 9.31079600074279 0.00000000000000
0.00000000000000 0.00000000000000 13.62729109676870
PRIMCOORD
 96 1
Ni 7.463263836964374 2.901597756934699 2.4318578709295 0.9542492545819758 0.6305694780632688 3.300119408063852
Ni 5.75776814154611 7.228007961479134 11.879440354135584 -1.1122121763844264 1.6719130524615917 2.6864287080337923
Ni 7.7697007457374845 5.118274759033241 5.862910302226725 0.13485436080944516 -0.015175422188857732 0.41391135641245486
Ni 8.195632406795298 2.9001825159850902 7.821152202892328 -0.6136529048135884 0.7890990710024668 -2.2682698891988933
Ni 0.5882076575218627 2.1743873679332686 6.368455784257017 0.07904548136994127 1.9283947338672467 -0.6287686774091042
Ni 6.219136691118462 6.635748245659446 9.957216335637515 1.8440481519993663 -0.186064308024357 -1.3774615766803824
Ni 4.649755518347079 4.961304053971078 9.898972653004122 -0.1630195103897515 0.8146704917136679 0.5807674669394771
Ni 0.5818893515455186 7.919492827298672 11.26257406738415 0.541899072009054 0.7119834596653868 -1.1800041963277357
Ni 3.5868909435997005 7.230810510991188 1.8242576880797132 -0.6296364247260382 -0.6273519995672356 -0.08988268119476134
Ni 5.836639892099618 1.80117343224837 8.93894395483724 -0.11593592663838742 0.3596078578738839 0.08110364945055065
Ni 3.4490446129486942 4.54835164214849 1.7140271775375142 0.0238418396146041 -0.8028051077346496 -2.704844748647135
Ni 4.75075903032966 0.6417456639978065 4.744736807657247 0.7825838955917684 0.6043475682522624 -0.03330298502750394
Ni 6.738437011667547 8.839399444544156 8.999299325940179 0.04168658110550885 -0.18424268143458591 0.847279793108257
Ni 8.41436161987557 1.925072190909156 9.770453877506524 -0.22786427477927856 -1.4909490417782776 1.353602510674598
Ni 7.774728575426883 2.549668300268253 5.146673617062192 -0.3715652873460762 -0.2747313716444623 0.6903129166704884
Ni 2.7258285553116197 5.9076160878816255 5.220833173901247 -0.9463397699269122 -0.03347164939488429 0.5972528661890101
Ni 6.242422991216953 5.63618777101988 7.94513289655546 1.1305829655821302 -0.633514933844838 -0.59618097328107
Ni 6.601791773664564 0.4524385653962358 6.810184141335262 -0.15884352463519097 0.4354142634812372 -0.9951477925685505
Ni 8.746589432796151 0.7215810819084483 12.142651893773452 0.8783605736734614 0.1884639186047851 -1.1151411771057633
Ni 2.317429122596653 1.173542003484191 4.277565770191502 -0.7591045815229056 0.5984486862693242 0.6638657782225534
Ni 1.2686610925710318 6.250588559064365 1.9076842798999865 0.2633843220627593 0.1915502708395927 1.3970258719655553
Ni 2.9320254373512804 3.9321631813255533 12.775135178187899 -0.980186286162712 0.693697002651373 -0.5891716318427724
Ni 1.5421564060828625 8.675445642691164 2.0421042377256247 1.1393889939095345 -0.6181801032599805 0.21731015341251605
Ni 8.87353282165774 0.5314825656705833 5.12376626634955 -0.18210943714166702 -1.6614126671509 -0.944333795240477
P 1.2234478685493306 5.246810293963138 13.790818226698136 0.17697391568731458 -1.518492755724501 -2.1041376053609375
Ni 4.220593011174041 4.154188416091098 5.972664100028004 -0.5118899272414733 0.7341378842752389 -0.5558920438540361
P 5.4460706331905735 7.515730170852818 0.40617787685591 0.32247701445985755 0.41156059679209117 0.4188537880193948
Ni 4.465411073864859 8.6613025439908 10.15410335303564 0.6958631570647564 0.18861432813972034 0.8218950344865652
P 3.0251706377452456 7.049659669441308 9.530941106217595 1.0247057087313256 -1.7051054800531602 0.07147872476627688
P 2.820240023923656 2.3835078398293574 6.306137697416068 -2.4027079884065263 -0.008445816774508036 -0.8357368254656639
P 6.589315307398278 6.079037147902947 3.714363185658247 1.5354792629801683 1.0217062597833693 -1.7671850229927242
Ni 9.260470870235551 5.370988376495558 7.8426694518038085 -0.4663873148239838 -2.064415089960335 -1.888004502975658
Ni 3.1814616547197674 7.57505856118772 12.098227294149329 1.5788612295102293 0.7646633065576056 -0.4475938362665647
Ni 9.308970805146805 7.071148985965626 9.014984292411958 0.21527949613573247 2.725566297465203 1.4741473968399061
Ni 0.33421566780703726 7.5210745675967345 3.9577334196144327 1.1997338135461788 -0.28100074959294186 0.46262964755376457
Ni 1.9808997220529203 4.20966213699746 7.376902482332807 -0.5330472780453788 1.2807091649489815 -1.3797249187932625
Ni 6.00369418892774 4.763635860811952 2.087605165335108 -0.07148592385512849 0.46999431544895187 -1.3634632055187614
Ni 4.34602805112881 8.802686977015828 7.769395351637833 -0.3460146925704815 1.2109805901045918 0.17101512700071836
Ni 7.538048148196314 7.550915667882885 5.357623660317478 -0.03494026352061079 0.6843343304895505 -0.07796561804220122
Ni 4.128881673321126 6.268781853903411 7.4465379235309745 -1.224767102365723 -0.4917885285059079 1.1845866734920953
Ni 5.651746110669853 6.004606646908409 5.5353779235883 -1.9059973400086527 1.054326616921552 0.9289984504349871
Ni 5.948304265182868 -0.0595974723312411 1.7797101859520714 -0.3139206402494142 0.600673718945101 -0.5778945162670563
Ni 1.6992481514893991 0.27909389497893283 6.499726830969776 1.014459605523285 -1.5193111378607382 0.6734788758322853
Ni 6.404402904377071 5.055948292476142 12.155515689141735 0.4143363597650155 -0.6745463978648512 -0.9258069400808829
Ni 7.712290379321131 4.001370325920551 14.054369610379823 0.23125915939344044 0.9896862552333471 -0.8580339463009674
Ni 0.5431145427649637 4.894461851489243 5.320857190173967 1.40240564822023 0.0961299476560538 0.027628303240229836
Ni 3.832174546076573 3.44413782360367 8.388905904374061 1.1268178421127433 -0.26170230637464603 0.8204642155773095
Ni 5.326287246238517 2.3270285529851154 2.027018886498285 0.4434700439061782 0.12844177241488203 -1.264288814609429
Ni 4.736792836747998 2.115608314545913 6.841499140584065 2.847437615751419 -2.729048085366216 -0.6364747878041103
Ni 7.7213311619663285 8.009891342954912 2.736183091233064 0.2181128518194695 0.3331098115833553 1.3587979388326081
Ni 8.645846623093762 5.2669960990865015 2.846850278094583 -0.8994384773896832 -0.3032420774896455 0.8574510772143038
Ni 1.398500138901885 2.2206247794842917 10.89270270736313 -0.18280569187774323 -2.3158054728860114 0.9036291184322632
Ni 2.202329065892314 8.928606178348094 9.241551333330259 -0.9865533660313203 2.074583802963221 0.12850759265581094
Ni 0.4438409766273645 3.420264943374749 1.5498862286905264 -1.106132802959566 1.7767125028671853 -0.6245631239681889
Ni 0.30039885774797254 1.1587843922662349 2.6133597294780655 -1.280210370935692 -0.2451379742580617 0.328682371939621
Ni 5.118926514733719 2.7378208602004066 11.234188244469209 -1.1483842554296095 0.523805961952769 -1.0690374407691654
P 0.25234025455390074 7.526651734233678 6.174824752122564 0.35027963849442256 -0.37445366463746477 -0.5306929188805892
Ni 8.003317921175809 1.5633477771441047 0.8908932466989392 0.20385479923855862 -0.876695784376529 -2.038302194923367
P 0.08787994541367919 3.965821707857359 9.515324108554578 0.6628057123891553 -0.9651754145761765 -0.044508109714703994
Ni 7.506391442744547 6.602452840160763 1.0553842814650405 -0.7258579036546338 -0.8737331022037792 -1.187445225986813
P 7.180355308978503 0.7981409618844041 3.481146374435931 0.4610527899849479 0.5262850196208807 0.5259271220608297
P 3.0098916219669074 8.48628751682113 3.928965854074925 -1.226086849618411 -0.020199100655694247 -1.838395324588963
P 5.93302524940453 7.682430657443538 6.932406956766249 0.3194662526579918 0.014204059414523925 0.42052191975043707
Ni 3.2065076952095484 0.8193323329456462 11.850332944552257 -0.16519080700945743 0.04945568352796644 -0.3992442413185833
Ni 6.273940034732904 4.013995764918373 4.350961841781426 -1.2853381790805605 -0.6368131449801355 -0.4763007172829539
Ni 5.385448042250438 3.4898631413900323 13.550691873971184 -0.7587433415287449 3.7128966508718637 0.8923113794265988
Ni 1.3200473741558278 1.5389534923548012 0.36040134969308185 0.11284288953536051 -0.23858886028563425 -1.7288323913564547
Ni 0.5472708819748664 2.8625948336589766 4.071180810078275 -0.7379354036444582 0.2523537752802106 0.01488128798720663
Ni 4.017701461615374 2.9095398656848044 3.6923962253134373 -0.04894557666076731 0.43004168631541423 1.6893818986703162
Ni 7.239367132258886 8.858039657577816 -0.22747391242153722 -0.32120791793944686 -1.8000244381202486 0.17418581141921616
Ni 3.779503374682264 7.874028211792502 5.696766601220127 0.48961980298936314 -0.07535851943665732 0.9242197980994212
Ni 5.015558060637976 7.806915996234754 3.4755720010377034 1.709879761513352 -0.29392517096409376 0.9755940388063392
Ni 1.9685070529481254 7.199395886228169 7.451238944290563 -0.25785439338346555 -0.3782568404336389 -0.22204766809750143
Ni 1.5155647735033777 2.227784781393824 8.543970689552111 -0.05467245184221552 -1.1000896820892796 0.1130308371764505
Ni 4.2914388558159535 5.7446957843536754 13.661631867147332 0.7291599714446733 0.6253910191861229 -1.468282196308381
Ni 8.641768494567916 5.5927156657980275 10.648950730782381 -0.6661558598083108 -0.3365669168940204 -1.1879381064628314
Ni 0.4551824568952464 3.9340812052441017 11.944347773266575 -0.11805811518771281 1.020578059716197 1.549232093789887
Ni 1.28511326861023 7.5913710752911 13.413464711235632 -0.11864381248785372 -0.7865552215346905 0.8326527872237014
Ni 3.6585002734907426 2.054157062786599 0.17010637566550152 0.31478144558781274 -0.6788586520869598 0.7427490229830176
Ni 2.3332481645268155 2.567396055321243 2.1087416027015955 1.289561730243605 -1.8858843713088618 0.588817076716831
Ni 3.678965402485739 9.013995485906376 0.3516007855774904 0.20681696719067608 -0.24639498659361436 -1.0851772837538216
Ni 2.018040486184421 5.9273084208317695 11.13387838676785 -0.8556091389095587 0.31404893829716235 0.6168986654443956
Ni 2.3904723150287466 4.074767328590045 10.072298701829984 -0.4180945412558671 -0.4694744383897398 -0.43510238866777323
Ni 2.06794635124956 4.360701865185277 3.3965745547419615 -1.4473385041771782 1.5003111997194676 1.6641395791637597
Ni 7.581026781244949 2.7578763141836737 11.917951667397231 0.4963118702975582 1.4791836737122332 -0.5570588104686277
Ni 8.694048612541938 8.912349529019039 7.60623576065985 0.4689874714509923 0.818335599270081 -1.1008988082541362
Ni 3.8081154499332293 0.7078960743575635 2.415341450399826 -1.1094230436750634 -0.7620646925924939 0.7853974537811635
Ni 4.200304787297747 5.332469614597333 3.540356517665174 1.43953160653825 1.2629459274282895 1.7928528600724734
P 6.357029575748073 0.8724671819668661 10.86088213190667 0.5984276032234017 -0.0106083716434656 0.5221000350052557
Ni 7.004669904516914 4.056983708762729 9.579807886480257 -0.48875256989306154 -0.005144777425733075 1.0581603888453455
P 6.355986766627309 3.760099676399475 6.743314937545835 -0.2664210520065541 -0.9795360541732229 -0.05395562828084901
Ni 8.3136281209689 6.760429111160804 12.399567473344705 -0.6230189194095205 0.5606197883470088 2.0521331872691886
P 9.314333823482162 -0.05286576702487991 9.613249471471763 0.29341300721436564 0.2646161375873313 1.1289107200860298
P 3.4329555579426194 1.7560346945924374 9.811076879237717 0.06338334935265214 -0.3760246086690105 0.21080860484857245
P 0.034833548951809776 9.180202500323878 0.527362538563993 -1.024074760015546 -0.5621148848352964 -0.007228656537955292
Ni 6.064726454879604 1.624417286278853 13.03384960349247 -0.07919743356677328 -4.140680908611668 0.5235930746110143
