# total energy = -340887.10567504587 ev
CRYSTAL
PRIMVEC
9.09374716411775 0.00000000000000 0.00000000000000

0.00000000000000 9.09374716411775 0.00000000000000

0.00000000000000 0.00000000000000 13.30961818474127

PRIMCOORD
 96 1
Ni 6.7372754972793905 2.4596494990040583 11.03678832665017 -0.2500148427343888 -0.5237069744810593 0.8144054109777394
Ni 4.820313558223369 0.528610439067303 6.0792883148204835 -1.2500559588394988 0.34172866360061793 0.3082595853088949
Ni 3.138670519058015 1.924082343222439 4.826626437626086 0.19707891396730573 -0.7349680934860181 -0.5677196326165836
Ni 3.832341566075061 4.738160644763065 4.974975466090993 0.1486781540664149 0.4388353733476442 -0.7022693177014163
Ni 4.231411574298659 2.7932809013763893 1.758799847837625 -1.539515123612439 -0.9737413018683165 1.4564355813824401
Ni 5.305137603853505 4.549256231290528 2.6658502199153262 1.0376897796958193 0.8763211746459294 0.49859089613972196
Ni 5.56560071513644 3.1748181647304423 -0.09410755371212116 1.6045987434856495 -0.7329199527077378 0.2874287646064727
Ni 6.0496881672321186 7.954700922284726 12.571360918226475 0.22912231555609572 -0.8573508041910138 -0.6763829368529578
Ni 2.2755011153898055 6.528001089767549 0.4821995901481079 -0.9543397574132532 0.12352042385386468 -3.2233457534472234
Ni 0.6772450111986548 0.4313864581421149 -0.056698605283777924 -0.34103600840896753 -0.9272333881147644 0.9800513032467445
Ni 7.828170521810222 9.162405131384697 6.691863141818014 1.7074235866633753 -0.3075949551417025 0.8321406234739732
Ni 8.98815074487525 2.632521635917981 1.5167379342951073 0.48994401909800134 -0.8332284572215134 -0.09246458298932463
Ni 6.653558459276782 0.85023900432692 4.718259888086451 0.8844270915825154 0.7061244297814485 -1.070408352974763
Ni 0.9077906031110938 7.547828478844288 2.1548270882016016 0.06225874882990568 -0.8961286962901599 0.6143285907243742
Ni 7.502132398465935 4.326786796389833 4.113231052630802 0.372640522688126 0.127453954580316 -2.422856181219627
Ni 8.050276206817358 3.9573805919859733 12.71264228625953 -0.8572556733740462 -0.27184556545623506 -0.5793330484857957
Ni 8.379269798046812 7.632000204213844 9.096059878923734 0.7644984988449672 -0.9035913232157923 -0.5176234872911408
Ni 7.308417392651082 0.6804614696324504 0.0765848119646494 -0.5610980135350079 1.1487786626545506 -0.05881681302789225
Ni 2.2157006328887032 6.829922595168871 9.151228006530362 -0.3391745297201965 0.20398129751409388 0.20497065801055667
Ni -0.08208380098052785 5.356790088738886 1.428534950730183 0.9584362960801301 -1.4048397115830191 -0.4056971960327787
Ni 6.7119403171930045 2.114687287447364 6.995336040515367 -0.1918364346214438 0.5360274437196253 0.40696783521508617
Ni 3.836151846210092 4.628035364488072 0.4884670008141298 -0.43918452915694683 0.2159605813631571 -1.1452215414309117
Ni 5.980939437349464 6.097303028298994 4.641184013765496 -0.04485366597958081 -0.443667504628965 0.5345981674722664
Ni 5.715602077492839 3.455405738874529 8.841486787792254 -0.13787309303111095 -1.8413353810538933 0.3693050305569898
P 0.4145502943187358 5.637541350335074 12.273784405303713 1.3277670376687327 0.5355641309299615 1.6813338315548594
P 4.307080645906273 6.374635040895728 12.674616781761605 0.35411443885948046 -0.02197007651318797 -0.3315686923484806
P 2.3811158969846664 8.597847109086425 0.9500310595006347 1.1867754536132982 1.9640870450625336 0.37993988456301664
P 6.320790962901654 7.953655141340744 5.764688306879161 -0.4267388471944264 -0.5125895244116592 -0.30725299842125153
P 5.327590066033435 1.1457939772162267 12.274250005167469 0.38913363524714273 1.373683597695189 1.658833593569814
P 4.005441046672458 6.497309692498507 8.08522074971684 1.44329852977985 0.02557322048341402 -0.12603264875275713
P 4.785020724800805 1.4341567053351374 3.4589168347221073 0.2534500936681829 -0.4977591442670459 -0.4308163596979097
P 0.13292057672960222 6.05518079062486 3.876745424956544 -0.4002562275228655 -0.24044956764345685 -0.8393633664746577
Ni 0.9757954644614198 -0.2844642386346922 4.18105676715855 1.0128886614917394 1.552823410685571 0.2843172155606845
Ni 2.0445381204745074 6.60245159923174 4.728667681915908 0.38511680077826577 0.15884223908361028 -0.6297487819341864
Ni 6.1086338374833575 5.757260534052686 9.244195204326177 -0.26197561464069075 1.9898862655138247 -1.5169783759625037
Ni 8.949156756285724 2.744638446860209 9.977582283471465 0.661153521497713 -0.42327505701554197 0.6733927438763821
Ni 2.33830253451277 5.535609536412498 6.934018720958123 0.69729011931927 -0.5405515568422238 -0.3221278586505549
Ni 0.9897725541214251 0.2449673658173202 8.985337139448571 -0.273769007731193 -0.9860574002315082 0.3719941473533787
Ni 1.6573081712862556 1.3490937927263615 11.163575170799632 -0.9956715262825048 0.5459501021499759 0.5694345584251612
Ni 4.354368132068946 7.313100672530653 1.4835430283836455 0.15894225499658432 -1.7297155652923566 -1.9570491643791457
Ni 5.832793199450215 8.117815468303927 7.93659163383389 -1.0249216813968736 -0.017288611877118613 0.9681522378163133
Ni 5.516967354367599 2.9813123151043843 4.9608674264693065 -0.5451895698348675 0.1984043176469486 -0.24037269165893438
Ni 0.966874498321885 7.7928140321562855 6.783619961843011 -0.2925933395265477 0.3323644487768986 0.20679614125506962
Ni 5.315286225883802 4.85367851721007 6.968823220148585 -0.22248706962776524 1.2412537871668365 -0.10346607630615086
Ni 0.9750588709269629 7.515700269495687 11.126760953447258 -0.47344190767792016 -0.8194319176580533 1.0540095999017653
Ni 4.8030354382793154 0.775009160715778 10.272669837747546 0.6888360750146459 -1.1124191501889098 -0.24828629007905628
Ni 8.09669069323549 7.942924519480753 4.529236346523774 -1.0107027095840142 -1.3696695914397896 -0.02073774676798364
Ni 7.373364936146044 6.491262350518088 7.181710573478202 0.6539071243479448 -1.230245866092107 -1.2715776349613583
Ni 2.5224145431376663 5.321551817800356 2.331672283327923 -0.6605022610669592 -0.1241223191039217 2.353946502732107
Ni 2.9017602133830267 5.25761368026002 11.211197306864378 -0.654293561153086 1.3039455097691028 1.2992295923506723
Ni 0.6932290908963719 3.8187464138032925 3.5890720028859273 1.4131515738828242 -0.29893239437069813 0.135207887494122
Ni 2.0590335537328346 1.463229415577842 2.605876956214783 -0.5665716350550694 0.43079656220356777 -0.9584452949411945
Ni 1.4021830896913 3.381328073051235 8.12493678184508 0.6731196927206536 0.03389845251965775 -0.4636439477508919
Ni 3.7635837424450673 3.1099797462035474 7.09785985738971 -0.2796293231667119 -1.3975220948756835 -0.4136287921750296
Ni 4.20317548881114 7.250681190795926 5.944754507312947 -0.3056298609955317 -0.5637765888084355 0.05112047282489905
Ni 8.43235000126441 7.427227201634795 0.17961242244157158 0.05950201202037494 -0.07034409694120143 0.019251392030444264
P 0.4073671432956791 5.888201401986593 7.7670805459364525 -0.4226099126277173 1.0715499227783738 1.9946888291087903
P 8.905415831585252 1.6122031844849376 7.917599342516441 -0.5284025801845158 1.4426876356687282 -0.8319380205448641
P 2.0687093009015043 3.4627898617137776 10.322168013888325 0.13942835333337278 -0.5403255568743469 -0.4154087668935878
P 4.032895069888825 6.36361341912089 3.43175199267112 0.8864371800340088 -0.3730282450448479 1.5193047101028352
P 7.337990258997428 4.310272551222254 10.091685168832525 0.5330223383447144 0.16662008325681626 1.1837405234417162
P 6.533821088064493 7.916516277208369 10.164688863095085 0.9843129067365757 0.48006892607613455 0.14313074188562447
P 2.645480225876021 8.81073173429184 5.582174069661722 0.21070910315623065 -0.5250382916979732 -0.15676427350865904
P 7.240096068893359 3.860095682953614 1.5244439757901551 -1.2689990756009049 0.6109478471775994 0.23767046223642288
Ni 2.7196579229200437 1.6804335707692704 -0.0868807527018374 1.1330905624953325 -0.04904893500785101 1.4776507820074745
Ni 1.7931596627832098 1.2352037010530332 6.793642180785296 -0.643730183814943 1.0861748717804005 0.36377073100232193
Ni 7.302751988058899 0.7908950279422341 9.295557598671445 -0.9541988609600148 0.5317954079161487 -1.562097379788329
Ni 2.9632612266365177 1.6705213861697872 9.281462290296032 0.23551227824283955 1.4330205448926094 -1.349683892346482
Ni 6.711813004730259 1.7635322339528277 2.235390414627053 -0.16163497133739904 1.0700671675852604 0.845784182399337
Ni 4.639175204978317 7.08512042674254 10.583528678033616 -1.4567240591571364 0.15151382374299713 -0.7462058711833665
Ni 7.73632367368657 6.332494615726915 11.403681019289536 -1.1699550396218494 -0.3414286158616958 -1.1574317103438583
Ni 8.227076842581718 4.039769942877091 8.143902701295248 -1.0906935855863604 0.5007627069800601 -1.5328122576709666
Ni 3.8716993045581467 8.66614115160213 12.209671667814467 -2.1311545002694134 -0.04337528166184143 1.706640428640448
Ni 0.6178755723214197 5.297771668508935 10.026402066060754 -0.8758971997346333 -0.9851901671352065 -0.3433214620090345
Ni 8.819525387968628 2.371249181121878 5.512604174394358 0.2616591118415365 1.2909943489250735 2.8385266864150345
Ni 3.98323411567068 3.11910077478454 11.49292250880057 -0.23309518416091468 -1.0483284903565881 -0.7772953934993194
Ni 1.312918865811917 3.5795353900515434 12.63126688819671 0.45232877984838876 0.14631453893024476 -0.6007513662605718
Ni 3.1840028495428077 8.741337348348118 8.003832620407742 1.2466109377136916 -0.6058308376660082 -0.4182518927693378
Ni 5.42633906838737 8.191674884191087 3.5133801969099654 1.2409763651357335 0.5699881169357861 0.03405657536407684
Ni 3.1569580449566943 8.396011386897865 3.0911984298243613 -1.4270558426687423 1.1923735165263658 1.238033737567642
Ni 3.6145645048012773 4.549410824995291 9.047280108822736 0.152033443691893 0.12660214810298198 -0.06593131258548646
Ni 5.612860920057095 4.979745136570286 11.400433642114788 -0.3706738858800584 -0.9040250683191011 0.6884599226221498
Ni 8.22048387576096 -0.12750434081450845 2.1869962194132273 -0.17756861184852 0.8504918722876514 0.5288597223265924
Ni 4.727893804017361 0.6040057888800144 1.2590129503359384 0.18386190105639946 -1.0037684443580261 -0.5390690587594265
Ni 6.444256770522924 5.635768069603974 0.38195011948324276 -0.39912802745569326 0.4123272997547866 0.5369651250425462
Ni 8.29158788620441 8.998744960525157 11.196836461066669 -0.2079770489370483 -0.29451035404360243 0.797087231414266
Ni 0.09909729287701699 4.875821791980475 5.9268661969224485 0.6196358618699006 -0.15880135854334587 -1.0553946531747502
Ni 7.377711747374074 6.5101864387304955 2.6275982811086602 -0.1631956309562996 -0.3113485086468638 0.3127739282394807
P 8.618826384197442 1.4024559021114693 3.8277928736561053 0.047061215153860886 -1.0865613085855415 -3.6163717817702365
P 1.978171952394665 3.49001654124667 1.4385835415397508 0.3998276246258791 -1.5916128727489427 0.20680976810182444
P 5.066845048582993 1.1554879118795744 8.169563437536368 -0.28997852761151993 1.5384347460640666 0.014741934195864934
P 8.742792347922354 1.8483587091307905 12.026730933846833 -0.330473916622405 1.181254523795069 0.6067926873586453
P 6.384274413075041 7.945334362525582 1.3913606209831852 1.5037361662406168 0.7764032207023531 0.016092534686488413
P 2.129691970556674 3.6276413134747236 5.608713261895788 -1.7740899776426737 0.06140719946288779 0.6966347451234582
P 7.098915641455766 4.121249919034311 6.076998509240529 -0.10696380504676417 0.08603991040990344 1.6202788732250677
P 2.5953191155542323 8.647853625703451 10.48759328110636 1.4393230900718696 0.28684923795391887 -1.810972709601636
