# total energy = -340855.5045511433 ev
CRYSTAL
PRIMVEC
9.47423169639932 0.00000000000000 0.00000000000000

0.00000000000000 9.47423169639932 0.00000000000000

0.00000000000000 0.00000000000000 13.86649575769396

PRIMCOORD
 96 1
Ni 6.537684022531401 8.846023699837854 11.15877078967194 -0.7152719006086714 1.522191801842643 0.0362533259050795
Ni 0.7625619508259667 8.41516407060477 9.032787331984784 2.3487022236140325 -0.6242579340229443 0.654295360925299
Ni 4.078533527050217 2.7028940511528328 9.248425579695928 0.17372121307797178 1.3070236344737942 1.3250653224668534
Ni 1.674807286269509 9.56840543456387 11.648217172104479 -0.15955212066644134 -0.8104446265577784 0.624795294583653
Ni 0.9016313538126121 3.0785378587800407 7.097316459877887 0.4996270507137202 0.9703245628772836 0.48101869158391347
Ni 5.350013301036999 9.416021893948065 -0.5548470029790993 -2.541258824230952 0.41399903103025476 0.03438130569334724
Ni 8.12443780056395 4.109381625051029 11.802592196196871 -0.029765661298206805 0.11067802067355778 -0.6156339397993591
Ni 0.6259558480482312 5.602169974345231 8.214553849014294 -0.027127195234095215 -0.18156770570558406 0.3231146480438564
Ni 0.04061318848282565 6.482619788630688 1.5642790058957154 -1.095767657675158 0.8637816474180221 -0.6998275410291431
Ni 8.297446743313587 5.351472332699199 3.7500685503857367 -0.9011791142298737 0.5422867943657758 -1.8665573888454754
Ni 4.5813594193097655 3.0965957441576664 13.594545513593728 0.023422492688998372 0.8637124847429836 1.3647155898686238
Ni 1.3930815362227824 5.000376259076936 2.532438413812044 1.242640383101718 -0.07814533815317509 0.4719956621496968
Ni 6.735250173517559 5.650156957261114 7.414095919320561 0.19670636111923542 -0.3950484580696809 0.39853538817701684
Ni 2.080285449119247 8.18543290342919 2.3976693645362612 -0.7715579767949099 2.0372292735741624 -0.10948837124083079
Ni 3.8210618098296814 0.331052389306993 9.089987057681991 0.5587531674519152 -0.583294347126389 -2.0429242670764105
Ni 7.6396224225241625 2.8435863900078866 5.062380367604673 1.2452209993447008 1.0247396472930546 1.7175946136591063
Ni 3.2381312896226935 8.137161693566126 -0.06223243750864035 0.11901096601928535 0.14698328286249523 -0.15731294692327746
Ni 8.005839369736503 1.5417227553673578 3.336888784690526 2.0385585339085472 -0.49397936550963956 -1.8725907395237493
Ni 2.414640555552494 5.5139364557083885 5.133986609831374 -2.295001648766783 -1.253577341729196 -1.8495158599821566
Ni 6.240628965799996 8.00236232674931 7.691911653997222 -0.4417111522335425 0.7553433147082604 0.5333205863114235
Ni 2.7020887414691503 3.049726720567366 4.9591159805776925 0.023501425556049848 0.5377799076343577 0.4755085603989617
Ni 4.502931730350698 0.8758557593958403 11.305367469643123 -0.5941539155487122 0.2927563474669732 -0.3728217854609966
Ni 7.625136322449457 8.690570508192485 3.6755641407209385 1.4792528363872717 0.013917895632672804 2.0608456274415214
Ni 6.264939844015623 5.419241511138943 1.6734780515798549 -0.1765594538577153 0.002228889330518742 -0.6475940376457233
P 2.977627818298884 4.228719045941148 7.1583011410883985 -1.30116897546523 -1.09115715548634 -0.2813146812889349
P 3.8389775817337157 0.2176022559161693 4.236658451999096 0.09815803382967611 -0.11996304551990954 -0.043614651366157144
P 2.9560455187762025 6.5425727260229305 3.130111785769359 -0.772051885712193 -3.553613467596093 1.0770178878714807
P 8.523625073649393 6.824118465669775 7.601169358839919 0.08088690545405423 0.7984979957188636 -0.42458014898021074
P 5.603420572912833 5.399573006393954 5.548914371251754 0.6460482904251583 -0.20929268242467827 -0.03921729362940988
P 6.769395304105681 0.5566006832432118 9.211235431080329 0.27280253005286564 -1.2562317486329075 -0.02554982344464632
P 2.385459922308483 6.105005340836352 10.015214932649645 1.1923187520290306 0.12034279745683145 -1.6833441771166686
P 5.170192385786565 7.320625045470313 12.774037267622624 -0.7730384179951784 -0.11506432266671152 -0.4558591615991504
Ni 6.213854787375459 6.676112020040573 10.830717942080875 -0.1979145224947237 -0.4658880065900622 -0.21957838062140247
Ni 4.088074078243957 1.099370883236551 1.0884101447300585 -1.2181755651911343 0.14555272106355577 1.0052609697431527
Ni 0.6292794084839451 2.8424115852928677 1.9383832508923553 1.341204137010245 -1.7593840388910664 2.7810370768389974
Ni 7.591370161124243 6.97334708717186 5.602715690083821 1.0421010213896376 0.12039859039543135 -0.18898585254652614
Ni 0.2152441196777166 4.311969118770734 0.05578901261602604 0.1919343936518888 2.8810113379418056 -0.11106831413344097
Ni 6.463064974664572 4.729687988812441 9.654644627454653 0.03722468867941331 0.038566547419288416 -0.16641208101106822
Ni 6.265697782541442 1.9936625498497684 1.5685499894887027 -0.1985416145557613 -0.2821011817459722 -1.7743170060518152
Ni 5.8805702691099295 1.8195451220061194 7.867309050526346 -1.24316823058073 0.036844679632175255 -1.3797861110485012
Ni 1.877091604578887 1.0145859848921819 4.069122772829023 -0.0020926208629705894 -0.2157579784340478 -1.536424657612573
Ni 6.373050300492056 2.538459287976514 10.186563042604586 0.25703652546786054 -0.8435028425643281 0.11769456120070698
Ni 5.496712302709164 9.017062002420365 5.445317438696571 0.8018550851165546 0.06711016338493604 0.6048934134534034
Ni 3.7297870628579917 8.133154093610862 10.561264164190307 0.2350101417954404 -1.6308157682006492 0.7205804573057784
Ni 8.483568022559888 8.9193163552845 1.2675062812651776 1.779167392165581 1.298077995244732 1.81946660600526
Ni 0.5199534080967313 7.393851381295949 13.034103976870929 2.2562646372079014 0.10095976494452935 0.7176193177949254
Ni 0.5401941564287136 5.7681016661100415 11.042805247798558 -1.5526331490516359 -0.0960301888533959 0.2003802104263968
Ni 3.779327819751802 7.317773301766921 4.98693232447523 0.9526945085003463 1.1736702836899078 0.3344601549636627
Ni 1.618009267990987 3.9729621646352764 9.586476583865695 0.1400083942065589 -0.14984774889448388 -0.9377512569269527
Ni 2.493200883753579 6.626400726978453 12.084096249224796 1.424779902150372 0.3971948149887224 0.5605110306832863
Ni 8.046076431225892 3.3318882852664387 1.4438207834105425 -1.1322161303101792 1.4030098574631322 -0.2755410120299513
Ni 2.6731354897828847 6.319899861369036 7.126671418982836 0.20173389624081386 2.0708528751658783 1.469588059603998
Ni 6.057624708741126 9.04195080876193 2.172879956549018 -1.0417834901492187 0.8028573011288237 -1.8956712754922962
Ni 7.1351764366656765 8.130217081823314 13.759724003948504 -3.2417898190850236 -4.782534958449822 -0.7129370818279077
Ni 2.437634515579512 3.263219054827285 0.2573855017132237 -0.8759249676487753 0.18156076372704863 0.9080167059769974
Ni 1.1956574987102153 -0.06361472789510178 0.5222092226341984 0.767515174184104 0.7493076500371417 -1.2730171956213625
P 1.298765560916246 1.0571252846537438 7.701534631005644 -0.27921486133711265 -1.5127036598465498 1.5948812590875694
P 7.288308441575727 7.2354422293998875 2.08755976412079 1.0932927137721042 -1.0038337503783228 -0.2553555382210118
P 8.253022071469054 4.274489058669011 8.524733558743403 0.8891561216270688 -0.9955707390385821 -0.10249574197308153
P 8.355504834391283 7.2290755457830125 11.125408230611727 0.1351209842072705 0.30842490724216565 0.37579295227417864
P 4.099575795373252 3.225852685504434 2.2400352047828496 0.7738421448433963 -0.7378161044577746 -1.0164203287940818
P 3.0582345805196787 1.0443540204937023 12.997690715244296 0.06328976119758133 -0.609663324038221 1.257708333178434
P 7.24647970918212 0.7062234327787221 13.682792296154773 1.9239588095830802 1.723816169088786 0.9871709450106613
P 0.512000738114581 2.9238994510499268 4.61440932872808 0.12603753384876357 0.30440293056696605 -0.732930494230699
Ni 4.641066026681116 6.105905392835762 8.739844091755945 -0.9317495308175631 1.1909781788407359 0.7505330378038106
Ni 2.532916862506467 4.212025449909996 11.676684395711064 0.8613990061184584 -0.35108336534264056 0.9707199985434894
Ni 9.35550050266146 4.73766529179668 5.572251298461704 0.6809682422307949 0.8690015010560647 1.1601974460144533
Ni 6.441795324783791 3.7294175678266552 3.2421531009253175 -0.3610828997575136 -0.43626632706888735 0.3533901590989462
Ni 8.587102425186691 9.537045728058128 10.17456866543351 0.8458458888752077 -1.0382124849685086 -1.047031111701403
Ni 2.135463373798832 9.061818272369948 6.0028333327097085 0.8828360929463117 -1.183866250386303 0.4986741998821476
Ni 4.340041266920736 4.642354522175007 3.9442135563509817 -0.666937989389974 0.7950473181661017 -1.1476808016046813
Ni 4.430614920756043 7.409692296485556 2.0749268237417104 0.5883535068168513 0.2800558691811693 -1.1655039458290315
Ni 5.4176498402347235 3.0367564975442973 5.446232649466497 -0.7648913634080118 0.15884532440740384 0.3669393585382906
Ni 6.002787856398159 6.811053500330979 3.8305777280213325 -0.44842661658050514 -0.6928081722885165 0.2243917428496458
Ni 8.680470977335954 9.013386000570147 12.440909074178045 1.3007439721126695 1.7305380611936518 -0.39473041260862984
Ni 8.268777718574505 6.087146414321755 13.18669026604239 -1.1222582477665188 -0.2471802014990711 -0.5017104156053102
Ni 5.026146168954764 4.125942581840163 7.539643699006605 0.016790846305093664 -0.7198469215738634 -0.12938305328222877
Ni 2.0746103844071815 1.6513206662007092 9.951332084001034 -1.1040329830077438 -0.23464633069811847 -0.31032186715456234
Ni 8.61825369859783 8.908278875502269 7.609336146455613 -1.1906439354297687 0.8708717214955841 -1.1138875072043202
Ni 8.239388652235894 1.7872569408062524 11.587870106678812 1.4168673321715148 -0.38973347361467076 0.3451726562851604
Ni 8.182903283599272 1.7837893720506328 7.4376697023198295 -0.8108742578960294 0.49732565627405323 -1.3828698921801474
Ni 3.2794957846692365 1.9514358997301064 7.244051463630029 -0.07660550446988097 0.1357699306451791 -0.9624078791333682
Ni 5.170230282712856 5.138586349259935 12.348280459514612 -0.05259088672283845 -0.6416514469090433 0.11157122191178849
Ni 0.280484625710699 2.2209967364374466 13.657970756857376 -0.6228060320677661 -3.553884718979609 -1.06468379178616
Ni 9.164774746870814 2.22964670986335 9.317217027722368 0.8924373634815016 1.1879172805272251 1.470647611216764
Ni 5.680218694041389 1.3288367719280938 3.642395803407964 -1.2876025496347052 -0.17519625496160152 1.693440385010406
Ni 0.32078326970530996 0.9991714101233486 5.752058002364778 -1.9060582751535757 0.306910013259536 -0.21432793085574053
Ni 6.2682558250660785 2.160285860519387 12.60371521694701 0.9156212577971327 0.9429880798458598 -0.3369237860128068
P 7.49088646106386 0.696245172086322 5.550162127549883 -0.7006315249876772 -0.5141383569560177 -0.034112368302676735
P 2.0347522921807024 5.526688771405285 0.03594997170272749 -0.22273723796535835 -0.22206720848152722 0.6598975376034248
P 4.5815678524043655 3.051593144187194 11.399202153985764 -0.6968800283650449 1.376694102386739 -0.5618197221923807
P 0.763708332846267 2.8973905511094253 11.700049745615733 -0.47345887695878464 0.31198074291422395 -1.4703233951081258
P 0.6839902535469945 7.236351755630871 5.378162190462739 -0.044132214432524 -0.524526127948245 0.5388397163574398
P 6.978093677189798 4.434688840332318 13.660065509458104 -0.6657159440574147 -1.100074769690944 0.13043180626171733
P 4.02327980851805 8.17627132149836 7.151367898423474 0.5402245125201084 0.1338133211394405 0.8033072441820488
P 0.46398817477345244 0.33044414364002367 2.526738716097889 0.114087560575739 0.9600964573913724 0.492482726359455
