# total energy = -340894.59885885473 ev
CRYSTAL
PRIMVEC
9.01679541643434 0.00000000000000 0.00000000000000

0.00000000000000 9.01679541643434 0.00000000000000

0.00000000000000 0.00000000000000 13.19699152360545

PRIMCOORD
 96 1
Ni 6.329555967597497 1.9126426503642318 11.446028342844428 0.20324904733375962 0.012285245125256262 -0.0020080315689642836
Ni 4.473033852099695 0.35908937030657334 6.04057939533308 0.7887491438622157 -1.0495559350057861 -0.5332154281921269
Ni 2.728112613857965 1.5288247185423656 4.748462689203956 -0.23555444433468467 -0.3137959417460919 0.91293239811106
Ni 3.3224907529743137 4.135300761810978 4.80040574273947 -0.07265551868319746 0.5495902700057245 0.6563632991979212
Ni 5.199030154365991 4.580162398813713 2.72178733185141 0.11641209494385757 -0.2884255813021033 -1.066917309102369
Ni 7.509692189382202 6.296635647417977 2.591361189059648 -1.2998898516424904 0.07480238982287117 -0.22456220698923907
Ni 5.182835989741937 4.83354336768928 11.329511508710274 -1.01119044785371 -1.3806404886289965 0.14668349223388932
Ni 5.3872287089501985 7.817913308170626 12.281767160825025 1.6171572968769505 0.5794785729247246 0.7154675615592452
Ni 1.7482664693528234 6.676792760288081 0.47862412587706926 0.7560987048170462 -1.1957475752049214 -0.9305490827515587
Ni 2.691080634954298 1.4020666081387243 0.28030241504373826 0.027307943786333614 -0.2485544561387784 0.5709803056457263
Ni 0.3841398314193487 0.2588217032487038 4.822510416779485 0.5833190297167373 0.5494879400999053 -0.4472989307339651
Ni 8.618721962266413 2.5004295120083175 1.3616389040694565 0.4544499399564496 0.13193024518411473 -0.4216645179953125
Ni 6.916089494674354 0.8614547185974132 4.856941951876038 -0.9655880766335629 -0.20975136722865168 -0.21905773223124209
Ni 0.8062250431212158 7.573008127015888 2.7109392252482927 -1.1091721040065219 -0.6527748105157145 0.5655393371358131
Ni 7.5690136866325615 3.9993274864597965 3.608162669707152 0.7706640042257308 -0.3332008286352649 0.3958907514653182
Ni 7.654222403613241 3.7758732616751165 12.394680883498282 0.9873591497620673 0.23295377348704394 0.8102283967819142
Ni 7.7322808018039035 8.810220663984477 6.9304658733361535 -0.14001250797161693 -0.5410665488054294 -0.15623436914711802
Ni 6.9367379562495675 0.6938072441975826 0.6502299734784364 -0.3223314900209287 0.26143491164587235 -1.8710539911642488
Ni 1.7777964744440116 6.4716696806485565 9.182664810028626 0.2859274974705979 -0.4690039265112245 -0.6194821099008557
Ni 0.1848938990526294 5.033941646514214 1.4502045739953127 -0.4288888036578936 -1.0951081697142881 -1.2574432524425054
Ni 6.150779964256126 2.055946580414386 7.068229884263246 2.208954539268028 0.9003645887483783 -1.0798802970209402
Ni 3.5097966448092004 4.3479077816720855 0.6219388760817608 0.9956329597350854 0.6450417035375149 -1.1849972786669527
Ni 6.14225007576261 5.7398575453185 4.6632629890187225 -0.3088547956907326 -0.4704560855767188 0.6858839343648575
Ni 5.170906769364641 2.892515845255717 9.250180770981846 0.8208655647807862 -0.06127813008419123 0.47113562814224663
P 0.20052812067938097 5.594930592087762 12.273321128529174 0.7280608248432237 -0.23229325708490958 1.1130321011825606
P 3.981212744405385 6.105118912109019 12.601873317693052 -1.3763981684128748 0.7507556953375779 0.15482977549010754
P 2.443226961688165 8.376575920518668 1.5536425463325905 0.05998846473849023 1.586855046348983 -1.5850994971104573
P 6.192987583746769 7.689766611268039 5.708200478181202 0.7913264176710888 0.3982535952705399 1.084922744540854
P 4.641079868858314 1.058562768763485 12.602519821926652 0.7491186739547874 -0.35813127332835737 -0.3842243708709834
P 3.829135472384628 6.039097935841025 8.093173531200016 0.8100455913471469 0.5297902045606617 0.8847111984818378
P 4.726306619429891 1.055992982060893 3.762357085299027 0.26019255459833895 -0.9237641986192414 1.2667552738720504
P 0.2529499660531674 5.5751477428755285 3.56943012318205 0.9778062159663096 0.30638936486937557 0.4337690145683304
Ni 1.488736045981931 1.1434288475171535 2.603199339802922 -0.09069540690404379 -0.29724446514531394 -0.5126450602399429
Ni 1.9712969047514624 6.348969128196376 4.781573263767423 -0.1221492545379509 0.4024614627043004 -0.4926413634245064
Ni 5.850403457507194 5.403828629369397 9.10225573326475 -0.22101331329571614 0.42129247936787445 -0.3266810252388761
Ni 8.573069926914753 2.2626475992572566 10.202079357996869 0.489315384375067 0.37631822865002934 0.23876832328629205
Ni 2.2714299580233073 5.247856101715237 6.9185492764724845 -0.8767549197492384 -0.9007888207699906 -0.13935404845201163
Ni 0.34723949772921775 8.790500932340375 9.142242516036626 0.9221071226317926 0.12797177475699897 0.46128881725515397
Ni 1.3991181160273294 0.9389008763771767 11.385783525740225 -0.3708914012075032 0.6369401574763032 0.06720760819474876
Ni 4.265178683439521 7.197693033301195 1.4874727929397094 -0.9833574848018418 -1.8186312545881582 0.09825265042601143
Ni 5.504528200929212 7.571853977198583 7.94526201867609 0.09786827050339919 0.9209290431632914 0.2520357298191595
Ni 5.329719587584824 2.898034124069704 4.730897069992309 0.7162754021725213 0.5347421492492984 1.2174104048903356
Ni 0.7242903245675918 7.397974093785309 6.879948375160919 0.45476284321117805 0.05719341849185634 -0.21534505926634526
Ni 5.024338759362424 4.565942912392704 6.76782632712797 0.0895037005887878 -0.3693986187120606 0.36954697136446674
Ni 8.023559361946116 6.8785615920210645 8.938757788129946 -0.46066403918696147 1.3546723467000088 1.631072878516778
Ni 4.676975731535572 0.3273268066625368 10.33187162006866 -0.10980050316461089 -0.27486352634695244 0.10990566128390748
Ni 8.258735420812794 7.259458082117879 4.869808918979893 -0.2933469298631206 -0.5188473323959129 -0.393083106813194
Ni 7.314126912917229 6.105632869449537 6.943491536039888 -0.8540389662089615 -1.0335310203324393 -1.4555367237172545
Ni 2.3399305530394168 4.958994042753006 2.60322548850972 0.10485010113787104 1.6531956785577462 0.43578141701266887
Ni 2.4846771703612016 5.1019553345761475 11.187049747354934 -0.6468659012304473 -0.1107268716336222 1.0822338848547814
Ni 1.202110152290727 3.157789967326788 3.709265292023477 -1.0152157669630193 1.334709787535153 0.6206244510354151
Ni 3.700817456368536 2.687780487820443 2.8785677643776832 -0.23599024632052262 0.511943663297544 -1.5650855158823753
Ni 1.2060504919013681 3.1661755870931407 8.196770199137172 -0.5323949891733605 0.09393499688726403 -0.13118565370860633
Ni 3.734377969024842 2.4597817981301264 6.975006137809113 -1.2975509190966688 1.093662181296381 -0.41094456047464706
Ni 4.1249224302506855 6.720388966277667 5.9932817948122175 0.04612096272777864 0.748094346455331 -0.8395191753262318
Ni 0.6707116243378666 7.55859027109503 11.373338544663321 -0.368217711030082 -0.9401925193785936 0.31159533455034727
P 0.20223950845535274 5.500479659773198 7.847617337413954 1.4728199362777343 -0.5247508423645414 0.40221720790397825
P 8.532674683309097 1.4484399871261995 8.037099883669914 -0.41226070818290933 1.3145675082593231 1.173385148349321
P 1.9128590534549763 2.9314323344079516 10.465531185707961 -0.7832130445353349 0.8487682047283253 -0.5754738226407057
P 4.0048547820692315 6.020361034900723 3.7227922885541034 -0.21261917569474997 0.9147193148081536 0.3837561729853133
P 6.9011216142311875 3.8680699951277577 10.343749444711902 0.12570406176874482 -0.19764481377310478 -0.45372308909275405
P 6.232950021170935 7.501829543751814 10.1565238023565 -0.6664515366718587 0.7457405015111738 -0.5943328643287378
P 2.4083499968964963 8.451920263279575 5.683244693420627 -0.9075017140137919 -0.23755527681479732 1.037201527205491
P 6.94996559517133 4.064518917546603 1.4060736720356783 1.0659024946846094 1.0301633894117872 0.5863189928853257
Ni 5.473925197179748 2.972801391921958 0.44877402454748794 -1.231749447220827 -0.7308571566414381 -1.1440861422748878
Ni 1.3477494323618333 0.866551913063993 7.091231729450306 0.6904599837713141 0.8560984198411514 -0.849893062361388
Ni 7.0022179247907 0.4860891308282127 9.279464617557313 -1.3554308221325881 0.2977969952146742 -1.0496963172383922
Ni 2.8643744266634728 1.5381030010580397 9.048688754869106 -0.2983027312064992 -0.7146728335720918 0.7919193140600813
Ni 6.21926252568134 2.1579445705186675 2.5796159113094856 1.450552897349418 -0.028417631910744607 0.2630361946947212
Ni 4.0026907511617855 6.900057632368359 10.426678715803407 0.4321744163877009 -0.4349897743493089 -1.2774883440188385
Ni 8.114475710445184 7.1720853342297515 0.32712933884223233 -0.5204627565121488 -0.2628482470536312 -0.3134331590900344
Ni 7.824639837574603 3.8735431899645056 8.314552991352182 -0.819135469463557 -0.7787557800949299 -0.9284140386864269
Ni 3.119603838605816 8.350769851947378 12.222525913054152 -0.7189370081650844 -0.372770620508087 0.7019080777072557
Ni 0.0342493958285098 5.019397555457088 10.170393437114138 0.5320923703312772 -1.3865005469541993 -0.06567677337251915
Ni 8.505191490784535 2.3424642725602176 6.07111747815532 0.5051564651723817 0.4639010580670204 -0.5178736556287339
Ni 3.823157337002808 2.744874836595223 11.441751676763587 1.95403840257728e-05 0.07430796668495589 0.3161094203706169
Ni 1.3862060649462358 3.35452742719996 12.634786424436214 -1.1852163366562942 0.36795777250047595 -0.30524368130070656
Ni 3.0502015640449383 8.329760718554256 7.893160269540696 0.45734037413036727 -0.5473076446191348 0.5387620690419689
Ni 5.548746565804689 7.9276837759508165 3.6707825107322765 -0.7497964167481023 0.3479085671590847 -0.36307884714161986
Ni 2.927969884956038 8.346748361177706 3.5830229423194444 2.0212588662878352 -0.2888981500631476 0.7196492037407607
Ni 3.2549729886620025 4.191944270813373 9.091117285848217 0.027521088238404216 0.11789099348222921 -0.29669939127512124
Ni 7.217620151240592 6.055634738692091 11.317330719739989 0.5007786478196601 0.06082484459685653 0.6942616169055913
Ni 0.561829310909273 -0.11657093490683981 0.6715411695190543 -0.43504299618474757 1.3882211291897317 -1.237402017520914
Ni 4.696524144066166 0.5124506339990823 1.6428538188125013 -0.5981913188428795 -0.0443615568345107 -0.41729338551081036
Ni 5.951103029067007 5.735745886594353 0.3286432587978997 0.5629805752697015 -0.3223296902487158 0.9353272208664923
Ni 7.609228594329263 8.783485865482072 11.383474324426071 0.5745793358508943 -0.32647148033123125 0.9631689256691089
Ni 0.14546074752124202 4.798431966215971 5.635537730386439 -0.6612599651685902 -0.1924468145119331 0.1406483417834029
Ni 7.715861217293657 8.995497776843633 2.7278312898399975 1.2421043080925898 -0.453111166540368 0.7710015900708077
P 8.450279206508096 1.934436244961301 3.4835171944769048 -0.7125084789309214 -1.6882819807379181 1.0079518863117545
P 2.066270811201992 3.109189439863733 1.5147107286280945 -1.7680550843025036 -0.7011341756557087 0.29863440351430504
P 4.881124997266745 0.99438121876682 8.233867098968062 -1.1371742456464027 -1.5994192561672391 0.5424410605554528
P 8.500863428969643 1.5100517504202728 12.486993031932654 0.1664501333378553 0.27237392715587927 -0.3255317421257813
P 6.315625018630814 7.828769529889645 1.544787151523413 0.37071656619253573 -0.4937873041034916 -1.1936202444492734
P 1.633735133576251 3.142623717383772 5.905047041279291 1.2653761341363368 -0.3585714461895696 0.9950115241010024
P 7.018574391732812 3.9991922345280813 6.0181708552864785 -0.9621515401481883 0.3417626021623469 -0.3586606634692662
P 2.294062114597012 8.299779873690683 10.157222604003696 0.5074676298040616 1.553177708701196 -0.2942288182474416
