# total energy = -381164.18848796637 ev
CRYSTAL
PRIMVEC
9.27500546648895 0.00000000000000 0.00000000000000
0.00000000000000 9.27500546648895 0.00000000000000
0.00000000000000 0.00000000000000 13.57490803212605
PRIMCOORD
 96 1
Ni 3.97091731541452 0.2718095967790507 4.51874736140143 0.5744258409921656 0.6349727493372872 1.1170489356514373
Ni 7.512874908406215 4.793545364904185 6.4277456575065575 0.5715030109184157 -0.5671876713725136 1.735907038815049
Ni 1.4694483725739031 9.19294937746869 12.719145953869473 1.228649725249581 -0.15511593927195866 -1.9017419071664086
Ni 8.200180629842324 -0.04947009603421949 4.716303120351064 -1.1085275284439877 0.20805623891441585 0.5199698760361303
Ni 1.0376690485247404 1.8854230875070097 5.874744796037135 0.7102687909671251 0.1668980195085513 -1.2284658913735487
Ni 3.0556041374643192 2.1339004808281077 2.6668988657601553 0.29402467265643556 -1.767928586026968 0.3467793386506479
Ni 8.560978337949479 8.306314516060066 12.123003332515998 0.6787077283313924 -0.5398709858354316 -0.502477889898954
Ni 6.582267246634197 4.3935607591941315 0.5371860498474812 0.7748543881579946 1.0581416197922682 -1.2912357755119181
Ni 6.668246546226829 5.24682415135418 9.26701957019218 1.9653319732132282 0.9734127148843044 -1.2105036504681734
Ni 9.23899050402509 6.149894322242647 8.182560902179311 0.16026148802864013 -0.00660027892533702 -0.8075410797577383
Ni 6.011715292541352 8.715314426970124 3.7865710190840676 -0.25663183383027416 -1.079871812380508 0.11923053822925919
Ni 2.771074798348555 7.851310578615007 11.1593210016666 2.724220582070586 1.3153293261260122 1.8360607629185153
Ni 6.845111623242134 6.744125364993529 7.569884656289286 0.8581910407041221 0.2860072016685978 -0.07666258296006151
Ni 5.885714344864341 0.6068598900351665 6.576295998189996 -1.1587113483872302 -0.534675300567105 -2.120523502918129
Ni 0.8335975983168721 3.841466065747384 6.994267621774916 -1.04927208521678 1.5280176644958006 -0.4019025048770369
Ni 1.0674510907029429 8.925022297929065 5.432325185850683 1.454264027652418 -0.022789744201005914 0.9965320745105869
Ni 1.8353380586180987 3.84811624458319 1.9387951782918895 -1.3984844587889527 0.8127282803856326 1.0389282800886108
Ni 5.107912396230251 7.569359690986488 6.055318020191288 -0.7305661077635804 -0.12992195650483432 -0.44629414361853464
Ni 6.8768877915705415 1.959094455000458 0.5436284685634513 1.0881782753636742 0.37736518185730494 2.82873438291496
Ni 6.795972644898901 9.039466588940227 13.059508970189954 -0.9602905756800493 0.8779065168551784 1.1000896820892796
Ni 5.917713113321145 6.856612629875883 12.891125885567039 0.5710425263422294 -1.3473470166831893 0.020109112045049237
Ni 0.8205374632838209 8.488855896349447 10.224321624861453 -1.6742003058338717 1.3032891071320265 0.2959481149313935
Ni 7.988181832561982 9.244536957224268 7.237421162025229 0.7967607013127826 -1.7378456505986588 -0.5427470218316459
Ni 5.7588137216684 6.078504606065249 2.423840858064944 1.2044985819246739 0.3270985723922689 0.32810927304497045
P 9.216109065827137 1.208894922287368 12.110569260344057 -0.31618269681071354 0.9096537273597882 0.20138988263783383
Ni 0.35859767683818383 1.4137705154590638 3.446220987771077 0.6823615230338957 -0.012841374739042401 -0.7062090190754547
P 2.666944313286369 6.155700475591622 7.4673262846338915 -1.1846445233132243 -0.8329132399739397 -0.9985817579507641
Ni 5.085309208192792 7.850123377930233 10.590138965863918 0.6062887511390332 0.22510805219038005 -0.6286486068914722
P 5.2622206602348465 3.5276555347423066 6.454964088206076 0.365976223294073 -0.5653524179359877 -0.06038647150785729
P 3.350734807694903 5.830852688220284 12.062812257797948 0.5670493460224364 0.6796767771128811 1.1100033416585655
P 8.194940251819688 6.7615160000244 5.860056897565194 1.1222358791690157 0.9592497931203608 0.42461640153478486
Ni 4.5142100287843085 6.2830277490336535 8.351839952319017 1.0977844309948708 0.4564160625438849 0.5355605313855357
Ni 1.1921442626256322 8.77987773921007 7.963284935701519 -0.023024743029947444 0.0692842882181194 -1.178519641362409
Ni 2.0092536839321675 4.791968613994719 13.475322300029973 -0.5170804703034773 0.2644850113261058 -1.0221412904382592
Ni 3.7419267083333483 2.748740585466241 4.880844497758092 -1.0033933204067944 -0.2898844252358169 1.3609065005351788
Ni 4.334070874880525 5.28412822287107 0.9255444363515631 -1.2758351246861317 -0.801546038516568 -0.6209090721553694
Ni 8.432732838977817 3.4637785728982453 4.117296377345572 -0.18178702080524178 0.019891596717604453 0.11264028660625118
Ni 5.032330377634744 5.4485647927176455 10.676189682997743 -1.198378327959549 0.5232904557689311 0.49486305366617356
Ni 0.14791314781590928 1.6072935020826065 7.880560235486131 0.1269109375926524 0.8546660582699991 1.6168654766681443
Ni 7.212587335201144 2.0675470925556505 11.9536157648137 0.2930232279751147 0.6729772536055185 0.7126720010919791
Ni 0.6166190506642243 5.623519218630891 4.015457746105322 -0.0844324567134675 -0.33037055827532136 -0.20041800564286774
Ni 4.563061481961697 8.608559115393945 13.681878524171053 -1.1742202426561068 0.11214972012307782 -0.9554044512323419
Ni 0.5777892407672935 7.0934035164562355 0.9440211745088964 -2.115942825525982 0.5245484965457482 -0.12739841875203223
Ni 8.575558646359362 6.407340645737001 10.365528016308922 -0.7224761316665944 -0.5025691640611797 0.7308926378650639
Ni 4.89681327446884 3.715400193032925 8.683936156371221 -0.4954942594922692 2.911009426965793 -1.367149396121097
Ni 3.597672550127934 8.820066337390745 8.410361526074103 0.7566355511571228 -0.3493918365728305 -0.25213368884960446
Ni 6.337805930629562 3.2423934702039086 10.181330120064066 1.08484663988728 -1.169841911082753 1.3900196158510512
Ni 8.292105207864175 1.4969580384414054 10.153718429137717 1.7424556385668442 0.2173726312193353 -1.4193564171419555
Ni 5.09507578882613 1.6602908826513543 12.79386168696531 -1.4667300213299126 -0.4792567145874843 0.20434150906699006
Ni 6.755236821402587 5.41106594608841 4.47414015067211 0.905794501514698 -3.206749282541123 -0.15134361671372001
Ni 5.842223844779137 2.084538902356481 4.6516461305570855 0.7667081049017763 0.1883549038307466 0.6949879535486547
Ni 2.033702598034236 3.0702771959277007 11.770978851969216 1.0868821822600703 -0.7955581963642493 -0.8660845845195858
Ni 2.643524924778128 4.974157544080809 10.319088064522482 -0.6503088654737252 -1.3604794403000893 -1.4279814398068054
Ni 2.2536036998726052 6.203735728298227 2.057806481937292 -0.06355227083034862 -1.5228484615900355 3.2369422611847347
Ni 6.666057644964276 1.4632804940162873 8.462380393578448 1.582429663587778 1.1699542682909012 -0.05092018388863489
Ni 8.676155354383274 5.671378246235851 13.294898403461952 -2.268380703745145 1.2749964308349202 -1.2551202607362835
P 2.924761636994714 0.7223958491759997 6.5030049059158905 -0.3576129389310422 0.11384407710636522 0.47221292036682544
Ni 3.591866396778961 5.114108099803917 5.822291858282419 -0.5289823639473858 0.1635031348943894 -0.17898657524196915
P 2.288384969934349 0.05507961926977754 3.3341056506032496 0.027669183780494284 0.4460591447895931 -0.12921953112117102
Ni 2.7633858189135725 7.067841601712191 0.20458621300478216 1.3253977661056078 1.1281568726391409 -2.5584772449917677
P 3.914720058000092 2.959969557302548 0.7879784845038889 -0.08983357312438077 0.2603121108953388 0.012290644441894961
P 3.5003035439657513 0.7940591780112167 11.665298513513081 -0.8056536329270383 -1.3067642101648205 -0.5106665963573335
P 1.1832402574898255 3.3712232945126077 9.346392283474147 0.4129369083143275 -0.4066109660962997 -0.5575115817353302
Ni 4.400479913185081 1.7193355667081707 8.093481895798778 -1.1365502389091586 -1.6317377657942862 -0.6864104962922889
Ni 1.6008380983591468 3.6830860743942275 4.348382208135264 0.5890890994312952 -0.7654199822179721 0.21160153306351298
Ni 4.817827328909957 4.068981946977938 12.478517070075375 -0.2660202170237096 -0.7452368224018778 0.45747407149475405
Ni 3.891764419759341 2.5648543294011383 10.4900644406412 2.110979053762803 1.5001211951958486 0.6747798540318959
Ni 1.768353969981855 8.930791351256639 1.2781931247583864 2.397587122240193 0.60255525223853 2.539606376229194
Ni 9.366920652814859 3.8088829719535426 11.221616575098519 -2.4002556702112923 1.373861775144266 -1.9474790041922072
Ni 7.625464198347418 8.560848487874582 9.906520059054357 -0.9599966985887143 -0.4989709051869601 -0.8104148017611075
Ni 5.673567147498404 0.864324763540219 10.368283620398348 -0.6433031235798533 -0.2898970236413072 1.346309062336978
Ni 8.895156780702713 3.5570202016797685 13.398624498290886 -0.01747810218010538 -2.900762038206172 1.8994412840576902
Ni 7.913545864512154 6.9823353273924 3.750041410513887 0.6098217039929562 1.512949971529401 -1.1738533462349914
Ni 2.9593388569387624 7.256689985639435 4.49224959861759 0.5431193175694001 -0.36666193650718787 -0.10224120276011424
Ni 0.9601485538111258 6.688271282777044 11.957077196810246 1.1606288771249174 -0.8486725596907255 0.1728166989858314
Ni 0.8182771444800752 7.835236994343807 3.444524589292599 -0.3549081384053694 0.03814360094925689 -1.2422999690431635
Ni 3.912039581454 4.454618119411854 3.2784899360242536 -0.3383749166370366 0.4507789188627656 -0.3653249628633192
Ni 8.62258292348284 5.065831696958216 2.147509696177867 -0.6155048704206626 0.16039415695176246 -0.5668251458267722
Ni 6.233731095599476 3.6472196287065572 2.621640549655279 0.0031508869241558637 -0.6858199138961415 0.8351441861869875
Ni 1.734166300262498 2.3275069424997987 0.1983942194332568 0.6741751305683615 -1.3791276515288957 1.0909969757593918
Ni 8.168747636711856 8.682703508160232 2.1803200276027783 -0.3125908656943971 -0.34336105699771835 0.20896795209540786
Ni 7.733239760512074 2.5897020687332484 6.25116346815442 -0.14730672764018501 -1.806682052646082 0.5441194766991403
Ni 6.993131433619565 1.2725307339923344 2.9366466288499455 1.8301060879969773 1.271939132065835 -0.6850915203705492
Ni 3.0214721177770616 3.5076215231867423 7.222095143185222 -0.13232825195348177 -1.0425429940230626 1.2374115306026108
Ni 4.104180592280422 7.6902037356890105 2.382261009081798 -0.46445590212922594 1.1220255629304225 -0.22871659547724482
Ni 8.422298457959293 3.7365472052304654 8.594545509810935 -0.7695833695670423 -0.27752410389825105 0.7635394773658076
Ni 1.1731583266745946 6.544684924956814 6.000557461105544 -0.35982743008385776 0.25614229578836534 0.6840203987935575
Ni 9.19478582852795 0.787742899368004 0.8164054484004859 -1.274320230703502 2.1187692392311837 -1.1568668389793237
P 4.889096470017808 5.97314982029689 4.500855876081669 -1.9787952978069858 2.555193946254806 -1.2645135290257254
Ni 2.1863320860705175 7.0370114839294615 9.241064395221304 -0.6989441099829253 -1.0439864113378086 -0.7022675179292035
P 8.539766400714491 2.8746395080844036 1.9496014870249396 -0.3514631172795624 -0.7586520673665192 0.16008459613114365
Ni 2.3057106799277727 1.4422262318722452 9.573784807133551 -2.0151447829702973 -1.3767216131905644 -0.9027089206108388
P 7.369752300853477 6.9713351710475395 1.2803625485097043 0.31695299931783477 -0.8271768517107948 -1.4728813856432892
P 7.007646816992 4.820350130365103 11.55443251956587 0.8278579369382194 0.5616464298393101 0.7635554182054076
P 5.903652205210851 8.43724976658317 8.264675307042681 -0.8833875945744076 1.2921870836815939 1.284609271334336
Ni 5.063707720733112 0.8187900522759191 1.7201851571982123 -0.290868386415641 0.5801948822654589 0.5924276768862249
