# total energy = -340892.4652029531 ev
CRYSTAL
PRIMVEC
9.04712569786673 0.00000000000000 0.00000000000000
0.00000000000000 9.04712569786673 0.00000000000000
0.00000000000000 0.00000000000000 13.24138295631098
PRIMCOORD
 96 1
Ni 6.4720695024357004 1.926142123253272 11.33046651141283 -0.3685059316944621 0.000671315035411747 0.5240656433720587
Ni 4.825194057406495 0.2651024981208011 6.021836574425329 -1.1680773629831627 -0.2744022704398177 -0.296412970382954
Ni 2.8840337053774046 1.5765883249332235 5.010234920750956 -0.201698157906872 -0.46237639389237783 -0.5514363220755277
Ni 3.4772266006449106 4.546035944691651 4.949483471215041 -0.18087967849962397 -0.9114694404122883 0.4222209047194148
Ni 5.184763023952345 4.421764625134641 2.7463690208326113 0.49230017803500375 -0.47420243999302847 -0.5075779301296807
Ni 7.2361354620940945 5.922673743013817 2.5981182944260195 -0.16377104384379537 0.1510703084476753 0.029281522572936664
Ni 5.106116359646209 4.317433170771548 11.640314284159798 0.7466740690690367 1.0896669440940587 -1.2639684551555328
Ni 5.712472822906977 7.732334121996815 12.353376167585331 -0.4768056819438304 0.7279320125748431 0.9613285300262605
Ni 1.7181577489597297 6.635931044355951 0.635858235679482 0.09914405189202925 0.22737139430326 -1.1028541322082943
Ni 2.7621055913944534 1.5347815567566843 0.3870758477325954 0.029573599892058745 0.6757435034967458 0.8069612959948682
Ni 0.48036076153226986 8.978991864402007 4.71810322968399 0.5010504134238081 0.1889498571022681 0.5475552418535667
Ni 8.772445983105667 2.3877807627200736 1.4696476794984767 -0.5524238827997776 -0.21593615588312487 0.11227030486134212
Ni 6.816565957451121 0.8238041311082296 4.636271977107318 0.3463291384871068 -0.258167039527878 -0.008698299104946308
Ni 0.8327969741221832 7.523255045485277 2.764893915556325 0.27797584672368897 -0.2649930613107759 -0.7536893240446052
Ni 7.562646231081608 3.63088298469822 3.8799901644601977 0.22764238857645955 -0.15450350249894038 -0.7950097800599469
Ni 7.509811016593187 3.9452796522816245 12.455691922327187 0.7087122451132827 -0.41412964307084804 0.1769443480009598
Ni 7.848906337524776 8.80520562551364 6.961498198125803 1.2133287786217943 0.5852686972439404 -0.3831445075432434
Ni 6.791632078832956 0.6519639289726816 0.3153339498130281 0.07700479679082868 -0.16885051524923178 -0.3783252317777291
Ni 1.8836749148956278 6.618135347969183 9.206587693224067 0.4685935784466833 -0.4579088450393275 -0.4190993283712976
Ni 9.026018824147007 5.000201658273617 1.2200438125318047 -0.4203203452625922 -0.8612236568828587 0.2935251073121978
Ni 6.367068560765734 1.737410032595236 7.197168586696308 -0.21079934887719176 0.4614975908318504 -0.107067420504164
Ni 3.2061656654929327 4.538816338328336 0.5425877972810372 0.44012478158302903 -0.16571454072341138 0.07272905223361022
Ni 6.0078886206279325 5.526934367645245 4.733874179323752 0.1865034524443046 -0.014205602076420696 0.9898271516865856
Ni 5.433767066480561 3.0282177487510262 9.26540577198324 -0.22706389036517025 -0.7296713638634531 -0.2497700737134344
P 0.26992642558060004 5.717892051242347 12.351099006029383 -0.4734583627381523 -1.1555404068584163 0.1800204158231222
P 4.26698639748603 6.1077779362386595 12.509399279739698 0.06501008632279771 0.34574884050360455 0.24185673240362865
P 2.514883832642644 8.547362541109537 1.3459997069069212 -0.4638527213275883 -1.022980755620419 0.6437085865483883
P 6.361676473807669 7.7464204968184704 5.912118461379633 0.07231998972064964 -1.459950536514234 -2.0050460039733986
P 4.622285120669118 1.1431314822355023 12.665701043367735 1.8013781239346651 -0.7311443488645537 -0.6532432655117008
P 3.9894929559126022 6.343428421132474 8.091543917649654 -0.41187118605397455 -0.9088505147322025 0.9340313848732043
P 4.711553110627549 1.0407451599126514 3.540202738407315 -1.0000082059846453 -0.029963379131309687 2.6561010035845287
P 0.04725223317663851 5.392096005190551 3.5955385784581666 0.18363718664010306 0.4155488920158779 0.11553920542060103
Ni 1.6605094635624331 1.0193577545957635 2.6881462429490104 -0.14896328940700154 0.833483767765429 0.13297976949455162
Ni 1.6088141869208523 6.458679756298224 4.818446711008299 0.8524808776932222 0.3067755445642007 -0.3632567674803809
Ni 5.860700931499147 5.491442493255164 9.254853204486786 -0.4904785514452327 0.9449668008387855 -0.3890927547068783
Ni 8.6402765227527 2.5783584670348967 10.283032811419478 0.5084266512832212 -0.9274295632859705 0.24937001006153825
Ni 2.2148540007797206 5.2132795643748615 6.977798404623027 1.244274319160715 0.20965803618389697 0.6223782005017282
Ni 0.5111164655825068 0.09017451196044178 8.977882686782781 0.2806240829798135 0.32064741745028646 0.36633334952317553
Ni 1.6868185052974203 1.003036739709272 11.587851811253044 -1.919569936486765 1.5215181728143858 -1.2356647231148332
Ni 3.9864259802770583 6.686142592371487 1.5167343502735506 0.7202346439305853 0.6387831242223128 -0.5725759322676203
Ni 5.812181196002332 7.9371881907744335 7.966995756044125 -1.4326564766849714 -0.18825951590346285 1.174620820528635
Ni 5.184672552694659 2.6731542508379214 5.015266932103432 -0.7994367054830489 0.23664742028854727 -0.6760052417985648
Ni 0.8141408960748252 7.468583264465837 6.880725459264054 0.016563817895952116 0.4177754673535515 0.17350318352989474
Ni 5.086230777206903 4.821493782967152 7.071812516759648 -0.40023643002852355 -1.288578283284413 -0.713839539037519
Ni 8.162506858040548 7.40872748038101 9.027988383426825 -0.4205165204337984 -2.046179283678599 0.233313727929624
Ni 4.385612310563455 0.40979951352550026 10.54207373527534 1.1053362752001994 -0.27903848366024847 -1.661736883259538
Ni 8.040832063579115 7.127506622990934 4.530486649633218 -0.1700170247535072 0.19324925580857039 1.0393239728651325
Ni 7.230453867111436 5.81447011882178 7.2169374612132 -0.0035386092808777766 2.4098715960345016 -1.6483766599025482
Ni 2.052259056467069 5.173978850036215 2.631221727613199 0.6366053998447037 0.7194931377788706 -0.003326236159755562
Ni 2.594579963537934 5.1621542566567005 11.53877929637177 -1.043801806130828 0.08045341746106144 -0.7258622745300081
Ni 1.1997303010436455 3.4982973565598985 4.071460820088379 -0.6145556191335158 -1.1141736709861714 -0.3198277497624685
Ni 3.4273950319116544 3.00253295869407 3.0536220779091567 -0.3465337982987451 -1.217405262684013 -0.6988474365040609
Ni 1.1049435643663892 3.426264141190584 8.487329433359646 -0.4259605742675051 0.014223599798549699 -2.2330622309495087
Ni 3.8624713101219483 2.67492748748856 7.169957546522195 -0.8584913455533603 0.24029041635777323 -0.2722898520825053
Ni 4.1226033173455 6.791342570808362 5.786815769485006 -0.08577714366682002 0.7627172385748284 0.38679650247353387
Ni 1.0904138803820735 7.406881866724223 11.42208313522078 -0.6666196868186067 0.14572395653409742 0.1360200989827722
P 0.3032035635825361 5.651033791812652 7.958349417947107 -0.9648535124603834 0.14168012548202696 0.3701594081374851
P 8.516548030741804 1.7370481475644937 7.949874975239692 0.05301948961982482 0.009687659601409122 0.6313891457510868
P 1.7725219277030373 3.3238778188677327 10.560877281472724 0.698573614017384 -0.5938158154830031 0.18532742985833245
P 4.016163882678332 6.016121505077327 3.550624122580125 -0.05754128874957832 0.7769673207359393 0.9394034478183949
P 7.077892185276124 4.132274694792096 10.327629713183043 -0.7150502715161685 -0.43628998121797125 0.24876554370831996
P 6.3568181672699495 7.988666336397569 10.22579074196919 -0.6339216823649535 -1.1174788241000047 0.4719483538515291
P 2.5660724702411852 8.438914644521747 5.791688551423956 -1.082857377371393 0.5810230345937091 -0.8025821930905661
P 6.779952239465738 3.6666915084902003 1.464470914133704 1.722748389945904 1.354228574294371 0.03279262104998868
Ni 5.076749389401447 3.0617463968493284 0.31133783436105295 -0.1846679418974626 -0.8036085774725515 0.3750771571540766
Ni 1.2676742155655691 1.0244422392776973 6.806825821848684 0.7629548085069312 0.20848946979709254 0.6297994326664638
Ni 7.103993143118433 0.6390663464770152 9.29233906539626 -0.5416123940065705 1.459840750409247 -0.2330679304674051
Ni 2.3681394526765187 1.593488355868903 9.096128620577927 1.480546872608347 -0.49608715588126184 0.4262719348603369
Ni 6.113287635831715 1.8320158267571212 2.2655613312873744 1.6101942352955558 0.7776018689961447 0.6196713430935263
Ni 4.2346067343603355 7.062756343865313 10.329576654648438 -0.1909118659246454 -0.6365586057671682 -0.23893441655051112
Ni 8.313946696280556 7.289151619097886 0.32540701964374846 -0.9493065658647201 -0.4017896334482564 -0.07275527748585534
Ni 7.687433236807426 3.8651583064752124 8.173521733663774 0.15833393198862408 -1.7218127655055122 0.0877574073216424
Ni 3.1553027244220595 8.415220222133875 12.277595632722676 0.7701626391092802 -1.240426920390167 1.617564816728014
Ni 0.19341850180615264 4.999957385877866 9.99929685306574 -0.5452541045242157 0.75446271187552 1.9610618850829649
Ni 8.599175430386108 2.324586589226646 5.782777132541919 0.12387600742107052 0.1124749646729805 -0.17756861184852
Ni 3.780079135747626 2.5089217767611594 11.085368113078903 -1.0089047371433268 1.1477900734890363 0.3922058464145632
Ni 0.8490980853319838 3.4624616913906126 12.72246632929002 1.174640360912661 -0.009576845055157702 -1.0190608517407225
Ni 3.11211174600293 8.368310875023866 7.910905385704175 -0.346731516131848 -0.7147216845321561 0.1411335089499376
Ni 5.584474087533318 7.844554670030096 3.6368785149450478 1.5739234258889796 -0.33629797950334983 -0.029264296181756053
Ni 3.339574582076193 8.198767738120955 3.721808408097452 -1.7917066622831725 0.4299362710858015 -0.42461023088719774
Ni 3.279727845117135 4.339173413993411 9.142221916943612 0.8047275215683432 0.2904860633755578 0.19470295753596145
Ni 7.186937192164638 6.223608287453598 11.226150437163543 1.191296224301787 -0.7729165477053334 0.42634726818296254
Ni 0.6590025928206252 0.07629803045661668 0.43993006118512945 -0.5884316683529544 0.5935980430452422 -0.23920541082371063
Ni 4.590014023052646 0.09816674286439216 1.6394821338511343 0.1244169675262051 -0.5035382128426683 -1.7118425416666776
Ni 6.23197687878952 5.5099891010807225 0.4377650839887118 -0.9057870453155303 1.2812786642992062 -0.23751671026737803
Ni 8.099294590295582 8.715403855134864 11.37690359855772 0.17484067139439566 0.909055431654157 0.6113558812492955
Ni 0.09057620434456606 4.874672788234777 5.917110665378727 -1.0476517760045376 -0.6485615437653153 -0.6627936282042972
Ni 7.932456543997474 8.878071176453664 2.525568488175319 0.03461810429450168 -0.026212910949941954 -0.18040762395921187
P 8.697789101263467 1.5763530996632409 3.5689635512255835 -0.32394691413716464 0.5330971574467077 0.46911268417494695
P 1.8249138330287975 3.2021668359032267 1.5366760248926217 -0.4998499653578037 -0.1162719698215675 0.6169369748814988
P 4.4127536878691505 0.9099599098022748 8.251804703514015 1.9921087270864402 2.035018639076089 0.28087630819993564
P 8.526698905854133 1.7366953096595195 12.44001415808284 -0.49747658002962064 -1.2913723010897824 0.018526083828645516
P 6.43758185900593 7.6834253600919515 1.4231834509762804 -0.6439173601250846 -0.19153767243410239 -0.30285049847818163
P 1.744358225185494 3.2199806265415316 6.163943397722488 1.0448821836792006 -0.6350370269163192 -0.025354419604388594
P 6.811391001511502 3.567082653778299 5.982469816068571 0.09040564357776688 2.0781848900509177 0.6351020758262999
P 2.298286594617428 8.55818290352874 10.058604381328992 0.7789532408177166 0.5505117533787294 0.7410258696443238
