# total energy = -340893.9287341725 ev
CRYSTAL
PRIMVEC
9.04456454974767 0.00000000000000 0.00000000000000

0.00000000000000 9.04456454974767 0.00000000000000

0.00000000000000 0.00000000000000 13.23763445715392

PRIMCOORD
 96 1
Ni 6.307272312376578 1.7142705867149548 11.45341337673262 0.05958094488742642 0.6522968424380314 -0.028083131389461315
Ni 4.79683003238018 0.37682097951380816 5.821421820571318 -1.6075326293029928 0.4662752147261518 0.9420264872635389
Ni 2.7668589200168765 1.6787344925945604 4.700537980345727 0.09449009805978564 -0.01948921907286321 1.1017737546599218
Ni 3.220000648580347 4.167427829849226 4.830399838167214 0.4181601043864799 0.9468753307154081 -0.22998672043892002
Ni 5.203102827441008 4.34410435378605 2.784933577815348 0.2894817904807595 1.3721368220333594 -0.331671536474932
Ni 7.245474037803564 6.062417860855247 2.645461870158555 -0.32353219519724924 -0.12280102918933691 -0.3697048370985697
Ni 5.0443978532667755 4.680462664868601 11.38582153693101 -0.2205021779872525 -1.0213969560730667 0.2765306296367302
Ni 5.6993961734767105 7.782214676510788 12.464278229304893 -0.5036863083847584 0.011057286255426119 0.01808693940869788
Ni 1.8713656283991311 6.271437747626006 0.4651673815903161 0.25975032485459776 0.7254573257821054 0.3914987930452096
Ni 2.8674977897744807 1.6629155491950771 0.2756249645798698 -0.8659920248057795 -1.7199186338065928 1.1095996784622437
Ni 0.6855291523078746 0.11059422195875428 4.550820589965701 0.4424930247048896 0.3462882579468423 0.9432392766247174
Ni 8.672027981590581 2.461378752311018 1.3086616626921612 -0.08152171082457574 -0.4167711944587532 -0.15620145902665356
Ni 6.722689162198343 0.9073597603084953 4.657132210609615 1.7353794484463534 0.2444041814158307 0.1522242195464604
Ni 0.8528463608474517 7.5209443403296135 2.714668164732498 -0.002800702673588725 -0.9179301084359675 -0.3735900310855888
Ni 7.38832389032011 3.737168849599473 3.905869876515334 1.3247351928209443 0.06117374329584304 -0.13081104397800697
Ni 7.634969165622515 3.970554793270294 12.400751016812446 0.3897712688311416 -1.332800486327582 1.1763858828488578
Ni 7.9536001301853485 8.900683618001294 6.770401049117128 0.2857444349255144 0.1183648477948542 0.40596741897502986
Ni 6.923776965857984 0.6567131696487816 0.41955926038606556 0.001820083927874285 -0.4659535697206749 -0.04264508836403623
Ni 1.5116904299044198 6.643078905021527 9.275305863872784 1.5615646472133107 0.05225998574598096 -0.24721439717111615
Ni 9.121895577786635 4.879443084987887 1.3740131638545205 -0.08836238789549299 -0.26239727555914166 0.5297650077496812
Ni 6.5139858351868645 1.888523167352144 7.162791342048815 -0.7017797796595074 0.18180116187262885 -0.6662926424964912
Ni 3.523427700133156 4.125189713396632 0.43236726824656196 -0.47834448718586 0.10755335900164702 0.21453567599117246
Ni 6.1230164433461205 5.704099347043166 4.785947612312565 -0.7936064719545171 0.37123361503827035 0.012569866245210608
Ni 5.080630378857588 2.880051645371098 9.497115669374939 1.2517639426695408 -0.8942183666413245 -0.2623664223212062
P 0.11999785572230073 5.625465902837845 12.456653661388506 0.46382881006818827 -0.4965011034902288 -0.3278174528361645
P 3.9777090438300373 5.976883413897607 12.770107517202415 0.5502826680870587 0.8194180337009824 -0.3801268037628421
P 2.371095908964167 8.42842167997727 1.3827104171266436 0.31114487727648993 -0.2430805775084007 -0.024947671084273162
P 6.397989294821872 7.85043782691805 5.666250557767113 0.19175235954806977 0.3964047149872592 0.006114597538170115
P 4.713809974367683 0.67067707285888 12.588897857512693 0.09374216415016759 1.384598959056112 -0.19892239493394773
P 4.001731407277166 6.199831930076715 8.060991671836637 -0.08808085209933218 0.13953531122488227 0.9133067507313433
P 4.827843844225137 1.2445320822006256 3.675243429488986 -0.9800574738943315 -0.7023569923192161 0.12618665783211816
P 0.015809898834932366 5.608091294335612 3.6803138123762076 1.2565760193462034 -0.4217997580215962 -0.8820102546109068
Ni 1.5601783404616696 1.1382222704696217 2.4758084505954865 -0.7187827419754073 0.45284402892191045 -0.4172231943945072
Ni 1.890286857439565 6.339742299114227 4.966071924256184 0.22497486904662545 1.274553943980863 -1.6212242678574722
Ni 6.102575727461138 5.53761604735518 9.1066717667346 -1.3272132220477917 1.3523197873074322 0.7522235381323561
Ni 8.434544850178213 2.227576758670857 10.41264357592933 0.6381040958774172 1.9491476501438818 -1.7501769184705018
Ni 2.367052988609925 5.10200268489131 6.851097558496504 -0.23618256483698677 0.22427321499391056 1.911493587236534
Ni 0.6981074282287787 9.01795544196796 9.16355393765152 -0.23362277452961053 0.24688143931172965 -0.0608551836141597
Ni 1.3545501653974892 1.0997195591765399 11.268960336194953 0.5193535826083701 0.025415611859627197 1.123160190755498
Ni 4.10381740736291 6.601491997216597 1.6908831516992981 0.8577256710319293 1.6205827776187316 -0.06605523975786043
Ni 5.745849057010013 7.9529941443604395 7.884785465256458 -0.9482696399597734 1.2095207177296137 1.2860678581577336
Ni 5.169710295119172 3.030716001659601 4.87266689722637 0.8647933765119882 -0.6366691632031036 0.8112280416910224
Ni 0.9421722892648196 7.529364829926481 6.920039751785562 -0.21276032925830454 -0.2909311213327764 0.2866800593659063
Ni 4.951039857972627 4.418278827667789 7.136223838137069 0.5089136182219687 0.6575388075632611 -0.2751409483780552
Ni 8.071685964961594 7.337764774480709 9.07380291470026 0.5300272602721323 -0.9418434247184554 -0.044306792337175306
Ni 4.619737458474016 0.26934622786865126 10.298112255021579 -0.09433737453200527 -0.3402348526639108 -0.19135152456522528
Ni 8.301327458908352 7.33654375826634 4.7525225195583465 -0.2751535467835454 -0.4350437675156959 0.303984869192941
Ni 7.106495258914793 6.325343352349231 7.0705783886268065 1.7087091382440187 -1.9681956679142683 -1.0907213535005023
Ni 2.5987747324033847 5.105973248729144 2.644892967048305 -1.170173840500875 0.26433948688717696 -0.4831941019686775
Ni 2.3804570332743245 5.414854172706132 11.385755511609787 -0.47773796395011275 -1.5141522193676182 -0.04668429143041637
Ni 1.2521295164233621 3.4746865417684822 3.6310173177481095 -2.329260055729021 -0.2462972846734855 0.4495825845618193
Ni 3.5666064512990414 2.797908910120036 2.666086190703919 0.26030285492395816 -0.9448351603569277 -0.30948805839935734
Ni 1.2028818624438387 3.2220175864751925 8.346315122984413 -1.4757908459806004 1.5187215839058554 -1.0775902154351829
Ni 3.4835773487219943 2.6670431056334016 7.062304420975665 -0.6354232066111444 -0.2904688369843772 -0.4003454448025621
Ni 4.392999269748089 7.021259282587332 6.077847887979042 -1.4265549917729237 -0.6048941847843519 -0.7258306499611241
Ni 1.025065723373604 7.372215520854998 11.51547084748555 -1.803948969985635 0.7865292533927616 0.4096523240257848
P 0.3181506981851816 5.577059393361553 7.908361027214774 -1.1134056824718952 -0.1459936652557163 0.05929555243652368
P 8.542102811817239 1.7016172409082784 8.114418819095121 -0.7130620374415462 -0.17988363313494182 0.2505069518794589
P 1.7713779672891898 3.2848049535873782 10.441912691272421 0.8623271743596828 0.3114135575568443 0.20088337531506048
P 3.893060964198383 6.229000650753293 3.9520423785475596 0.7378713831757421 -0.13570591017646305 0.06272720382589196
P 6.870540658911524 3.9582541854811018 10.412789193418599 -0.2179490725480956 -0.478422391611647 -0.5399815432713668
P 6.247813345019116 7.676302825620022 10.220340757817954 0.005643314328706409 0.09544114911914531 -0.3193158431230565
P 2.5520776456272087 8.740495335240718 5.9344182788747855 0.26690441940087584 -0.7858833922786465 -0.6681554067368428
P 6.8224145309363085 3.932848003657689 1.3577709348340563 0.8661442341129276 -0.3668611970021875 0.6261158131672894
Ni 5.282287990083933 2.593655508867589 0.31853328326568364 0.18447150961594036 0.5142288597872949 -0.02514873135148572
Ni 1.1162439786109914 1.0194128705293062 6.910163991752459 1.528952003384612 0.6722691717949003 0.04723322195535091
Ni 7.115141862625432 0.5660920595877281 9.335100384575084 -1.13471318570042 -0.1405670949235063 -0.7877227594802305
Ni 2.5992360051954795 1.6735067342841539 9.212652356315951 1.5787049064380232 -1.0467973984240424 0.512947164861394
Ni 6.416982880378713 2.0407793670016017 2.400552246793462 0.3792513431364242 -0.11978949605652273 0.41695091456972716
Ni 4.110492296001458 6.699788324755524 10.341928647988302 0.37971337037450736 1.1495829037234009 -0.7037695563960266
Ni 8.012597824750717 7.093380640316022 0.35751173865414165 1.1584562949536308 0.7134998963099132 0.02336618552976621
Ni 7.446335727349432 3.838332304101028 8.246424238715166 1.757653172242889 -0.23371353447120397 -0.16134623645238663
Ni 3.1956798145030394 8.01457858438736 12.428444569010775 0.17409607991888726 0.7009986785191089 1.0205922007835844
Ni 0.050633281268717606 4.848049401431795 10.254533734102546 -0.06694998365798793 -0.41375143379582296 -0.2291886500176569
Ni 8.593693008015439 2.4302744948205532 5.786209521861846 -0.6540241095417832 0.14227379320196787 -0.2565881250765323
Ni 3.655704456689727 2.516794799314239 11.591203699839406 0.20389079468281662 0.6441945250458712 -1.5832593585779249
Ni 1.1214446032277454 3.401579326503746 12.511523416692853 -0.41602428899039967 0.05224738734049066 0.5524971592398743
Ni 3.2599052673788145 8.5195185341337 8.26503614364796 -0.2128929981814269 -0.8521646320043841 -0.7039029966500975
Ni 5.54515016962606 7.937536983542992 3.5827130118512427 -0.53398161693419 -0.31574458083203044 0.27347230242638065
Ni 3.0428447627223263 8.671024034925434 3.6185466721453605 0.7333817228355046 -1.5688758361627433 -0.0309365416778564
Ni 3.493110319758618 4.437652284935767 9.30442845727015 -1.2927285580073609 0.66501891799039 -0.26040287083693214
Ni 7.165429641528306 6.082542016980947 11.383810025774896 0.47674063303385 0.3457295572298949 -0.25893374249057344
Ni 0.5250930484786044 -0.019274871514373206 0.2547076001430574 0.33085855365533345 -0.05845043082740901 0.3808497979717957
Ni 4.64568631417048 0.31853961446086926 1.6508654758439445 -0.5346675872576211 -0.4630888465783702 -0.4654239224694501
Ni 6.079394508517242 5.653929147479454 0.4043490161808563 -0.9365058145556259 -0.12033174171323792 -0.13460676357501333
Ni 7.905166487015404 8.68026757989643 11.4656316789844 0.37642544365185493 -0.2862740821767392 -0.025618471899052652
Ni 9.085265091355584 4.887293767018048 5.7255412962239305 -0.5598692833342293 -0.07326538435305446 0.9059269133275043
Ni 7.858704558917551 8.908651879370616 2.6830040486963336 0.4085701467051996 -0.5271692219980469 -0.5465458267524458
P 8.597292744706687 1.6898140841693843 3.5356794672737735 -0.3585760741752599 0.9315577265217311 0.17414158844484204
P 1.78427551633874 3.1666467622947256 1.5001812215134294 -0.5337489320980937 0.5178749411803146 -0.6315462401542413
P 4.6777312063742365 1.232701791768079 8.125075125048964 0.17868627039273097 -1.0633604449890461 0.5246762803728641
P 8.49155274054239 1.5811979084779069 12.373110827544968 -0.13573522075250172 -0.19253937422573936 1.8250374152248183
P 6.353897042636348 7.792887262680821 1.5114462266615463 -0.835147271510781 -0.3386477106824491 -0.022822140100838113
P 1.6276507920112093 3.1631193821198833 5.95851118992541 0.018210609470755736 -0.21658818764482696 0.05175939196047861
P 6.819040908358832 4.100633720641001 6.091482569039489 0.6378009628147016 -0.7114067612263103 -0.2998713612451997
P 2.5077321456342605 8.451584809792065 10.416866483118135 0.011271202038445104 0.6501219462738997 -1.695197734021145
