# total energy = -381163.63012302277 ev
CRYSTAL
PRIMVEC
9.34669398256054 0.00000000000000 0.00000000000000
0.00000000000000 9.34669398256054 0.00000000000000
0.00000000000000 0.00000000000000 13.67983142178596
PRIMCOORD
 96 1
Ni 8.213977540001224 7.274765642238721 11.938593991307945 -0.5143360747891207 0.15830307875068866 -0.522868537740164
Ni 4.6016017987981055 6.425730648618213 1.6696373439574361 1.5147116914155139 -0.6310921833359583 -0.8151291765176413
Ni 7.763074325903154 2.8109715004337312 5.411919047008392 -0.30546916704795135 -0.6488543924153858 -0.2611806295432212
Ni 0.6451695764674026 4.067260646964174 9.61038297695379 1.0550946054358281 0.057318888326127096 0.217501957708348
Ni 5.556983477257712 1.4344090949377826 10.30742483602974 0.042180747133108 -0.8775632745831466 0.26620276534816095
Ni 8.410089874444358 4.222593355290856 7.68928311109069 1.4152699057774079 0.00990337515664101 -2.220823265681156
Ni 8.241036219260248 3.664726574546745 1.9407989582314333 1.0657484856052484 0.8136939867330115 1.8045403237127309
Ni 0.46278847024514325 1.8995005905955076 0.7409573010443532 -0.815274443846254 0.746296888235276 0.15005189448548997
Ni 0.5715559488417861 4.366569830353388 -0.03799711529938402 -2.1461707711725877 0.44602417778659964 1.8399336156103603
Ni 5.28781738216223 9.371836651548316 4.064346347761077 1.4080353357021815 -1.440459517669158 0.5667660104540627
Ni 3.5276666530771936 1.9058750359339034 12.50437835657721 -0.446078942283935 -0.6896827392856574 -1.2255443468513796
Ni 6.549658464955146 2.2147271939426223 8.300525122845714 1.0237649420846109 -0.5282665688272838 -0.1725115090405868
Ni 6.475651341510254 5.982884284786562 8.19945838547239 0.037280481618013214 -0.7695532876600553 -0.38854099596846636
Ni 6.708711157511568 1.8277460204153557 3.202052133968946 0.8758105535580982 0.9554895547469804 -0.19200407054755966
Ni 0.36910094782000713 9.305549897384235 10.85939198349292 -1.4975336369743306 -1.7790023273426268 1.4338564105303435
Ni 5.283592676454085 8.954226361636998 12.069141136367241 1.5156984808088154 2.252687975600237 -3.1258469504681003
Ni 8.909651977738452 4.418771116592303 4.161022008272262 0.7713705433744522 -0.22559013403312117 -1.762485560634526
Ni 7.179887350992307 5.279321237275719 0.035351066215366704 2.449287121717646 -0.4713449159395753 0.8910592521870524
Ni 4.228986494017342 1.492807239328246 8.339703660272331 -0.692633337273549 -0.025539539032001176 -0.28978055266810093
Ni 1.2296510685034223 7.618845490101418 12.430083354955746 0.7033013585103565 -1.0920932941473644 -0.8317665279640063
Ni 3.4087580114421945 3.1769880392190313 10.090695563863095 -0.5493185044015766 -1.9794573568710165 1.2057545658189621
Ni 4.532922290958617 5.866742264588755 6.763719255972067 -0.14784511664215827 -0.702830332411209 -0.26483982356236324
Ni 7.532743744562854 2.8135698813781214 13.813756725280802 -1.564916594404679 -0.07400354807065965 -1.034646107773489
Ni 5.2028465866030595 4.3322207297396 13.562403559695458 -1.7290558202211705 0.6700060867923364 0.5867146856618477
P 4.920239945471488 3.632097265637157 8.75031794969129 1.5184323348002107 0.49564081237246255 -0.578391767618449
Ni 6.209401414956678 7.326499593775407 6.088673906660605 0.8705081675085782 1.1378561022047757 -0.017956584478420686
P 6.138385233606047 0.5332223525567975 6.13558216006208 -1.1181110583673646 -0.2546587692643033 -0.7725445090778953
Ni 9.599709052354893 7.574495426859941 2.263041190128401 -1.8827705082702284 -1.20841385781868 -1.1597138215098155
P 7.4444455259238165 4.488067506238734 11.805106376302227 0.13024977215789826 -0.42769684023232146 -0.9189310388966561
P 1.4831614510742515 6.594045914972802 9.552831643043765 -1.1505843484047218 1.1532472399488656 0.20077281787912518
P 5.86489161916793 7.447632748593014 2.820302305098424 1.971279963266547 1.5313991793735238 1.679163820486734
Ni 2.7939511705785725 4.061727404089789 0.6192203497914671 1.2513335400003418 0.26055430881313185 -1.3359102356011574
Ni 5.656796822959658 2.7026152763750497 12.230685657555945 1.5326317662290443 -1.0675976229988453 -1.3105609582030913
Ni 3.1241979112553087 5.353851775587106 9.748548612328815 0.4563916370638527 0.4596718504770213 -0.01579608649199215
Ni 8.97249914849413 8.574918823920322 -0.030925406585263552 1.244349652483341 0.29892570950247876 1.129956387741725
Ni 6.672492718088865 7.457960845512262 0.4985629417007289 0.22350805469311186 0.9875198437096476 0.10828303807881995
Ni 9.03301899243271 2.0695076085721626 12.290397947129074 0.6565687303405079 -0.20552807317592348 -1.427944930141915
Ni 5.82395309925272 4.392329319140219 2.084464188382281 -0.1869999324647489 -0.6523374658679798 0.1774076607906235
Ni 8.185301882672489 0.7680300003444456 6.416360587838534 1.443360750476353 -0.6737159315437558 1.3245655000122996
Ni 7.646838838764901 3.9757378188797596 9.635635874923405 -2.0184123979779756 0.4795287373019484 2.8233263245255116
Ni 2.8531905174330467 1.7950045511772326 1.0123824920904068 1.1579377034459994 -0.004360590961540877 1.304296208240302
Ni 8.556617996981057 6.203503651014556 9.724376192190752 0.10138425407645765 0.6755169893082366 -0.7714067959290263
Ni 5.95315245103079 6.43871320664612 12.137033652568178 -0.853608306429446 0.12220093371149278 0.76390791644882
Ni 2.169040553452772 7.216143177191188 3.115896177604923 1.8956486497844771 0.13613708417661072 1.8104770009121403
Ni 2.0335976100529307 0.07741399342413799 -0.2452619250764978 -0.07299644696238397 0.28958360616594647 -0.5519320307650236
Ni 2.4977263962240652 1.3041722601207661 6.81791886539771 -1.493255578424267 -0.04300401436535174 0.4798532105209027
Ni 0.6774839017876889 5.541496005225863 11.576544189475161 -0.6627674029520522 0.48182653219718957 -0.6783408319102769
Ni 3.60409457027963 7.245351596080464 11.348432513301042 -0.5080307013963831 0.02834795501507376 -1.301536643217294
Ni 7.6570828154377475 6.094455771596575 2.2215502805951575 -0.17139719293048547 -0.6455734076712688 -0.5635981542490422
Ni 4.5860862866841225 4.10923664991833 4.5660815574205325 -0.4684400835879545 0.6141167318238844 -0.08579359872705225
Ni 7.7130040859064 -0.1702864841285877 4.292197251171353 -1.707352109995492 2.1866111385758216 0.575858459673634
Ni 2.0987721076257064 5.9696119792432745 7.452580888420208 -0.14519559483445316 -0.09333618696100056 0.8031534922130039
Ni 4.401825560289501 1.9952107376118882 5.553656054177846 0.6048831290407582 -1.6283454522832859 0.2503699120809623
Ni 3.9832338675035035 8.741420831630265 6.313460963763071 0.4597754659344211 -0.1816499810067452 0.5025524518906312
Ni 1.3578970574889455 1.8549916335552727 10.359243842482233 1.9062223115352654 0.817365779157644 -0.2582629416757939
Ni 3.5499304782913557 3.6683437451419936 6.999682155143622 -0.4630420525008348 0.5088328855827043 0.31347326829935046
P 2.3469829146732657 7.550137942179796 5.517541363059038 -0.5120218248336472 -0.34094010626105153 -0.7058909736144037
Ni 8.503668975218577 6.992878696548582 7.184086820626531 -0.7872486480572893 0.16634009012255224 0.8189729757437638
P 6.575819861585893 3.9509036528033414 3.9600652823058273 1.8928991120637984 -0.20675988870049553 0.7122950773685346
Ni 4.357559617294425 1.9691054211454087 3.1316556384334695 -0.20558720854863302 0.478700327863382 -2.0891722423003567
P 1.5519157324660968 3.6380698031316365 7.710473001159132 -1.1781110930700807 0.019096097399502594 -0.6810057803369497
P 3.1831568572884463 0.34163007935361606 10.882168942210127 0.6911107299814355 0.3726361518127518 0.7787655502869426
P 7.406198853893441 9.546806764062636 11.019172783515412 -0.2380535566074545 -0.321244427604337 0.2743315651028824
Ni 9.223009242276651 1.771217214833806 3.4173859447147352 -0.18487594414321062 0.5647646637533177 0.11731429504315279
Ni 8.110948931547945 -0.028705566749678554 1.9957229364455307 0.7533977609461153 0.8623091766375535 -0.007469054683535525
Ni 0.5725074422955231 8.969704486974804 4.316752885765243 1.2489984641092617 -0.6182040145193805 0.9723621621326028
Ni 2.5736682853361836 5.302314104625357 5.236311489960232 0.740746390730692 0.15106182380724306 -0.6454381676449852
Ni 7.560531465957356 5.214539300852814 5.78756735400662 -1.9631995002512574 1.122070557235745 -0.1027417965456166
Ni 5.926262012264566 0.07873841997025334 1.5989398848737253 -1.9273534370869254 0.41517273962338175 0.32072069389038316
Ni 3.0549576017731455 9.360527151754388 4.094004342633897 -1.6424122147889972 0.17866698711902132 -0.1754276542461172
Ni 5.932243896453089 3.580550247981362 6.580518444682099 -0.4269463352195421 1.2377501448889523 0.28962577225779146
Ni 8.428175727420598 1.8229418196764475 9.869902349125875 -0.5347146384454727 -0.037718083376064075 -0.40275276869247406
Ni 4.520612694901921 6.66468822856165 4.47976203391073 -0.2219725918851919 0.7365467508270476 -0.6711252879984442
Ni 3.2468171904260017 5.104874539627893 2.8551860366115625 -0.35272475760080546 -0.7463254274803662 0.4673921019394144
Ni 7.949335244823312 8.960292366071924 8.946335882524574 0.5428393244351362 -0.6558225962031028 -0.16251248884634592
Ni 2.0072679729293816 8.88079873322287 9.229768771409685 0.753454839436296 -0.44323658773913344 -0.05989873323816137
Ni 8.00237773352624 7.0989917140365675 4.163210069348096 0.5180225225017724 -1.6864909502757663 1.3446607281002778
Ni 2.607662211576279 6.399195384225685 0.8517978763800811 -2.3185724941081878 0.8400575643282048 -1.892319071190612
Ni 5.352674092137491 4.711238519940894 10.71438643741608 -0.020989971988105788 -0.36388231687952166 -0.638743529233629
Ni 1.030276737838733 8.50858533628602 7.1225818351356525 -0.07850966347112931 -0.17124935449871154 -1.0858095180211818
Ni 0.45614857879588183 5.787323405292057 5.768251476094115 -0.16459636795856816 0.6309733983699068 -0.16347665253182814
Ni 3.920545590546583 7.3236114653156354 8.443493089620837 0.29784867438821605 0.7257789707875822 0.7827031947784521
Ni 1.1910866088755327 0.3142199643985147 2.106284045629326 1.665313544867203 -0.9111490809583921 0.18338933229535512
Ni 0.7092916362907596 2.3998384694953 5.687745596280034 0.8612717365119748 0.624051474439093 0.01123906324892903
Ni 1.6259695893812127 3.4791012308216165 2.4587170339596542 -1.429114524969984 -1.477328108560733 1.3355587657990096
Ni 1.8575526277234846 3.6390231659241823 12.034982708311961 1.4475441924300811 -0.7276106246796824 -1.162451532155953
Ni 5.995418201500328 7.2634000622805255 10.052363836916916 0.1711161713549569 1.16762459171646 -0.6216834884275487
Ni 5.732056403406523 9.099109466021854 8.079815093685488 0.29799779837157064 -1.005313677357959 0.27100738582565587
P 0.9073265856988622 5.456207422069175 1.8987332270144484 -0.5677818533130867 0.005589835382951663 0.30212776137954417
Ni 4.306807068632418 7.85584961098954 13.433224770644287 -1.172835446493438 -2.3129183811462037 1.3883411997073638
P 2.56161105001869 2.225130064414227 4.195576736155031 -1.448387257156667 0.1287886142313395 0.8960333083628762
Ni 7.211796964460464 0.49515700639088817 13.236359092661159 -0.7445747633378467 0.6540873586795509 -0.4495730714801225
P 5.261132570664988 1.8917895680087387 0.552716752325554 -0.25499609799906403 0.3805893452215574 0.24020454151218634
P 3.6284614016538197 5.394706175255915 12.561765188672053 -0.7158887082570639 0.17788460042704204 -0.4776932267551064
P 0.43274632624709136 1.0359688745118754 8.179185406089722 0.15122868840241052 -0.5695615709213288 0.0058166066817770794
Ni 3.5025520861794384 8.694491080832487 1.5218539604105514 -0.932745319071929 1.2021583638272715 2.3291117030766144
