# total energy = -340864.8593152471 ev
CRYSTAL
PRIMVEC
9.31714601841571 0.00000000000000 0.00000000000000

0.00000000000000 9.31714601841571 0.00000000000000

0.00000000000000 0.00000000000000 13.63658498950380

PRIMCOORD
 96 1
Ni 8.957038160598318 3.9248756397425737 5.465475022790467 0.6784878990111024 1.3757091127656502 -0.9316420587054213
Ni 9.432492113201773 4.286166604275284 1.2773154756861758 0.8202844954663356 0.8401961467885982 -0.6505227812567442
Ni 1.5127877026927825 1.174081499694675 1.0780263845787563 -0.4920039869508236 0.36762224353792816 0.0654191488357583
Ni 4.221887615072633 6.24777053959321 9.177312259298306 -0.2283376148712713 -0.7651896113747209 -0.4762721780378636
Ni 0.8562065713826503 7.273700103165064 7.154448090032354 3.1472218165994508 2.395991238507983 0.02090743957662851
Ni 6.189864478150324 4.704264207040863 9.016400491937185 0.1218530634537708 0.15264433780301453 -1.4314791685474184
Ni 6.090916389248722 0.9279793409905319 5.4893939996104475 0.6003749567577595 0.23450620557582838 0.474963229418453
Ni 6.528430923960717 7.117097515758462 9.121647903146355 -1.5591192709966117 -1.0008872661554893 -0.03511766963873952
Ni 3.8448227226199223 8.337578401774227 8.018175461543194 -0.7466033637321013 0.6774154918825301 0.3853844526173556
Ni 5.54571428283007 4.91277261396449 5.694719669512533 0.7679823436285096 -1.1127639351228384 -0.8066620195868945
Ni 5.159434733134075 2.8361391960119913 4.197176680855606 0.3790343420296117 1.5447537463035588 -0.6084567053246295
Ni 2.957364580635224 8.393201762484448 5.674046786305859 -1.2802975313328595 -0.038665277780681795 -0.25005160950959515
Ni 0.38002308625932685 6.713786223453038 0.6964818084025152 -0.6453646340945723 -1.0636314392622455 -0.29975154783788377
Ni 7.975010988260395 3.3492251006939373 8.544683646533205 -0.3742253506767426 0.3260426203239288 0.048245722380265296
Ni 4.713534767159232 7.184581603132689 3.0795496312807606 -0.18309211276991047 -0.1853369429400292 1.1217429986929972
Ni 1.846257669724534 5.332798865920523 5.386423698846434 -0.7018965077430298 0.7294625902867566 2.4101616164710946
Ni 2.5493294953850625 3.353622793534009 11.102498266641684 0.9005188549380555 0.4078432958415041 0.6914300609940672
Ni 0.4623978361272021 7.265305354756369 4.886969710254124 0.061750441734919455 1.4874145462624577 -1.2793863323724999
Ni 6.331177629221 4.797100248266432 3.183092936514402 0.39573854215817006 0.7252858332012477 -0.48587036324926003
Ni 7.503936094205315 3.278461377981352 11.487309434152097 -1.3626260543294468 -1.1056895447745603 -1.3995404108572929
Ni 8.188289773857997 5.484407463152808 12.53343950163615 -2.016171424462599 1.405130760460877 1.0634532618131685
Ni 5.897799907265344 9.03977441572508 1.7734516286421527 -0.3059358222717247 -0.23858140408646655 0.5133148326134579
Ni 4.290256831302384 3.7468436168864723 7.425734493962583 0.004275230336586185 -0.23399712714989376 0.7317732406978043
Ni 2.279784466013752 4.2739145574856785 8.922253528290858 -0.2266301452618613 0.6800742696616159 -0.48593412660765983
P 8.185569167270497 9.577746416965988 1.711309992696944 0.3886181290633049 -0.6865925303961079 0.513163137526942
P 3.5790977230461314 3.7573440402567275 5.382591556759312 0.2678032770660614 -1.2027263205155996 1.5297004515148624
P 7.429846150425132 5.44742771128365 0.9781819862466155 0.8569108884401179 1.8812707837962503 1.2667686436084893
P 8.82847086504717 1.6074685387961787 12.344995568295348 -0.8016725367921032 -0.6741622750525551 -0.5348673619732531
P 2.268082130829156 6.999161083619436 3.579916700166136 0.8781368876984295 1.179349593462872 -0.0354007480967971
P 7.175609191681443 2.9901143482895676 5.380846455342056 -2.908253975707843 -0.8046619584377303 0.3271435666975914
P 2.4319334577051968 9.304092526275882 13.088952893364352 0.5144797994558366 -0.011197925598348457 1.0175055914384605
P 5.384490391083055 1.2444073165524232 7.893455215512524 -0.3456475390390499 0.6357646491109631 -0.01799437969489159
Ni 4.921269850977509 7.199312010717759 5.4480333257637445 0.6458354030834038 0.15606493344878927 0.9591934859611289
Ni 5.487426218407433 2.2867909596911535 1.5763343642318106 0.8984360042670978 0.41686246862097887 -0.35497730108040804
Ni 8.141443164536222 9.112476104773968 3.9757733440788883 -0.49386135187453656 -0.8507032169675091 -0.9751680070125142
Ni 4.293387392307181 4.438921210446823 13.057888597393841 0.810072073709708 -1.9071558790931282 3.0857899345462148
Ni 1.2532958736910413 0.3252447906774829 4.224790837718748 0.48621026308718207 -0.1549416184776235 0.8087530977879684
Ni 2.6025490324666016 3.3670394835545645 1.467746756236274 0.4295282370141054 0.9642660153880296 -0.8574089111224589
Ni 4.011385338937617 0.9270140846807198 11.287547032035619 -0.2513335615458123 0.2587725343223608 0.04830254376012971
Ni 0.9715640175510591 5.6216490214880785 11.627043329001603 1.6209365614137246 0.7706519200408728 -2.0745773752053176
Ni 1.9029431850613836 2.415367572388149 3.4871067469489394 1.231117470063783 -0.19763761468425317 -1.3476876878520596
Ni 3.487789693739569 2.0122612572913727 13.101648436296303 -0.645172058467792 0.8836979267259748 2.736534623551248
Ni 7.273019951518188 7.764611200729702 13.264019268697158 -0.37961901088848815 -2.529167697394373 3.123414686877524
Ni 2.693680036002059 5.980722505309058 1.5616347032280389 0.46946801063183663 -1.7547344559341975 0.7009302871750186
Ni 7.05391794976583 8.784670962417563 11.423939798384174 0.6217482802272132 1.2743192022622376 -2.0144480140135888
Ni 6.92341268787838 0.7751818759480935 13.5923480346502 0.24922885649798363 1.3960210848501249 -1.219446461483758
Ni 0.8081356890964997 5.448433963035192 3.157318915956163 -1.26208717897242 -0.13473274762991636 0.5986656873761367
Ni 0.45603236208411607 2.3262677066474704 7.484357975635735 0.7263207022236653 -1.603170238569239 1.5339090902795711
Ni 5.9316118295463145 2.053340553333478 10.161710645254445 -0.6175782080099235 0.23084006957815084 -1.3733866352800603
Ni 8.30706474912331 8.762402983841778 6.523155555981801 0.33620876222365326 -1.069704899149835 0.5693168019003744
Ni 0.4762226171358834 2.9469852801609884 9.97833896611308 -0.00219829320289944 0.695798365265092 0.2726613764893111
Ni 3.585004793513515 1.3378769236956303 4.7280080215189075 -0.48278658211761366 -1.45785945831316 -0.18536008286848077
Ni 3.53126349626451 5.5807747026546215 11.525123070574615 -0.3994347600628347 1.591963571220142 -3.3854869749970793
Ni 1.5558049650711903 1.2837536234668732 11.561819581210008 -1.00989075520568 0.0017781749463453246 -0.25726355387700206
Ni 3.7130223774596542 1.9358327099034411 9.130389249380581 -0.7441322764837894 0.16380523951584047 0.8280762235966126
Ni 1.6426687158084432 2.8718984017751126 5.643064481218807 1.2469582937507815 -0.5337867273145647 0.3201735631376615
P 9.345563142443588 2.8918743624723846 3.011557759457838 -1.0532475249247601 0.9635419927378116 -0.08183924206499453
P 1.2504355099158255 0.2640208935982635 6.698508899406715 -0.9059258848862398 -0.3091525294368095 -0.5217359667976176
P 6.489466620026019 6.264783647910943 7.072355649683662 -0.96233537402422 0.6770097718036792 0.5330187388002885
P 4.680822268088279 4.282067060102336 1.7467104883449318 -0.6580175469718925 0.718876073020162 0.07036800820060139
P 4.378015028041007 3.927633514913466 9.851273594472566 -0.8893795504917845 0.5946362545017695 0.5083078663171698
P 1.8337726942887387 5.059890346898227 13.527683315609458 -0.36090600786001714 -1.585341180807618 -0.7858566528057691
P 2.873482316569206 9.192966927751456 9.907428964210686 -0.34465277922594834 -1.0732383662243905 -1.7824195805542917
P 5.474018845532724 6.941478633676891 12.060877591103793 -1.0531313110618703 1.3679461809907794 0.10691315431448685
Ni 6.247779856739058 5.225176514234799 11.238659036058634 -1.273438599429497 -0.41699205222030766 0.03532464344322304
Ni 8.797957212396252 6.654398735820382 9.055142116086126 1.6018232376230412 -0.7023852744539902 -0.29155847050413014
Ni 4.622916206645393 8.638037721067903 13.176390580285817 0.39009085695408946 0.9217839349644189 -0.8269799052086404
Ni 2.534766796425251 7.100261433211833 12.945768859407476 0.6352092908281253 0.06697183803485886 1.226718826775455
Ni 3.6763221399659245 1.140819289018713 2.0799205070075355 -0.6415424321350047 -0.8673577948050546 1.1151098096471956
Ni 6.087180213763832 8.68619804795419 7.29171387294683 0.3482947468539098 -1.1332409720302676 0.12234568681947315
Ni 8.03724952252242 2.574085151902158 1.3311341052457162 0.2036347128079525 -2.4066541175384684 -0.7344446168823803
Ni 7.227487059760927 2.123638418753683 3.4138236679991607 0.7883650210499197 -0.7188377635830588 0.09363494914834196
Ni 7.430805816447437 7.167158540397662 2.4212299205554646 0.38044999143021574 -0.6211006193408851 -0.2191232953618549
Ni 0.16538120222421832 8.874367125492489 13.263488191383844 -0.13241412679906872 1.0337896733104646 0.23814123122525438
Ni 3.1162591859203377 1.3608530053558325 7.036887138870987 0.14670174706633443 -0.12511373648291357 -0.6394899204813502
Ni 1.7932896955808806 6.9175056174109955 9.15243920674353 1.7431588352814562 -0.10219775111668851 1.0946224883271212
Ni 1.4496267709918453 8.20549854223853 11.26185500236084 -0.1114210694871694 -0.14395863710355852 -1.1433718898166825
Ni 5.114721750211402 8.549785715599356 10.304771692886133 -0.9772495721318912 -1.3209962946038025 -0.8081751137973113
Ni 3.1165480174416134 4.749759830214734 3.666155270417015 1.8084419727599823 0.17798101679559022 -2.8172616063886706
Ni 6.634869998123795 3.77564291470143 0.06513243976229115 -1.1882234989137341 -0.061639112968035786 -1.3159654170481143
Ni 0.020144601037114084 3.672222595792977 12.526021190112287 4.002404152384236 -2.09012175069782 1.591345735130485
Ni 0.853765479170577 8.45081899240606 2.19626743406496 -0.4684881632170706 -0.3565302473898247 0.5477534739073018
Ni 8.579908048124674 5.976473886802549 6.688335507855711 -2.199024681748826 -1.2035935536119013 -1.2580832000193494
Ni 3.3129161833258074 8.034994773227298 1.4517641242492867 -0.9631262453566315 3.1664955772273986 0.10325010364060282
Ni 5.186780556196805 6.738187828427925 0.8178571990738943 1.052321413566065 -1.9573360994919453 -0.4584354069667589
Ni 8.116463896518784 1.2939838496075473 10.127305220782981 0.8321408805842894 -0.6044372997525913 0.08051203861313876
Ni 8.785407016939525 1.3897827432126566 5.50837582084578 0.03958676115368666 1.5313485286412465 -0.24830865867655944
Ni 0.7791686826562852 0.14295949074194872 9.02598690329979 0.4047515442900578 -0.22971958282046243 -0.3919479647674863
P 0.4598840701775173 4.431001636476356 7.618582642145551 0.41694757213561745 0.23405780518450012 0.3277688589864161
P 5.149614461410696 9.292334288216201 3.7836342306949238 -0.8678869278356474 -0.16540240879963125 0.32126345376773063
P 8.815603886631623 7.347883218403722 11.681957654912823 0.14081289238572522 1.1905601174667109 0.5167076603450907
P 5.468596266649416 2.194206481403469 12.300390664264508 1.2001847850406684 0.5761965597393431 1.1026543574926624
P 3.171603032255131 6.4285883890577455 7.039791293231685 -0.06849753065076589 0.35532028624212353 0.5627527755296114
P 8.005878692453521 8.57107539386114 9.201203284680743 -0.19606564221144296 2.9862429907888117 -0.09364497645067098
P 8.047451797225548 6.179680837738888 4.381421376562892 -0.35529534654145906 -0.849547248986195 -0.4114191861182205
P 8.432976658107888 4.964147356168203 10.270162222920607 -0.5546196048995158 -2.051504552546254 0.5389099074737428
