# total energy = -381166.15926128614 ev
CRYSTAL
PRIMVEC
9.31951976366265 0.00000000000000 0.00000000000000
0.00000000000000 9.31951976366265 0.00000000000000
0.00000000000000 0.00000000000000 13.64005920561270
PRIMCOORD
 96 1
Ni 6.839446422349309 3.9636197025203277 13.383326140157404 0.043931668385943694 2.29915398037226 -0.2039825830656745
Ni 8.211866857315089 5.767198398578554 12.369201165127684 -0.2745053716765853 1.1430782698356636 -0.42235305942190493
Ni 2.4379024874077895 3.15021201991293 11.046756654749235 -0.6111465934519668 0.25925744437857934 -0.9835914551895187
Ni 4.763672513345228 3.2465944930284856 8.937171528140896 0.7936308974345493 0.19716196059941526 1.2975187803071524
Ni 4.625510633250651 3.3137416327304368 11.530446252740777 1.6349084502127844 -1.9326583942396072 1.161018142143536
Ni 7.90389400810056 1.2242214321149223 0.7978496763591764 1.2691559128937433 -1.1980479412033238 0.21208490045783476
Ni 5.339320608433379 0.577426259453887 7.276262563873824 0.4908562464996256 0.32411557850454503 -1.3826143245259155
Ni 3.834050419622864 5.106183502703467 2.892551529948221 -0.22450924226411656 0.9056515481789305 0.5277099249928654
Ni 5.034954413356901 1.5923704202684517 4.6030422031177665 -0.36987787234132424 0.4610286216152319 -1.2072612322714757
Ni 4.40488032300721 8.886012956498995 5.163158386612958 -1.6427081487628612 -1.203120727740541 1.6308160253109656
Ni 9.288709404315972 8.178316586263454 11.26533853455458 -2.3705756266483564 -0.7377235447439682 0.4981460952928195
Ni 1.3423929423745673 6.123763223699532 10.963729053416177 -0.3816545532612782 -1.6693530050438992 0.3591355462231557
Ni 0.46197884481324003 6.27190630943197 7.570137775582851 -0.6932313758688642 -0.7560148868539883 0.3933317324888903
Ni 8.180488034362075 5.449141829009061 3.557436822369903 0.3989277385194291 0.45503332326374535 -0.09232934296304099
Ni 2.74478495281314 1.878116214911273 3.0641574385694352 0.17062534776146743 -0.18611727274947948 0.601189482239255
Ni 7.967853872052606 3.6445379857798135 6.161950887772082 -0.1903786191289947 -0.6056740003731698 -0.49632549714431295
Ni 3.758916451506676 7.483602307020949 9.414096086755665 -0.12199421701732541 -0.10195863852268891 1.8314775144232072
Ni 0.7355384354485287 1.837333996544064 6.495545892598348 -0.5476215763151279 0.38383073497699055 0.46494569728145085
Ni 6.967683013924444 4.057746851859635 8.170313914665666 -0.5784511601014747 -0.6895205026761803 0.7382112830136641
Ni 5.862853949154657 2.1013093930822695 0.21847190947245265 -2.3782387996205685 -1.4596726002624991 0.5879560142681165
Ni 1.2966154614285597 7.852347744437619 9.380910208925732 1.5315688721821685 0.11128197280614383 -1.0920071621914613
Ni 4.968580793793084 8.958994115556036 -0.29194047941171597 -1.0009134914077342 2.157918141516503 0.5096924053695222
Ni 2.151709355817613 9.063093151013469 1.3117326543932417 -0.3809202461984149 0.8082378487144467 0.15265179400218226
Ni 6.458119633288277 8.955639088450873 4.708684551043573 1.8743267483782495 0.44358548643811996 -0.8308365599505692
P 0.26289060444086904 4.689684846156638 5.370404934562718 1.1257505771904934 1.182876375669208 -0.41116001891956283
Ni 0.45476460458516504 7.557086720143765 2.2498727891548267 -0.4780110151058413 0.3075903271560122 -0.2256047893211405
P 2.5577794697792258 7.687364286541208 5.149804446782434 -1.4832100212628068 -0.7831066008644578 2.383697251631979
Ni 2.18134542857989 4.056619189971511 1.5848793903042007 0.4944372789826646 -0.3053023024527839 0.4181516197460476
P 4.821844955540867 7.6926391347121035 1.6088585145863825 -0.5060249838202641 -0.683441643471952 -0.4731557438960689
P 0.49819729436545285 0.46260511653953723 3.2253282809416177 0.03359969033231633 -0.8092290089831226 -0.23399815559115827
P 4.431478232335367 8.34689737877818 11.241141333510562 1.0112418699169359 0.4143630992378929 0.4282180028431142
Ni 6.202159023723518 5.87570556687138 9.52245227882876 -3.3865974344524385 0.6114990916953791 2.2098078884072585
Ni 5.801168048018333 5.3214923671773295 11.635597461976467 0.4156645916581357 0.3445386222455873 1.7639302635008527
Ni 7.076553643486997 3.7337257896587412 10.56497569439974 -0.947127298825214 -1.1873156423874842 -0.30118570918124904
Ni 0.2913999472669952 6.949472672359196 5.212289030760182 -0.1385991725638581 0.30948291619303475 0.4472814472324684
Ni 0.9069039004605397 0.4497423153991301 12.99287926908217 -0.30408359955433434 0.8122770517808268 0.3889883679185301
Ni 4.76079278174663 3.097705845717122 2.5711240900900134 -0.376185559726907 -1.1321351405605984 -1.5051387030150982
Ni 3.2450567722719525 5.868287229161075 12.782658862384473 1.0129164294058814 1.7334639765911952 -1.005505481653791
Ni 7.791929297985468 6.5221354143587424 0.8479644617905813 0.7087225295259278 0.6739298473267749 0.7627642897626798
Ni 8.709184389017409 2.29966605115532 3.8236628829244887 -1.00818328559627 -0.05295521204079267 0.10788374575787227
Ni 0.8983318062068472 1.9680682194085988 1.7056072448275854 -0.31472256732541926 -0.6492680829140366 -0.1516878874270162
Ni 6.645441979993235 8.28156754542486 11.636484680255387 1.0194328903681602 -0.9307884524558744 -0.17188441697954915
Ni 1.590180333130359 4.480648018465484 13.08325810758343 0.02209888878156839 1.1889812030153655 -0.09939884821531268
Ni 5.539065874947177 2.825780898843627 6.4531392819410565 2.1852096302426043 1.2627947465624059 0.6615749253058477
Ni 7.2253024980023115 1.7041301009493397 8.466016684195035 -0.6384010582925457 0.17207879237854234 -1.2866682107458938
Ni 5.233497461824682 7.259905874784178 7.750322302121574 0.6288784635140912 0.0029876218734142096 -1.6142241823905554
Ni 4.439651451144335 4.247371119939524 0.17992171608215132 -0.8969177678503585 -0.754844520694971 -0.22685485967815766
Ni -0.12679952163175684 3.9686615626978097 11.503276124900795 0.9597383027210052 -1.138897913205729 -0.9480017310103673
Ni 1.210214193950865 0.6734033334609022 10.612538795327273 -0.5954209551865939 1.742661069709431 -1.5755992709295057
Ni 2.461807055532079 6.746950188963901 1.3277790034756596 1.374659074234581 -1.7302565253974913 -0.8023451373790955
Ni 4.587440395126783 6.549413648627668 4.613081189777994 0.4679855125490392 -0.2382569308675123 0.415899076266445
Ni 6.354486573817673 1.22870412110821 2.582445442665992 0.8471093289686636 0.4317704960810628 0.42551808741344777
Ni 2.4156567937966087 2.0678802757872106 8.764420250544058 -1.4917411986622695 1.5200102208102921 0.47286238102536626
Ni 3.274142993369772 9.501902737809635 8.050990511766582 -0.7562216035481557 -1.5998524870499156 -0.8548606907793084
Ni 6.336089841857694 3.8840589625292723 4.1448321720859935 -0.261904137972807 0.5337810708876097 1.3635166844645161
Ni 7.7976421635839825 8.601599853178502 2.7225010491710395 -0.19313818415200285 0.37608760069646197 0.07888658719457382
P 1.632043615787009 4.577906526436277 9.46049983942797 -0.1274351855272386 -0.2830627743282932 -0.5927341523830502
Ni 2.755884500819389 5.426821579239988 5.569249935469964 -0.3277351775350033 -0.5224813296040743 -0.5690270385740974
P 1.0954256693555933 2.5064382355504886 12.536141722168775 -0.19761216076295643 -1.4531589675136973 0.5863755571548741
Ni 0.9930414255296894 7.462064896909747 13.313338410839748 -0.9626847869438389 -1.5595409319150626 0.9477330507300131
P 0.35724794591766923 5.284493873823166 1.414405803330979 0.43902460654031494 1.8753587891871897 0.6542269695812087
P 7.340202856834423 1.580320281249073 5.988149300300932 -0.23980139253649668 -1.4106869143924157 -0.3453585470437213
P 0.07944610989829613 1.1216880759732335 8.49587456152704 0.8826026367792671 -0.49271155454080945 0.5501757101955492
Ni 6.090026562253167 5.3911930552871 6.388021933637729 -0.43910868161368893 0.1837685700116448 -1.367481325539219
Ni 6.091023750864979 8.917419738011219 9.16770196420049 0.7542595947257783 -1.0547979001310155 1.429278304241358
Ni 1.737018686099678 6.173771766605941 3.5287653199003604 -0.42348511614381906 -1.4552932402478806 0.1042194095324076
Ni 4.598661096889607 1.2013513306813917 9.693758098914458 -1.127765036517361 -0.0625701094227374 -0.41516142676947204
Ni -0.17227505013829966 3.32048896501971 8.908582037445035 0.7121986609999863 -0.2918279221154329 0.20493800500040835
Ni 8.060014602727499 0.8571786709541231 10.355969621123718 0.10943772050855347 -0.8312039705923169 0.5817622267525787
Ni 5.923924761988368 5.139985400787989 1.5933499017927648 0.5653997262341554 1.101725932141122 1.2723088567004281
Ni 8.40105310796736 7.787306816196131 9.014715524060959 -1.5285722514476898 0.41821281200128624 -0.13616690897328163
Ni 3.1591028417416127 7.964610679184282 3.239336451057649 0.9672474666138567 0.7266379763537679 -1.7403640461451384
Ni 4.04818502460992 4.399624113875787 7.279440520103992 -0.6774265476261236 1.9024227352835172 -0.5706830861202816
Ni 1.5670213265849946 4.137773567837519 7.106471165745319 -0.1723176478622258 -0.6506860463074858 1.0256292489868597
Ni 0.5913272550929475 8.61316537717158 7.236596823971055 0.43951825834728175 1.0505630361140617 -0.36445258756069493
Ni 7.717056276421904 2.217300135723558 12.244422115374814 1.0824747972209938 -0.8342209030417698 0.06107038494875935
Ni 3.3738525350312814 2.256237089182927 6.553147980186109 -0.9325440016944004 -0.18760079927354142 0.11554331918565908
Ni 8.474863704280954 5.522402573658199 9.955742846036932 0.9393455979972661 0.7377999065078583 -0.8624814405493598
Ni 2.2554728885645288 8.096705551930354 11.517202283243146 2.183734845469291 -0.29402107311200976 0.6036379437797476
Ni 5.75431882230262 1.113384383887954 11.567316136722576 0.7282567429041135 0.5240412178920265 0.5161469027456144
Ni 4.269048322846774 0.4282794614458208 2.1321187933793797 1.0589959973727632 0.020587337233048415 -0.3968325465532972
Ni 7.330874017578121 8.508674921885213 6.843654185510369 0.0383145793094824 -0.660785853745649 0.9529307928808685
Ni 5.614721736168613 6.851440644250268 13.33139870813724 0.1431122299428632 -1.8884408191821282 0.9478181542446517
Ni 2.8307854809421626 7.1772696932800555 7.36178500064036 -0.8821699201172226 -0.3202015881621195 -1.3712713887092707
Ni 1.3914042966691627 3.6795514214300886 3.836566689951736 0.33189625089122843 0.336244243447279 0.6456507978764235
Ni 9.006281358699368 3.510308943014067 0.41041673796674655 -0.8270266992861758 -0.41513982950291733 0.17871378119655673
Ni 3.1784408451949857 1.8815457981743287 0.43718333060213505 -0.06823193569420508 0.4994175058060754 -0.2795005108983315
Ni 8.80254733773832 -0.04871965332684114 5.185405012176112 0.696688224069213 1.1254209617652164 -1.1540792489318576
P 7.315524768571999 6.110128766324937 7.969572391492029 3.0262454993236783 2.3391595742309197 -2.6269539497069276
Ni 2.3941287032051437 0.6946266757569819 5.1989220436020265 -1.3062993547132598 -1.0241719477150426 -0.9015848343087246
P 6.683884998906566 6.8023920118767265 4.736223731865123 1.184256543846186 -0.37003908050953693 -0.2579562090686525
Ni 3.2666966971002567 0.853133999388454 11.646673711183373 0.701926846760333 1.230691695380274 0.896018910185173
P 8.28172597726038 8.560631244416562 13.301294795484187 -0.24453016547073372 -0.372498597793623 0.22722895518812478
P 7.039927930922296 3.356508908801534 2.219619764185989 0.6483766814480187 -0.6935129116650249 -1.1358642685857279
P 3.9357822970672083 3.5070843891852155 4.703624051826618 -0.27704305049677447 0.7332354270656275 -0.25287879454574513
Ni 3.871412374246753 5.113490006176934 10.545211788894408 -1.8436843409020442 1.2883700239283489 -1.8568661296996407
