# total energy = -340862.8726844933 ev
CRYSTAL
PRIMVEC
9.33841956143835 0.00000000000000 0.00000000000000

0.00000000000000 9.33841956143835 0.00000000000000

0.00000000000000 0.00000000000000 13.66772097008241

PRIMCOORD
 96 1
Ni 8.824899623223532 1.682633743252356 7.374911118480272 -0.8282860256145735 0.19386374946411775 -1.7814775283559965
Ni 8.76001628592323 5.648230852912958 8.850395375597925 -0.17050116347877733 0.9584717773037557 -0.9919436838089563
Ni 5.815668710972024 1.4081589231702552 4.6157808180944695 -1.097825054424819 -0.2191433499665129 0.6695738843509242
Ni 7.218999671363889 8.63373284172174 10.942965181622464 0.19442939215960064 -0.25003721133189194 0.03713624273066507
Ni 5.211211506485285 2.2903874097521926 2.18770962185866 -0.28938485989157897 -2.359934344884426 1.758458955973636
Ni 1.2766459641604488 9.296928703609009 8.934520525867033 0.3690556335503451 -1.8814674731880887 -3.6274257255915527
Ni 8.820342474604857 6.598751199839901 12.114671592734785 1.7222218280184727 1.1922950978799467 -1.5126190705525433
Ni 8.511203442079072 5.645709479701806 2.335239837652789 -1.170069710822843 -0.3774376869664532 1.1146336413417253
Ni 1.760114608189114 3.3446015645925695 0.8004117935639289 1.5205833197049425 -0.4406176620590476 -0.9028809274123288
Ni 0.3726066654601202 0.4482002358562347 3.1058938242735485 -0.4157226985895808 -0.605152580652061 -1.294328812614945
Ni 6.40927467223151 3.646400599548113 7.093806954536703 -0.24452348060251436 -0.9813458536884517 0.11456501443278978
Ni 8.375936438510442 7.437985603962054 7.27241636360503 -1.3623969690377762 0.47372164370186803 0.8642989533740728
Ni 0.46396722300330256 9.148429159891482 10.937320107155276 1.1530214970913044 1.1589175508607654 2.452543680981731
Ni 3.3559944361392544 8.442425983930438 0.5046733927344498 1.3200223607263073 -0.5913799523480009 -0.5847475346331478
Ni 0.37381505691761285 6.162478926956274 5.932118799650024 0.13072182669831037 -1.88190173251203 -0.509888066320096
Ni 7.254756478865739 6.057589801372368 10.704189270842551 -1.2947563870706669 -0.88800709562429 -0.9877515001044797
Ni 3.864854242246146 2.645779633073658 5.630348713794313 0.3149215707101028 1.6091861057460157 -1.1447973094092996
Ni 7.968463850749745 3.474956559609106 9.139044048494418 1.1623011226210176 -0.6194597413033525 -0.5796240973636534
Ni 2.5328781437298704 8.81074257956388 3.2110939192201635 -1.142812931989419 1.5654716955772006 -0.06409940158307026
Ni 5.387586231814988 1.5636809582018047 7.03254785776695 0.9698913319946071 -0.244428864006179 0.7912870797927211
Ni 8.410647343050627 1.0069991068567383 12.183515353660454 -0.32774983282302267 1.2485883731550367 1.1332173178811837
Ni 0.4306141246294175 2.78087854509488 2.7871623674422277 0.7775576460217706 1.1497785646739747 0.24495953969866843
Ni 7.455709923794519 0.3155181067499982 8.702196528981876 0.0031668277637558364 -0.10475959830659377 1.4090789464753475
Ni 5.6561404940605335 2.269189197939918 9.412877319170569 -1.5160314386682021 0.2384173677047765 -1.8460019332916273
P 8.456900533846309 1.0685019363702357 5.02100097911987 1.3100575362041116 1.3735007922604217 1.4509385628236109
P 4.059943159854174 4.896254638735251 5.205433826464028 -0.7269087135166513 -2.55041992190493 -1.429446454388106
P 6.9347475262741005 3.7005914467492707 1.578007027250796 -0.002052254543338401 0.14505161305742115 1.5274311958647113
P 7.218373997270751 5.425714997819181 6.593376939532428 1.3227359030027284 1.0833152908444181 0.5685850659406724
P 6.234048572475776 7.978708096722461 7.987101467989805 -0.36392036920630877 -0.6781608546889869 0.2708850013151787
P 3.299618398821765 1.6686541295594155 3.8586712748272443 2.2037326287474563 -0.8572731568755431 -2.59490437747055
P 6.419649656074434 7.0685483980125445 12.39419009308112 0.08252341261621272 -1.1256526181600486 0.10449297490876844
P 6.935093047788221 0.2346016373525637 1.5781573758015353 0.1680123356186526 0.21293233605979453 0.4876683356899473
Ni 2.831165933028403 6.239278087284091 6.296718704401844 -1.2362730461227935 0.7722526888690894 1.0490085471427482
Ni 4.826216493981041 5.44049771557197 12.439743836271187 0.04030692714916284 -0.19041410035262044 0.05018999059082969
Ni 3.0239482610691923 6.152748294045089 11.161033147603385 -0.437311223393634 0.6960271934464464 -1.194345295540756
Ni 1.8066199363059097 4.064948552599275 5.6468048762857626 0.6698533632645561 0.4281439550720691 -0.24358579927959337
Ni 0.06651942836175899 5.535422747762176 0.23823895167013234 2.041299072768162 0.06374973155313537 0.9046310773342162
Ni 7.890926955297183 7.495024669049883 0.3593526469468334 0.3292976369261168 0.3096783200332925 1.868429666167524
Ni 1.846410940945602 6.643118029936868 8.91537209709123 -0.48456861371870097 0.4890086517679255 -0.5407806421338944
Ni 1.2497233013169304 2.375992699480439 11.585129055561008 -0.9720235478462614 0.8197085683582076 0.9313227276927897
Ni 5.077616079971454 4.475278696665943 3.035149695020216 -0.14561571309100727 0.7437684653864675 0.14702030674801778
Ni 8.784856481262723 3.809486754213117 5.965126376509789 0.0900181783313611 -0.1461160497661935 0.6029586583245358
Ni 2.826375323927215 2.8649616724771345 9.745112130310503 0.8403527269711205 0.9865762488494558 -0.7487906011914072
Ni 4.082934348172157 8.195378101334086 7.314677380149721 0.7506780480221071 -0.9209395846862526 2.0544122131113522
Ni 5.038749578842518 9.187911996694254 2.7825015623693177 0.0758053771660888 -0.2731737973493554 -0.003881594442593315
Ni 3.7207157403419804 7.628918924981332 4.564389628999621 1.496381011427126 -0.040626515272110676 0.8541700924701869
Ni 1.9271602526375562 6.904724508222795 1.6162217067125535 -0.18015257052561232 -1.797935931022336 -0.7923746564299451
Ni 2.520261939254812 0.7463853025424609 12.715845408995445 0.8370522018429777 0.18381664964076083 1.0189068426613614
Ni 5.061563337193789 3.582376396823464 0.40228789736502457 -0.43929405815161765 2.662027653481609 -1.0119931462606637
Ni 6.130887054462474 8.907628679807205 13.385468904887292 -1.2954320729814528 1.9774621808178592 -0.19988141641310736
Ni 7.47768322440874 8.999733509368642 3.645413528628043 -1.110425516797649 -2.133405243976803 -0.3022162073282924
Ni 4.422059045072044 6.162040021249147 8.396080342783682 0.5569469674811118 0.18886269670510056 0.6297235851232058
Ni 0.6345250469506861 2.0578234154910113 9.31708007861769 -0.33455374311873354 0.9654484657319051 0.6524763054386893
Ni 3.878376273393359 4.043983801269515 7.478853328347101 -0.09956674125174465 -0.09250674908116971 0.4491205573237361
Ni 6.036372912721492 4.567495587258986 9.28978574668601 -1.2893832956842115 1.4324705859264102 -0.2928180539428441
Ni 2.786173428838298 1.0919507072339454 1.7014534596687774 0.02680580733893448 1.9884461906331883 -0.8453406671040151
P 9.18950886639465 4.0672364653279125 12.198358771138697 0.25189714735876617 0.9591965712849223 -0.6575190100689192
P 4.323968288738946 4.218696287963718 10.592552203472058 0.09293997996384638 1.1509838978359854 -0.9350009478753252
P 5.666244663743741 8.443920131018528 5.004995862280638 0.47273588274983097 0.2957563106355616 -0.5157913191784085
P 3.5913879714485053 5.111477188355289 0.9765138370500557 0.05677972799320544 -0.02327825380165023 -0.5124087758594208
P 0.8500034692595602 1.4639559784911094 0.21496294156348306 -0.6612306545925516 0.820419221271987 -0.06346845286729069
P 3.6412084384170007 7.691140812780972 9.742638383037784 -0.8309743710800142 0.47426106114510586 -0.8363052963746243
P 1.6887597463135242 7.026880371093439 13.079325637273127 0.45596714793192444 -0.6240082799059834 -1.2755669586264096
P 7.489113449632628 1.8143708243253756 10.32794435722293 0.8450740437061897 -1.2467726601025366 1.5133955437072517
Ni 5.510096954619053 6.653427644844688 0.7354313367029024 -0.9893031608623155 -0.1249514998734364 0.7450799851090394
Ni 4.694703534971234 8.067805955269117 11.522654096598323 -0.41053138419662843 0.66610212375224 0.31796421419116855
Ni 5.533471018128359 1.1867169862960425 11.403935705872218 -0.5359793640905091 -1.1111266566297315 1.7777152331000867
Ni 1.8039211331280476 2.0264183113832233 6.9922142909658955 0.6781623973508837 0.7679021252098774 3.08131004439799
Ni 6.9681977442087115 3.808767695926974 4.528020221191654 -0.7216770328040668 0.757809773970882 -0.2116886934606806
Ni 7.048750949095354 4.9214310171695645 13.404644415079066 0.9991414871089761 0.3449350863530576 -0.3634639983951805
Ni 3.472323125366348 0.48227052483240296 6.154533799815355 -1.2982700566508802 0.31583199833951414 -1.7553150110280158
Ni 1.0675494176015785 4.6491507256230955 10.150852441290946 0.08361433168754633 -0.8977304935596411 0.6347182101243197
Ni 8.871909225982558 3.307602747323745 0.5570171005979565 -1.554063196629943 -1.4010172525131355 0.2564068623036616
Ni 1.562588363143639 1.6065909948878845 4.840573379813724 -2.0295023372435503 -0.4523773736981371 -0.23910899445516243
Ni 0.05484173502640695 8.41501772328329 5.0787609701777034 0.28675153603379006 -0.24963766190062814 0.05200621786396205
Ni 7.602958119325772 1.9663162447648102 3.3198752979685433 -0.009579416158318987 1.1014377114767417 -2.3537670397314496
Ni 6.1424853712337715 3.4960053567125713 11.591456768479071 0.6878292310166864 -0.0011973627422108412 -0.2192968448252417
Ni 2.034262583595695 4.728107060809342 12.58034401110237 -0.7066468779438217 0.32248009978365105 0.47642207335216663
Ni 5.16888045179584 6.442519444941509 5.9037580202342195 2.4933897684638158 0.2154167930445451 1.5457932433116668
Ni 6.80716604178983 1.9875611486735874 0.013581797030736505 -0.19040587282250432 -0.6960539329193238 0.40312223621675086
Ni 7.370011249873267 6.39448261605942 4.7637882271148575 2.0088129272149984 0.542921085515665 0.3703062181279945
Ni 2.5059181272091497 4.3299542155106066 2.6521120152013684 -0.217455934961761 0.5125188190747237 1.9979140209143076
Ni 1.6731832629201877 6.823582982920217 3.9518434857147353 -1.4859641869691764 -1.849194729197312 0.5663348364539149
Ni 5.999168650228056 6.764666895552976 3.119411186211112 -1.4980573706882845 0.8846713463828377 -0.8928273998310687
Ni 7.131638758807138 9.364099953637947 6.483174253366503 -0.42042113250651464 0.026227823348277408 -2.178173292221113
Ni 3.600063362978727 3.060713617855503 12.236559442971503 -0.16986738654952038 -1.25243808591843 -0.33575933339106045
Ni 2.748511583799134 0.7155199590702453 10.497547794717798 1.6074436691336125 -1.1904349047427565 -0.9124451740619963
Ni 0.7632392816961141 8.717965383812803 0.4232965392654976 -0.2292886659306309 -0.18578919998609938 0.33823402018379817
P 4.568933703831273 1.5949833396972866 -0.02719254316130475 -0.690131911007934 -2.1951112056270325 -0.4643564004368842
P 3.8770408794333786 7.288804355635586 2.356588398015803 1.7337809936109818 0.005068929882475141 0.21258060914733068
P 1.1524636643015833 7.942138846741463 6.894804305399809 1.2393776531900462 0.32219907820812255 0.6361595705565366
P 9.361765348812806 7.626733734865001 2.386506825770941 -0.6305085429183463 1.1570565863926265 0.5375757620433516
P 9.05476481430685 7.630730578325641 9.924610556896244 -1.2137969765074643 -2.3521971241411683 -1.5737933280690186
P 0.9837277659597394 4.312089819388633 7.790477314248765 0.06403743799688326 -0.6087690943587257 0.16863531391463216
P 3.7761579357294135 1.3705157549696922 8.382700255609837 -1.1821574952253127 -0.05740064940665598 -0.19218096244505614
P 0.4316450861201995 4.732860316233329 3.935100633750759 0.11586779240461335 -0.18297255647291072 0.6723830716649453
