# total energy = -381173.9614035555 ev
CRYSTAL
PRIMVEC
9.21517678512127 0.00000000000000 0.00000000000000
0.00000000000000 9.21517678512127 0.00000000000000
0.00000000000000 0.00000000000000 13.48734270937069
PRIMCOORD
 96 1
Ni 2.5678734587544163 2.167308163408751 5.737110910415509 0.6509567834703692 -0.2747917925687525 0.045470216517657175
Ni 8.987423485580125 2.247424908548514 13.167031327235911 -1.7190758261903232 -0.6294927000593223 0.500236659273261
Ni 6.296241749080694 7.509548757601712 11.245827355499644 0.04395300854218237 -0.27507538524744235 -0.323655608148991
Ni 1.9265524602201793 1.7930706275367811 3.3114396059370557 -0.5145453625864493 0.007372895425303431 -0.23415602132526123
Ni 3.992290947423448 8.515707811901805 6.291871912349007 -0.3121095551826044 -0.8307082619028209 1.392106580287067
Ni 1.292778691300558 0.30507763567943275 12.47146242724219 0.0012194742293978997 0.848279695127681 0.1339696442116467
Ni 4.579758454055594 1.8568396494331647 3.2852869348182785 0.43275034349582886 0.5497149685090468 -0.8754680826170148
Ni 6.912838428865219 2.6954115025471834 9.451026117802149 0.44262337963516674 -1.3527005676856187 -0.1745442231998994
Ni 3.1629527012372005 8.13280801004969 8.822111511490325 -1.1937081761773893 -2.8516202863741986 -0.5101896567209149
Ni 6.533550976230357 1.1392169888610584 1.79973780778852 -1.2455704122643194 -1.6857461016899422 -0.34796127477389105
Ni 6.200579001059543 4.168088870937511 3.028366890400162 -2.009506096627281 0.6881896996798986 0.331545552420029
Ni 5.988841888904456 5.077027812375342 5.424770794077617 0.11893897513076934 0.756446060854136 0.8215890732103722
Ni 5.193710378163204 7.262084405866815 4.526351898217373 -0.2624800650809351 1.3333252484828004 0.4733786585401525
Ni 1.747225124078037 8.799535250400158 2.0223460637486887 -0.09096742961850784 1.5398881906811415 0.8766273930324386
Ni 8.495830676030344 3.934650017949188 7.95653366190672 0.8255994799213459 -0.4985093921695092 1.2087686700549376
Ni 0.20011677449448928 1.4117005449960536 9.491852114580695 -0.07255910231464922 2.1581276864241477 -0.27766011525548306
Ni 4.5240711420151545 4.880643184393574 1.2124011566637332 1.0942285953228124 0.22430406823184595 -0.2037434704716749
Ni 1.5831673355200433 7.283122653986677 6.639373456425027 0.15131224925515233 1.2080225359175325 -0.579783505759653
Ni 6.978054233483818 3.0530801509379835 6.605344573887921 -0.926628921761546 -0.9471108437649818 -0.6222763848165412
Ni 5.0224278911707065 0.5817826642032622 13.091556266536788 -1.1081071530771174 0.3335687534976449 -0.41952124640006455
Ni 4.50723501441332 3.5099040992717154 4.972809694422313 -1.0628845337938921 -0.7321959300575196 -0.7102705907393381
Ni 5.763355733300032 1.0165998493591393 10.762912477730184 -0.4023635036738554 -1.5783796618881203 -1.1454765948645111
Ni 7.6411322639107375 6.575203574347647 13.0049409788766 0.305060618755623 1.9065668393588777 0.841739580016318
Ni 8.588526137194467 8.178192754679703 7.584728011132792 1.3817890004111428 0.8676809824724282 -0.36027660180613436
P 4.591775044308902 5.7096588993997095 12.450138508648516 0.021584668149311214 -0.14965723015023258 -0.5806479106424774
Ni 6.153876486179359 4.727772620197172 8.87364646496624 -0.9995826884114527 0.8844656581299347 -2.5927518499039217
P 6.578834353918048 9.159664350936383 3.65083455918038 -0.0419460054144826 0.37193809730446264 0.8224053984640803
Ni -0.06683306810744537 7.400376560722166 2.4908290534846325 1.1623124354749272 0.2739662113436636 -0.6955803357170149
P 9.560561392638734 5.909360990948341 7.6608241747330466 -0.10643055825111347 -0.3142687676174523 1.4077825962614272
P 1.8571345350835524 2.918427990829608 10.318302324428458 -0.29573805580311646 -0.9089019367954282 0.4625831105865453
P 0.7584541864565985 2.7159429159554414 1.471778888674301 0.9645894601657193 -0.2631069000316565 0.5218552659843013
Ni 1.3897315640421548 0.07649886681656629 5.0841751033266185 -0.7108768568647693 0.11638998345667051 -0.05149713943802744
Ni 2.639705760153594 4.710669252474673 11.163702623384271 0.3888454145827626 0.7560349414586464 -1.4328194846253968
Ni 4.123625643964959 3.4580503006863172 12.543632925621658 0.8518116195403395 -0.26898289919645935 1.1940473046843627
Ni 6.871729526165831 7.190030940229846 6.417911568430741 -0.939351511534537 0.34332763265662164 -0.428675659205823
Ni 5.270998064094559 1.2388054021029973 5.770370325708634 -0.4975436858221302 0.3236666638925845 -1.219306593471784
Ni 8.785518966830159 8.128734902003707 11.561309847049483 0.5752213403102674 -0.25268853291181 0.15440554346849536
Ni 3.695064642185593 5.4565272140714205 3.592758673371798 0.14964720284790356 -0.08916894295718836 0.6330835027343743
Ni 5.865561256689164 4.3855025318625644 10.989499846935276 -0.2823392658987073 0.3640666649761859 1.7596131241827373
Ni 8.289889909940694 5.2924141344539795 6.055884141520145 -0.06535050038135196 -0.03886685226852662 -0.562877988253566
Ni 2.0388301716053725 7.035547720132884 11.49402154921925 1.02667388820129 1.3936114469673675 -0.7018923939779719
Ni 3.0237113831946636 8.079747023333017 13.637725959349766 -0.6841612952467959 -0.3631084148279747 -1.6322972378421825
Ni 7.3522088327666175 6.657071203036589 8.766219622529928 0.9486594191990244 -0.4407171637513894 1.2044013942251772
Ni 4.200793532600843 3.9204494308476954 7.336939285182469 0.3253713052885171 0.14406970876012606 -0.02667622373960567
Ni 3.4404216678990656 9.237845908995475 4.120707197543776 0.4784750992264533 -1.023566967141192 -0.4284573725474298
Ni 4.24181949871106 6.192137899317189 10.264190807582278 0.26150253165901416 0.2830098096031707 -0.3016989013722417
Ni 1.3854004310520827 4.199660065882164 6.61110405924706 -0.1692714048367343 0.09779705094583158 -0.705759847353178
Ni 2.5814750593785583 5.795866876255298 8.153989093406457 0.2249018497168449 -0.666066128307982 2.6024541647933503
Ni 7.3983492218757485 6.344556919861436 3.7389205890218764 -0.5189861719666223 0.28887423880374763 0.8646062002018464
Ni 7.689290776689712 5.33603878035824 1.632656519796393 -0.3041411922651472 0.593087679067727 -0.7100399627857708
Ni 7.027429149570642 2.3096181352506377 4.072813160332495 -0.03386040019287072 -0.9600406644527724 1.0003195665774771
Ni 2.3148800010747466 6.616100527985819 2.074366657030087 0.563969421545532 -0.1830964836452847 -0.19069486481783288
Ni 0.6759737485254451 5.354017589855326 3.468647753747133 0.5728227581711037 -0.1630627049228611 0.31286905905644824
Ni 1.7126497815700557 -0.001063431376711368 10.22832810490682 1.124152122355122 -0.04802280773618181 0.488277687139172
Ni 0.8195452780403969 7.550989406657786 0.06493658476838818 -1.3607483776907598 -1.0705042551226789 1.1492355476863112
Ni 5.434392359939179 8.035578682010854 8.989191877964794 0.21281303687311093 0.07378114764720843 -0.46370514000613045
P 8.011702159506008 1.2175644200984939 11.435337461756742 -0.49670216375744136 -0.8551802789022563 -0.2212351994985351
Ni 0.6181181054369964 4.748884589729631 9.76818116390028 0.2663963694162057 1.1455588701656723 -1.0419184730651863
P 5.304393864000988 2.08057492148841 7.868596917925732 -0.8946294860368141 1.74925723486971 0.2603709891577322
Ni 6.280594379256985 2.3933564447842266 12.435937000029366 1.4537086693695802 0.9822205429839214 1.303732365317032
P 2.1436620203182715 4.000962428580167 4.424887275024841 0.9256526738912059 -1.4561046804055824 0.46493772686165086
P 2.032001725763578 7.225039396036834 4.213216512141091 0.7908389365117089 0.5454212262296995 0.1312980109167545
P 7.797006975670467 5.604900772099408 10.773473070084702 -0.28926556070489534 -0.03617130771423448 0.06813757620818588
Ni 2.7146435760584193 3.6807903336715033 2.0882318117042633 -0.5235421667684209 0.08968033537596813 -0.23137768724917573
Ni 7.0882124542568485 -0.41499441882620797 13.237300734688034 0.4234614619947352 1.7101450993595968 -1.9497649720129067
Ni 2.695448363253482 1.2511629538895654 0.6553354390689219 0.04746230724702149 2.028196473947933 0.02445839015268046
Ni 4.236566848063525 3.1144716572781146 9.692273911419806 0.31116518899146406 0.8899999576846027 0.2771104133996002
Ni 1.7587348796197397 0.3289689024667975 7.340324019538326 -0.3676428123632185 1.1114758124390343 1.2418438553423516
Ni 7.966962477236219 0.16976843348128698 5.659626019705458 -0.2219535657217984 0.6488896165286954 -0.7612329407198181
Ni 0.768601938900572 7.364418941727991 9.331244488132242 -0.19218224799663675 -0.8853151506144237 -0.12775605920176705
Ni 8.76063799007868 0.5083229626210063 1.1475493515198316 1.0846720619826287 -0.7171963713248939 0.525387704617592
Ni 1.7378348591484973 3.28555141038597 12.69265431056284 -0.06573153786985454 -0.6733395220409435 0.548857762715074
Ni 0.4228512783737306 5.620806166867206 12.012178026763037 -0.7616654002715463 -1.0424404070069273 0.7363582889653254
Ni 8.825171871630758 0.6414675198417734 3.5606852513038265 -0.11564564909147826 -0.4691571642596371 -1.165532999294754
Ni 7.394570999480154 4.50882923996073 12.794254396851018 0.4596289130542277 -2.5544794366862846 0.6521765148100832
Ni 8.81425188738983 3.2598042070364763 11.229493455021126 -0.20475828488943446 0.5010198172961888 -1.5246001541738194
Ni 9.421043619298958 2.72022797306264 4.899803379527528 -0.3482926899713808 0.18436095218000506 0.4408158941127827
Ni 7.809189439102117 9.002720678693997 9.744914686084675 -1.415268363115511 -0.07397423749462098 -1.0239302640178816
Ni 3.8288044998130806 0.9295072155523877 8.980034757002594 0.5767619453245099 0.616027832803668 -0.1681779146622394
Ni 4.265069389208831 9.11318300029399 1.6316308706436373 0.772186097297212 0.3109805837844838 2.867020680089669
Ni 9.16290809309065 7.332156608540239 4.815615369377097 0.03218352671108006 0.643302352248905 1.115244792563163
Ni 0.7268700902647394 5.227963189491073 1.1197093815702415 -1.1494551198962848 -1.417545846295778 -0.4011923661838897
Ni 6.603540242314609 0.5320225537356188 7.561974818652393 0.711202101414672 -1.3025424587739889 1.225092861136258
Ni 2.571236998204153 5.476431995472605 13.379160084395421 0.883034582110363 0.963586729932818 -0.2118193055012739
Ni 7.147419963748795 7.777378649566523 1.6590239045293584 -1.4337749065601306 -0.03742806293947103 1.7419527307884966
Ni 3.3538911598633665 1.497549129965231 11.289984638609917 -0.831971959106593 0.44850709210945333 0.7252824907671381
Ni 3.1798164743687587 5.723868701677777 6.0310271242277596 1.6492750033471015 0.1354002060105862 -2.5779024435959155
Ni 4.011781045878773 8.457642984305112 11.335194294885012 0.07289360283593252 -0.24057143793330182 -0.6417239520181915
P 4.972380267193936 6.405008478190955 7.22404968607272 -0.05171568320673674 0.12687699903092342 0.37971337037450736
Ni 2.216839737497344 2.7305674011793664 8.213548622643554 -0.22343323559111844 -0.35484206105412436 0.18804354323791486
P 4.897857134234968 2.4507117037846733 1.04972656610959 -0.686686889882127 0.29902264009165924 -0.21871731817268786
Ni 7.727690417476161 2.968300526451462 1.8077356595376344 2.24460468437147 0.7821519502606723 -0.8843067639545672
P 8.132614491341622 4.360695276523683 4.102296196265339 -1.1686147235438713 -1.8327679510998567 -0.05328148503195985
P 5.514057561426785 6.378468769656044 2.6536750463230634 -0.041030949799380954 -0.5965247297737339 -2.1832612482669815
P 8.70126460740839 1.2835450843727867 7.47046350767811 0.1482302678957189 0.26313286817358555 -0.7252333826967574
Ni 5.141017998509517 7.358567304603106 13.845161427079818 1.2596528584993143 -1.499050073618857 -0.49788024322594254
