# total energy = -381172.1838803138 ev
CRYSTAL
PRIMVEC
9.19107045022265 0.00000000000000 0.00000000000000

0.00000000000000 9.19107045022265 0.00000000000000

0.00000000000000 0.00000000000000 13.45206065153535

PRIMCOORD
 96 1
Ni 5.337649818256091 5.837258025020124 0.5879684006153035 -1.339468642376377 0.010222963279588845 -0.9410450971868761
Ni 3.851812180490164 4.069833562304241 4.486773605138063 1.6271709723592107 -0.7673688784142269 -1.8099661227139925
Ni 0.6932245392492066 4.6143125749371805 11.310452235425153 -0.7569255715937157 -0.5272815792061951 -1.4414918155884142
Ni 2.190259658127401 2.406911570446504 4.7216863361995545 0.01849934435576814 -1.9628076641294776 -0.4000394835263691
Ni 5.079840292524255 3.4453278993844187 12.545915923442026 -0.4509858926672491 1.7752755133103426 0.4059039127269461
Ni 4.955705695214659 6.851511029781604 9.158364931032848 0.37121690286772197 0.154190856354528 1.4283455080144432
Ni 7.618046304150056 8.639771649176064 6.820288963510266 -0.4539462608471537 0.12443522235865022 -0.7730780129838621
Ni 1.7887845104093152 1.7554668800785522 12.999493411248121 -1.331673057591358 1.7060773570481262 0.24754478392734142
Ni 0.41799977325510074 4.332137521479316 0.14439723119296172 -0.7780122170606859 -2.106782242072636 1.9022072768386014
Ni 1.5119402778043736 6.1144055629494565 12.898414614127413 1.2975812581139716 1.2363100700083158 -0.5926151103066826
Ni 8.953729424201866 8.116992753842691 4.300825382717704 -0.9276967009044281 -0.5416571312015768 0.3497394497202364
Ni 9.035355320744626 1.4649003793125541 5.648466085406844 0.6722727713393261 -0.4486731853736724 -0.2449274009091524
Ni 3.0216103612110374 7.227683160589182 0.8372899727994261 0.6544162027738795 0.42371882942118 -0.6558902162162445
Ni 6.645226644914391 1.7556139372055293 6.362623287574206 0.7155395524477612 0.8829417652862406 0.25313153398649957
Ni 5.214397563708358 7.466972679392332 2.2612376995699717 -1.3454225459669669 -2.6342862217022827 1.5973101802440361
Ni 2.201390044425485 5.9037646106955455 9.725341845879205 0.5411511380994357 0.9245843805276915 0.4617665282225209
Ni 2.9972356424145725 7.622853233988122 5.559683102315514 0.8665396697791334 0.26160897532989136 -0.38804528727897036
Ni 0.6115563637824402 7.405796914569833 10.942578722114304 -0.05236231565180015 -1.4292135124416934 3.53452534061639
Ni 0.9041347898668946 7.985532873395546 1.9566152947860875 -1.2322060751422714 -1.407918350508343 0.27442026816194676
Ni 2.8771634982377208 7.764156750872302 8.040135184642166 -0.7530414060479611 -0.13419307307636244 -0.21539519577799032
Ni 1.1341689007409188 2.6755206039407247 7.170660840496744 0.20884428203335 -0.3039398748876185 0.49362455327338217
Ni 5.8367433250757035 9.01271771426058 10.902289664857781 -2.71435140258599 -0.8887779123520435 -2.3110450753828906
Ni 4.807049321981622 6.309697427575126 4.694311652012756 0.06490081443844307 0.4576465925168763 -0.47133334597534954
Ni 0.5712783358104393 2.6225984203698185 9.781060872183808 0.7459911840693991 0.5142070054104241 -0.2537781664315629
P 5.958616919058026 3.032841849283918 3.9422743721501643 0.356720766134076 -0.7479907309979311 0.8549103130703212
Ni 4.61417470888064 1.738334724785713 5.482979023991271 1.3342932688230245 0.6099181203615044 -2.3970289357438785
P 4.18790205312603 -0.06931905322885931 1.4221251375030723 -0.5215220510145986 1.5169441802904584 -0.019827319138572306
Ni 3.370098987865165 3.207233219737959 6.522931180799054 -0.8720634278108401 1.684436638849899 1.8774020448694633
P 4.610672911044495 8.820449711808378 8.663544352858965 0.8829129689308343 2.416265158265671 -0.3351332697712873
P 2.9122090498104654 5.41960659333455 5.683038296852131 0.29183769230744583 -0.025472433239491617 1.2787877795565523
P 6.689775763318035 7.570381412868584 4.7357440784315274 0.4147621344485244 -0.11717699813434013 0.7329058116403506
Ni 0.8114299770204922 4.278231893371751 5.366686247977732 1.1959558345609853 0.4970114674677441 1.507559910862081
Ni 0.5409808912249697 0.5133672392068334 10.881116195894199 1.032882331004847 0.07858679656596788 0.27599249774507306
Ni 8.249766957362196 1.405746649985991 13.089271787267679 0.07319185080264169 -0.02984716526841957 -0.050817082651867324
Ni 7.695885479673155 3.4917887604387654 2.2839313715836784 -1.1383132443468524 -0.21614338679792452 -1.0273822271222242
Ni 0.7464592192149389 8.55204288186375 6.507865178140243 0.48037848689675333 0.7533278269401285 -0.026362549153928792
Ni 5.977780300917238 1.4936776208478972 8.568384605099089 -0.048887726839638386 -2.1547376869059924 0.5125437587753882
Ni 8.06307793466469 3.412240045814557 4.74177066331646 -4.12622153865323 0.005042704630230026 1.4772522610174752
Ni 2.0614927613180245 1.0741971661455454 2.038014171889077 -1.3725206877353395 0.7049792604334116 -0.5336478877438551
Ni 2.959616591119728 8.630314037697344 10.453784728825354 0.24146438206121643 -0.7060267278613196 -0.8121104442959756
Ni 6.593977236162851 1.211677197728319 1.6653521108810352 -1.2792701185096098 0.3964072860904206 -0.4356965706083464
Ni 8.699348167742686 0.7412598306692526 2.5727331868259506 2.134950734087052 0.9915179091254472 0.09908414518837129
Ni 3.1596050927382304 1.6981421737687679 8.3190363788107 1.7403571041666028 0.5234012703151825 1.4222828467601312
Ni 5.222595998537335 8.762748171610713 6.243302972959025 -0.19085735853762614 0.7250729458594932 1.7277391582922759
Ni 5.7928191994617135 8.144906034757044 0.28413183235370376 1.1520856155405965 1.3519022401540397 -2.4160643551087744
Ni 8.28086034864743 5.968350262649827 12.377160517379385 -0.6072734836498058 1.1023314269356048 0.8905761419030469
Ni 5.777258717213443 1.3313081705242393 12.486283339345745 0.919004829557385 -0.15513213722187474 1.3556642782996329
Ni 3.4680666076432622 5.952881691105916 2.726436376835436 -0.26372036524593934 -1.0908067141254567 0.16758861781767267
Ni 1.3729712928109565 0.5195362856835252 8.438464228949984 -2.0550596168873643 -1.1685355335665035 0.6822432522884766
Ni 7.056003155913783 4.0010935465128545 11.776122414603988 1.5497049196612473 -0.06447529686525025 -0.44471600049813736
Ni 3.908447556517243 2.1264828203714936 0.3398968140104868 0.06459331050035326 -1.3360292776775249 1.996083395463472
Ni 5.810245469008507 4.244601766646161 6.235178066693537 -0.3576329935357002 -0.20946520344680056 -0.8901459963441638
Ni 3.877023286696311 5.403356780803574 7.814974179313348 -1.513822346832025 0.18865520867998478 -1.3681274437636501
Ni 3.3954111958461084 9.179636744450093 12.75642728160279 1.4000127225080212 -0.2628256213458119 -0.0665046685904532
Ni 8.931192919492617 5.386408446919456 3.4744121226723266 0.8134708149786118 -0.4555079489073187 -2.282535140868656
Ni 1.1505014329058199 8.73357571404662 -0.2739407734541865 -1.3175828980468791 -0.9155304978555394 -0.567800365255848
P 6.685520297706133 4.289729922487277 0.5222200782508584 0.7886157036081451 -0.6763729095506287 -0.5914884529014072
Ni 7.144228241029643 0.771721795415528 4.346751323472672 -0.6926780744685554 0.4749388039384208 -0.09510407749470072
P 8.289095547758151 7.96097433319036 0.4190144674312431 0.6393657361986602 0.17607094425707098 1.5053608463282333
Ni 7.663073358216376 1.3574016194922496 10.661780491007764 -0.8795381389213304 0.5624311305241346 -0.3137756300311177
P 1.353780337740437 0.27922655806197183 4.275118877815053 0.9313216992515252 0.9556091110439799 0.20818093741773824
P 0.4508835850612812 7.70038910418683 9.04695445163495 -0.19778750999855615 0.3223983387031222 -3.9536321251868554
P 9.36717134562772 2.300396255162859 1.2421501917591173 0.8306974632695436 0.40167444802663077 -0.09873473226875254
Ni 1.5201387126333503 6.361856752299838 4.249075060627398 0.8974186187461771 0.7987016270892373 -1.1112284723149184
Ni 7.186314152556419 8.30224796955217 2.631357510495396 0.6870147055351911 -1.2494422365148998 -0.7558832463721304
Ni 8.310804856128154 1.623961044279226 8.014469120449434 0.5619207665466194 -1.0099252079880414 0.7320362645512039
Ni 1.239948930389678 6.396286502153366 6.557986842549277 -0.40731262014901465 -0.7832079023290125 1.7354552959896112
Ni 5.069187841888848 4.138683870940861 2.335775442592433 -0.0783937067185553 -0.6385326987744036 -1.1693878542644698
Ni 7.240697716326661 8.043454999283675 9.218360562411354 0.4852977785752416 0.8514156696535015 0.5261042710686423
Ni 5.830530161460919 6.651669585290078 6.779098262243963 0.7944749906023995 -0.8044914942981372 0.8565663606165054
Ni 4.665038092673864 2.089424424373249 10.470209171694616 -0.5140005458265728 0.29476103660182784 0.5782680975563912
Ni 7.768632802174669 6.135977005262919 1.3758232819672696 -0.1543654342591793 -0.7365048418455187 0.5043627656264927
Ni 0.6252666835519296 4.806902264854645 8.167230225739221 -0.07605631683463031 -0.5802622451682845 0.6794574620132233
Ni 7.635904554007345 8.482687064353147 12.030460473032116 1.066451425209544 -0.3790680234810246 -1.0268646640558572
Ni 4.124382565342333 1.5854136948703377 2.8919647980679724 1.1701489008002106 1.109077744520503 0.35320246856817233
Ni 7.386082068484456 3.351523834513862 9.429382944088362 -0.783438787392896 0.3657977887346797 0.5655992438394711
Ni 2.511257793107236 3.7354716109103574 2.5954939536538406 -0.3110654301888062 -0.7661326920142806 0.4882154664426689
Ni 2.9609860606147023 4.133978042877592 11.642166239426404 -0.8291332041062174 -0.7882572918274618 -0.26684888357259207
Ni 5.949802682509833 6.538077145770657 11.456958817283192 0.26983881943885146 1.0839943191893138 1.152632489183002
Ni 7.875626053120991 3.8234761103357524 7.249167287733502 0.5826551708804933 0.39134349841426797 -0.9822961334168632
Ni 4.990778819998713 8.855155193774987 3.9895854072198484 -0.04825909211670398 0.5171812575473996 0.6018983353808215
Ni 8.110200552790435 6.380119409256315 7.841529020017249 0.1676665222434596 0.32393637261420344 -0.17952573557489082
Ni 6.735050976286129 5.250895304410003 3.7145711167387283 -1.415032335845305 0.7527760682017165 0.6564016086350244
Ni 8.30348876406104 6.048744555754154 5.59292260854757 -1.2357755376610846 0.16239756053503643 -0.5327287183636955
Ni 4.813961006949549 3.4381956287260267 8.359217900543122 0.8297101596556098 0.09963898925057679 0.736971239958976
Ni 3.1088060464380574 4.272064685109146 0.5568308921919769 0.033941132832135096 1.3840921946230227 -0.9412633838452693
Ni 4.852903572387188 4.8082073968565675 10.608201145900678 0.33021577786501194 -0.5472536514527478 -1.4386718296411158
Ni 8.060991561675701 5.673022787397944 10.065598949850786 -0.20772688059945513 0.01963165818799845 0.1409818138634217
P 3.559214453157794 6.951160615449504 11.930000234951757 0.18078429057234027 -0.016008459613114364 0.0936622028418516
Ni 2.8775311410551634 8.274987254638779 3.15289377310581 0.3296573342583807 0.19020635521718857 0.5199238532895433
P 6.282997367958336 5.1964198299354 8.670660079590572 0.46041772750411025 -0.39032894110682453 -0.5004775716394735
Ni 0.4590526084648624 3.0343583759058697 3.4001565455122527 1.2693415465419882 -1.3746040526269294 -2.051886104255389
P 1.443632242323482 5.619549139600873 1.8266416104284546 -0.10031493227167886 0.2813527336157219 -0.11782260213813903
P 2.4286944073799956 3.9045137783706045 9.000168226687167 0.5458436584790987 -0.8730355619161223 -0.1620679451097596
P 2.5761191771745997 1.4957180384847053 11.013256215553616 -0.1732095635488759 0.5863341623939772 -0.2911514648736986
Ni 2.956785741425417 0.5528511586931575 6.275736422313837 -1.810576759714798 0.2992499256111169 0.3109738989162645
