# total energy = -340857.96776561154 ev
CRYSTAL
PRIMVEC
9.39353440585698 0.00000000000000 0.00000000000000
0.00000000000000 9.39353440585698 0.00000000000000
0.00000000000000 0.00000000000000 13.74838711598100
PRIMCOORD
 96 1
Ni 4.274142586957944 0.1682654381471992 0.4948579552948521 -1.445904342833813 0.02388349148581693 0.8110714615085001
Ni 2.777048079384638 1.6491100709681845 2.1298730282482055 0.245456533939745 -1.0124430893138885 -0.5302062090521578
Ni 7.4355459037786735 0.18376476951972284 2.2067262280205098 -0.2635118487795591 2.079041324513942 -0.33630877813662724
Ni 0.883468463707763 6.540539362055837 3.693985705322887 -1.1528572035992983 -0.05794469483558408 -0.7289062035626543
Ni 4.803937913873297 2.245449193909573 10.034383610395452 1.5243528140497038 0.30616285068086624 1.5518188806804563
Ni 6.300177609837573 0.5424869309259089 8.618094162417734 3.4390589946862646 -0.805299334911413 0.6803352366324864
Ni 2.9104080839274977 7.601905393843761 12.906243448169358 0.15983159958007312 0.6090580863540543 -0.8038944841440865
Ni 1.2660417477127217 7.39095479709663 1.369550979385517 0.6305833620203398 0.15558825092268688 0.019841717316275504
Ni 6.359328694475622 6.243816404846578 2.2267025177761512 -1.3222396800926002 2.452979225857253 -1.9045572651280165
Ni 4.5454372471820985 7.2521371492038105 5.625345176058643 1.8083854084904338 -1.1724927184420386 0.15030823347067018
Ni 6.527472956032091 0.27713931718172086 11.183116085393333 1.1609510363510265 2.373712372505125 -1.690564863234824
Ni 8.28240118937087 0.202098130149877 4.339127995665978 -0.3228500815285601 -2.324846757152674 2.956880478466295
Ni 2.8761874389637985 3.3378420690450388 9.17924792443666 -0.4781267147480991 0.2749098062038556 -0.3308148449015916
Ni 7.501112772251531 3.030297760477509 4.558084701582078 -0.7143038802684473 -0.15725278310930335 1.0187569473470584
Ni 4.03543409675275 5.764896458969763 8.998525720633035 -0.039243775991971125 0.022054151586562015 0.28806485552857486
Ni 0.9859171653733111 0.6572608887695713 5.946177578056216 1.241692931586784 -0.7017610106064301 -0.17910921686276252
Ni 7.601961755048751 5.225604269013426 3.6595734322622184 0.8989713079452777 0.2190194227941389 0.8015709782172324
Ni 6.746004134850509 0.6193532816460446 13.927803439578975 0.30210333589951194 -0.5478108095077985 -1.7773246825298876
Ni 8.436116982449644 6.1860085955941475 0.7657346032486568 0.3306181555097532 -0.5064114206254052 -0.4423271885509866
Ni 6.557889219658898 3.8993217866994967 1.3163366083398527 1.7173447024318296 1.9591374143667422 -1.2897545629807015
Ni 6.852179251519379 5.994765633525536 12.519129329748957 -1.4578872262273022 -1.0960386519483576 0.6883547645028532
Ni 8.542752382292607 3.7763416374091454 11.060989808358594 3.2203421907342085 1.1828041276703758 1.1557772054595707
Ni 4.512982586641451 7.817590331810133 7.8513046652823295 0.17537674640352377 1.1038324369611634 1.756785682036271
Ni 1.1047547660968242 5.914676361233333 8.29143213311726 0.29645822179859266 -0.9787405548551209 -1.3159404773474497
P 4.611351676419067 6.602715164695069 11.899476394363043 -0.2531916978004736 -2.173918373599501 -1.4509146515642108
P 6.096976678776706 2.4727163595015953 7.1471954035708265 -0.05959200063101995 -2.2978105789704877 -0.6988230110240288
P 8.758249449575676 4.84909263260525 8.722539929446798 -0.23793580008266763 -0.21559137094919648 -0.3559306661326128
P 8.31617094469464 0.10186536319389142 9.947562931520489 0.7747240332277173 -0.18919745433669996 -0.7080352736509161
P 0.4566741782668695 7.932811421880057 5.420754941294747 -0.6057351926284084 -0.27524764915924854 -0.2618180060169039
P 3.03600902924993 8.635222332614498 2.2627229638858966 0.10197663624481793 0.10361879983393123 -0.5840487087939104
P 8.662970832538399 6.005934545647918 11.41606915721553 0.21647274511288525 0.429047697833261 -0.8258892432476228
P 3.491961784092915 3.155128435998398 3.329790870912075 0.9021283655170205 -3.6130018368567387 -1.5798079096942146
Ni 1.0592243059982653 9.316018721234892 12.72532773756193 -0.5358384676372707 1.402084003214753 0.9455049327304426
Ni 5.290823576722174 2.2450264848721404 1.064444292933848 -2.4568934733099947 -1.0366680232995242 -0.3429998170035577
Ni 6.634549851980816 8.456397622712236 6.668256670625682 -0.7637657344440008 -0.7978498206119033 -0.9532812342417518
Ni 8.26541767960025 0.5389671736742213 6.930864190453891 -0.4969209646364668 1.0556990717890464 0.16875512732194806
Ni 0.3474480417011541 8.118427656983735 7.621294587714078 0.0611086943858625 0.28752106720996284 -0.6108660860970706
Ni 3.4306313995285467 4.5776101016977915 4.601763696096683 -0.2610952689182664 2.5580273019385427 2.8523216833165974
Ni 0.8612377257524815 3.330364815849567 0.01877955350299955 1.1715383249485694 -0.8387966953379103 -2.233728403778598
Ni 0.0605450851081599 2.8694898491040353 6.182071765425526 -1.4618626659352822 -0.5650377149090463 0.8139338706579596
Ni 6.08931155489793 7.323819208418191 10.17012205778893 -0.9151139791434112 0.09179763882928706 0.4526385977793237
Ni 7.8988537958729825 8.042311849643395 12.062642082811976 1.3663878353647243 0.45524312528170624 0.36506348167181646
Ni 4.058373107184085 6.6725466976789125 0.8169509695773907 0.5790304296437124 0.5196348612942148 1.0702096067003954
Ni 1.3440550489544238 9.012635748302532 3.524839153670995 -0.9423669013220932 0.430605272128368 -0.04826063477860076
Ni 0.7216648377127813 0.9851468955717675 1.2019553002242942 -0.6526773657059017 0.8407648748078747 0.3027484256826786
Ni 0.7341432084977877 6.933104548352282 12.633818745785133 -0.7439944653543444 -1.139144481998896 0.9085625511781384
Ni 2.9073457917896532 2.655439386082401 13.000034129394871 0.6276070530008352 -1.728001153704411 -0.44802295338418324
Ni 5.366037604782656 8.399632495752138 12.534747959005378 -0.2982312545386154 -0.5100600731215861 -0.01986974234073352
Ni 3.9043473274778604 6.551651912973227 3.5430278538750057 -1.6177213969105366 1.3037112822711097 -2.947838422868684
Ni 0.7812931138864211 5.041105864475405 5.651493957114215 -1.8850325648315276 -0.7950141509353211 1.2534868388979186
Ni 8.62859049749389 1.7761858011545482 12.664230312644857 -0.49059785063191635 0.0032061656421235106 0.03526602229114572
Ni 4.242129422523059 2.5195713079174427 5.607513430152909 0.6202331291342673 -0.6589107482101233 0.622536066235831
Ni 6.147448137846141 1.739588592047062 3.1714093094134634 -1.0311159831330436 1.5073475377409589 0.1630123113008999
Ni 1.6100611494435904 4.222910251621129 2.799679921248772 -0.7014776750380565 -0.054308383634577434 -0.2627520877953991
Ni 8.32773438525196 7.754550324027705 2.5634691717780957 1.6519008710057226 -2.800385913679255 1.26758548308283
Ni 5.220099657992639 4.376644831768234 3.0187606218158525 1.2695297512933943 -1.3755180798007665 1.8606145409984796
P 5.8808690317729 7.902028810420808 0.7432859353007436 1.2587748267697354 -0.28220479720337205 1.3393902237299578
P 6.113546873044058 0.18069496255454662 4.547375133280372 -0.29583035840660665 -0.7996652765540873 1.412442977851574
P 2.220471786564397 2.4628625421623362 7.018249420732179 -0.4920698071917526 -1.0021537915727385 0.5781675674227849
P 8.156311780271848 3.994778880885912 13.536084610710809 -0.9674539261977079 0.5614075743556266 -1.680971563119434
P 5.668838178596777 5.9643869440353905 4.423584321991568 2.484161822107644 -0.39659703350372344 -0.3822122255369611
P 2.888229949763541 4.680938977514616 6.750237800698749 0.26534324556134303 0.5010959219497628 1.2495435379794544
P 6.46477111547961 6.245328763847169 8.23269906074956 -0.8776272950518628 0.8152854995898474 -1.3126486939700555
P 3.570717174533665 8.877406430460804 6.168433293171122 -2.1054288133685355 2.372310607061592 1.82869198125827
Ni 1.6756468049847784 8.165085341182113 10.882961670153538 0.4050369367409605 0.6172401079442145 -1.7661452688743002
Ni 8.429175160701584 7.212797028120095 9.46141935787066 0.0904084717912443 -0.24480064552330097 0.309109592014016
Ni 3.687196998181722 0.35345144938611156 4.243439820539099 0.13091517365603905 0.8028290189940496 0.2011955072388406
Ni 5.161690662553639 1.811909411584674 12.345639207899094 -0.308845539719352 0.6173460373944594 0.8012048531270654
Ni 7.830384325343089 6.321942428498263 6.1238205813605 0.17371041444469437 0.9312936742270671 0.001571972472810196
Ni 2.7064932442700775 5.032745619068407 12.671035928147521 0.8744676663769585 0.40811608988691644 1.1049783776401487
Ni 7.407741042649782 4.133380477492934 6.935689648954536 1.799753700957365 0.5091663576627231 -0.6129376239141185
Ni -0.1579391260394324 1.8401557688193275 3.4502122214958355 1.7780111670739507 1.6386028683452363 -1.36752709117549
Ni 0.6902049524402244 1.5451142542256335 10.550800665952776 0.28306457410050606 -0.06610151961476357 1.1088545727661032
Ni 5.200119610823332 8.68579712055975 2.754434085235418 0.3107854370545422 -0.6798269295375001 -0.46837734867081915
Ni 0.21337412856174207 1.7742883072531845 8.37291916329324 0.7616396892399335 0.05614929349805814 -0.8149450855312933
Ni 4.868518461258812 4.383455144037979 11.117027875774308 -0.6183302556845995 0.5769596631576128 1.3713732043944575
Ni 4.375827594295864 1.1780619067217784 8.277779570561608 -3.452842935844234 0.44018828783111286 -3.455091622669095
Ni 2.0933866628438684 5.7232361349472525 10.582174130711014 -0.5030419899325401 -0.09010302473568353 -0.33439896270842406
Ni 3.5055166538932494 4.57782615298359 1.6369792609472895 0.03352101457558098 -0.2830074956103255 -2.595087182905318
Ni 5.354361441815355 4.7282542091045565 6.1519354291168415 -0.9862312068052114 0.6330953298089161 -1.0672327834602586
Ni 2.3330438999997445 6.4228101983638135 5.401466258239996 1.6201541747217452 3.2432378643854602 1.4584760088512365
Ni 1.8510616619850853 2.688213426784665 4.766922692495461 0.5002335739494674 -0.9194342037853198 -0.6216040413398649
Ni 5.265357705600408 3.9885227871319118 8.281684462714068 -0.4133454566066559 -0.11808793998438372 1.745516279770039
Ni 2.2250934053736584 0.18680075976190444 8.430070364507525 -0.031392912488984646 -0.6979827745109205 -0.13268486396195214
Ni 8.930583227369807 3.5902745126655407 1.6380379122477036 -1.0040520370367159 0.0399657417596602 4.07085463184715
Ni 6.814858740281175 4.912095066251017 9.908132632508789 -0.24419463650818587 2.304635829422437 1.089221114805892
Ni 4.259103538759513 9.097393607074823 10.382080580751982 -0.6311281787802162 0.12360732714071615 -0.6742219246458969
Ni 7.5874111706269085 3.106592044966986 8.969598332171406 0.03156800461426821 -3.7953879246985607 -0.22596500087403665
P 9.311199838208163 4.066066411665355 3.9998185119655236 -0.060070997149967505 -1.2588766424549223 0.25137778452018644
P 4.652720800882458 4.022348903660673 13.49162219544683 0.6747027209370573 -0.7671819592144014 -0.350580457564293
P 6.929196838139573 2.627841182705144 11.17126520269056 -2.8814057451667474 -2.046171056148483 -0.32654244277848277
P 2.47128854230849 7.278147845307155 9.062289969899597 0.7443947861165567 2.285410919754554 -0.36797962687734687
P 1.8395076149619312 3.5716941020868425 11.13835213768265 -0.3673463641687222 -0.8518170188569781 0.11796067037790009
P 3.2141574046923003 0.3058234131084712 12.222838475111296 0.1393584193273858 0.7065682021870864 -0.0945525758666049
P 1.5118517497467814 5.197940310897013 0.7372947392102008 -0.5532121830290279 1.6649232514073198 0.7660586442432356
P 8.915487817966385 8.74178258418414 0.6713126765272429 -0.4522344203623695 -0.8750235388804286 -1.4534929538143484
