# total energy = -340855.98434838624 ev
CRYSTAL
PRIMVEC
9.41914752688110 0.00000000000000 0.00000000000000

0.00000000000000 9.41914752688110 0.00000000000000

0.00000000000000 0.00000000000000 13.78587450760909

PRIMCOORD
 96 1
Ni 5.996097367033943 3.9720921353402083 8.052576993220052 0.7243990597209201 0.00758089767105146 -0.1909136656968583
Ni 1.5263257404985584 0.9931925784882593 10.294022300737387 0.3148292681066126 0.7178319480263637 1.227194995080925
Ni 0.762110751484654 5.445934386523713 13.671879264880872 0.29795640361067394 1.0892823070611306 0.8406607451298426
Ni 1.8926081254580909 8.194799525562981 8.743801125198742 2.103827016099054 -1.0452997308325933 -0.7612393684777212
Ni 0.39221989115602657 1.1392176206367313 13.209858781914146 -0.02595682907507788 -2.030461872943342 2.2929072281316
Ni 2.66624979719032 6.434398553016969 1.5708999717414929 0.040482790605394794 0.7357219409329071 -0.34309057694515105
Ni 7.682671062255585 5.8662167435297645 1.2666822328327063 0.23683408237805662 0.5310153352170146 1.0046691017954246
Ni 9.308481837597215 2.4015811743863518 4.549958712184509 -0.6744438108487159 0.2881080500616845 0.5246554544372577
Ni 8.693590476151405 9.410896227281814 4.241899844965837 1.1895954395605965 0.30834160349973994 -2.2256284003792826
Ni 8.970918433061517 7.383057402596115 7.527970043436599 0.4797593652555157 1.2743369428740505 0.04330046255984801
Ni 6.389026519989219 3.664604068454001 4.643536999692788 0.8634198932032291 -0.39694336109954864 0.5361925085425797
Ni 3.278984173881438 9.136733103898239 7.1566606595094715 1.4637146315423566 -1.167830279969363 0.40045497379723294
Ni 1.8756065644003606 5.736128898782777 8.68574903594057 -0.6608010232543007 -0.7990744370476238 0.7295235254316791
Ni 6.274809938611914 8.018576696848811 4.10670211275413 -0.17226571157836784 0.9666149752361805 1.1248339789134951
Ni 4.844879752609096 0.5450738151697919 5.422866894540122 0.45900619186856434 -1.4258353399980799 -0.9755999523436102
Ni 7.089340129209299 4.064776545760189 11.09572643831964 0.027611076849049225 0.10938861243817291 -0.291370265752724
Ni 8.582482213416233 4.02101518693791 2.53657356918473 -1.0146267272287688 2.1091988219339286 4.32892062702079
Ni 6.237142768157696 1.6560556576443304 11.865350843685599 -0.5905697977418797 0.3257130048986519 0.7459492750878701
Ni 4.961573569752708 5.653014342121606 10.041493075103059 1.7546848336431844 -2.0051771302346237 1.3859048223517292
Ni 2.3394430589858835 9.322403337455013 1.3412771706702102 -0.5019050481146194 0.10832520417066507 1.877780768365121
Ni 4.689275437554413 4.2272850958593695 12.303451401828994 1.3712580189728318 1.1273960832137166 0.7802105102635853
Ni 5.689532376592975 0.5034515447221442 9.862483120673112 -0.48865589641419704 0.7853599156750087 0.6993508585030407
Ni 8.459439890924747 2.686595155575194 12.65533567807227 -5.174931323608636 3.862495002759703 2.3530533014938766
Ni 6.049127166898221 2.90884935763514 0.32269998993786053 0.6650412865878933 0.059613597897574755 -1.2534922382145575
P 5.28755142298591 7.533490605727977 6.319334248373627 -0.683393820953152 -1.027721355629198 -0.47233427643603815
P 3.265081512318441 3.839837886691128 7.931551310186994 -0.4523406069229307 -0.3424300605430167 0.4237201149727606
P 6.221083121840006 8.251031835543396 11.089991119467536 -0.7308692408262961 0.9525785517477723 -1.410833210162293
P 0.6541908701445186 0.8587512038128048 2.3691435145688384 -1.2368248048612054 0.8494444048597435 0.19114172254726436
P 3.0830659079530234 6.538593161560245 10.46291326511508 -0.5918535495503098 1.1616843149726253 -0.8103734070002108
P 0.6595805062870301 2.689458576384917 11.666061464902576 3.4371358095216227 0.15745770003125786 -3.1743898923738105
P 3.5483246937960065 0.8197361533655891 9.211458967884608 0.8448763258730869 -1.005241943579759 0.22807124858376204
P 0.21515404874952124 9.081913666027884 9.317031597692562 -3.0708515680688273 0.6820015685913158 -0.3404698514928523
Ni 2.6265669291924154 6.747227276479205 6.679903920434813 0.7928832206352474 0.05640280426976093 -0.7266377192434518
Ni 3.9783558683614775 6.4029951155840195 8.357824244939703 1.45771470520518 1.5881650234096583 -1.110889600918261
Ni 4.326440460543428 4.919667782968308 6.44489619279472 0.7957859961043392 -0.058711912018911794 -0.5964817923509405
Ni 7.780686710104193 7.757920630837416 9.818727413339271 0.9125225642671511 0.0863283881845997 -0.10129529390707714
Ni 1.9929973984516027 1.5594999776427831 7.953911424200815 -0.2638394073223069 1.412224948303497 -0.23175049720756216
Ni 3.882619654183765 4.332383942553084 1.0569432519236774 1.9049460159260032 -0.9073243078956632 -3.3828374531893743
Ni 2.3806800863048543 0.9143467794289528 5.563868705379957 0.03740003791501301 1.8669250565975395 -1.7073361691558917
Ni 5.598769472242677 8.66248845143527 12.921306968961714 -1.3770594561459573 0.877951768270817 2.759050545265577
Ni 2.7401806851360955 3.1790941157001473 12.030891417332967 -0.8304493518144795 -1.2934885761018369 0.5230330883424863
Ni 5.935551087544142 0.43781892563612507 1.769030795394263 0.9569738526019906 -2.2842207561011953 -0.053089423625811795
Ni 8.34985753006844 0.8440789979071947 11.372147331335093 0.8392489523839803 -0.14767002451687472 -2.6899045823975354
Ni 0.21747963624268113 0.595460602273516 6.5627382040064415 0.26764052623595197 0.2863465872858875 -0.007869889666379994
Ni 7.983471534487504 8.341596937798286 12.442523229366488 0.6247585278084465 -1.6600013886256701 1.1864065003096533
Ni 2.219056936061312 4.250145366600151 2.4591660739334658 -2.6743697199867293 -0.24908898848600974 1.6814906688476976
Ni 5.003809026696122 6.358649769622915 0.3280236920485692 -0.09098491312000459 0.5957621405760966 -1.559915798755978
Ni 4.276443626142081 2.7116406685128696 4.508353396202182 -1.3371129976600067 -0.007907684882850896 0.09564478048951915
Ni 9.23498423043186 5.033978555819619 7.921804376457056 -2.4259314777108414 0.4649724367543283 0.6231382185962042
Ni 1.2313745588022897 3.7931283347325215 6.751369817505903 1.0746547869559429 -1.0253114606361244 -0.5535191727464854
Ni 1.9221842482953613 3.4680358813549583 9.798599637259347 0.6811225084204722 -0.3379823091843082 -0.8582028677786638
Ni 1.5693335675288056 8.18429717621153 5.344246213103684 -2.074286069217144 0.6166346131497316 0.6710440411385477
Ni 7.879606596103242 2.1731197541895395 1.9277613254711405 -0.5264290013979127 -2.886014190473036 0.09926335107871292
Ni 2.485044239501337 0.9449288672085864 13.011411474908723 2.406978590757422 -1.156733141614937 -1.471407372200924
Ni 2.4637946429660245 5.004958162678972 4.922907969674048 0.3150940917322251 -1.4811464538655588 0.413181677335282
Ni 1.3402975793405683 6.467732915667001 3.6474527429526042 0.43478717142019957 1.1885819106944175 2.0793143756696706
P 7.7915093104672595 3.165163196694949 6.3403304698438685 1.3223376391230452 3.88279283377679 1.2657836539874008
P 2.925653116597462 5.612700391247875 13.267401295297958 1.4692214202931988 -0.6643031228702881 -0.24593501623806033
P 7.051305612006466 6.162693827104898 3.4976138880217085 0.0831240223146891 -1.64186611247754 0.3843889214733057
P 5.906069156180876 1.9361057481531592 3.244960329641697 0.31945262581123696 -0.06740815424132907 0.7830459228298514
P 0.5574891933582651 7.571148357034794 13.048426840362833 -2.0112999553029103 0.12882255279306845 -0.0051532620661653185
P 7.6322974619582205 8.045487200971769 1.201928420199145 -0.15603253754895707 1.595358455834304 -0.6580964798389441
P 0.7368203407145677 6.157918319372893 6.018733462066596 0.19947003990730164 -2.031488257325327 0.6246471990415629
P 7.295270948824344 4.920204674370131 13.20390399692761 -1.4756823454271941 -1.512982367429233 -0.43538572423614696
Ni 1.1794091225942576 7.941914256156919 10.969557900805961 -0.315785718482611 -0.6548031537996529 1.1342120776942852
Ni 8.605728669200431 7.098862887231109 5.062351853533857 -1.6883202901750214 -0.11833605143944781 -1.1723839607783164
Ni 8.775659507451131 5.803372192074265 11.900738580468918 -0.206380908094522 1.0481174027870466 -0.7576480515820371
Ni 5.609997095943959 9.005034584945781 7.878240819730184 -0.4673579062673692 -0.7402733077490153 -1.9601856531255981
Ni 6.199079993512662 3.9985411012405443 2.391408495193915 -0.3564793395472312 1.2001325916464944 -0.7531884731487868
Ni 0.33747486455013515 3.5014832737737946 0.8958843086094198 -0.3858673057910451 -1.2224867909719783 -1.8654811250621617
Ni 4.937140301396059 6.427126971223856 2.62642940964037 1.61604092388432 -0.2082117906556737 -0.9383770634364097
Ni 7.501992976821024 0.8164074266742861 0.08237421167549812 0.11920354164606567 -0.9192771093821651 -0.6815655094951617
Ni 3.453040598693514 8.882190064549706 11.17859327140418 0.6893945186212772 -0.2595209824526111 -0.7445364539007435
Ni 2.5440646171122716 7.870027323197031 13.309930629640265 1.9738418104564521 -0.036916156300059004 -0.5901728194137771
Ni 9.277398651175881 2.908887034224742 8.886553955540313 -1.2619529673874008 -1.222773211864146 -0.2506247084042458
Ni 3.8364658319217826 6.940008966323285 4.382280933991987 -0.9374892615148177 1.3462782090990428 2.2822888291858052
Ni 7.8227337840996 0.2217304974644837 8.180662327229713 0.14972047928800022 0.9048403651315449 0.42406335724479227
Ni 6.081962314736031 6.339057943030073 11.887683642171957 0.9556916434554573 -0.6957443720987051 0.9644930437971713
Ni 1.7412612650283903 5.155071114799219 11.468868788330887 -0.24723368044482583 1.1227719541781438 -0.3863185343958508
Ni 4.4849929687344385 2.0826959391456557 6.992526364568981 -0.5999070159824056 1.107586504686957 1.220758238316646
Ni 7.229666587180526 1.483129530520303 5.527295097938927 -1.9589083290750715 -1.7162625251112442 -1.287850918200085
Ni 6.869101624693039 5.370100830803056 6.080977071917949 0.3484736956339353 0.05718801917521764 -0.7138223126463383
Ni 6.698031069606892 6.484112812996305 7.983564784046767 -0.6575040976705837 0.47242297949510254 1.3975300652954834
Ni 1.9124448498833428 2.2613394887417284 3.5589334795130827 0.5159412144927114 -0.7979346670162257 -0.25942713718722415
Ni 0.4257021344202446 7.697421447084618 1.9366944448656844 -1.1188600207182473 1.4146304724211958 -1.4331326449904416
Ni 2.205333238298923 2.491336229964807 0.9705225745249656 -0.4514463772434354 -1.42253661464215 -0.3508277976884087
Ni 4.223112413560989 1.8775940045018458 1.4990488315417267 0.5418504781593055 -0.062365963831731305 0.41938600637378093
Ni 5.1398686108949665 3.0932762637350617 10.173589082075814 -1.110177919563217 -0.4482803208106279 -0.721057654052513
P 7.007911599932802 2.237980003188725 9.239458325447051 0.25081394159691645 0.38635427272979267 0.4449998502871433
P 4.158958600616835 4.411730840254092 3.0816671645640628 0.988860159787626 0.6888936677254588 2.9056281080492217
P 0.5571350334160099 5.458028571785832 2.092833767492711 -1.0524401985321166 1.0199321986020822 -1.3852913571374463
P 7.761820157861184 8.968733190864624 6.041094517995155 -0.20001511377749423 -2.1469415879003413 1.4762600723075348
P 2.6421838755822864 8.794469544809738 3.7432096792545972 1.098461145346921 0.42645551162605266 -0.7548357789442226
P 8.091217161600731 5.60348846509028 9.854515463887108 -0.19101265316856783 -0.4918605193944239 -1.8417359589264217
P 4.335247363362806 1.9474464016232462 12.883023786267508 1.1388971418747804 0.7325594840445255 0.5942282204300734
P 4.282217563498529 8.403226419239134 1.3582740221542404 0.9631663545659478 -0.9607348623063195 -0.69786990308214
