# total energy = -381176.63112929766 ev
CRYSTAL
PRIMVEC
9.14221477903761 0.00000000000000 0.00000000000000
0.00000000000000 9.14221477903761 0.00000000000000
0.00000000000000 0.00000000000000 13.38055543836441
PRIMCOORD
 96 1
Ni 8.35899200568207 0.8889578719035548 12.571794010821952 -1.0587581703303446 0.7015882324739917 -0.28162115678576016
Ni 2.4599231304540186 0.34647439458766033 5.03935786230565 0.5529468451827833 -1.274369852994515 0.9860414593919083
Ni 8.552048153068831 1.5874267303023506 5.494658437773538 0.7427886179717015 -0.8447117752707645 0.2622674348494967
Ni 2.3007845995281615 1.7246696570708326 2.4976676779797544 0.6539186943121706 -0.17646869391612188 -0.7322977457427066
Ni 6.654764340634576 7.243157277406458 11.792912060545312 0.691499480779422 -0.28429150452907165 1.4129039766483924
Ni 1.6867751772243524 8.450514716838432 1.679728358149403 -1.5496498980535958 0.23829086942924124 -0.351896091051923
Ni 0.9746697914096316 4.700094846657171 3.8624046862332513 1.780481225880998 -0.10219466579289496 -1.0213640459526023
Ni 6.618378326210212 7.21023616234562 1.0152045428555478 0.09831898488757261 -1.2256183946224246 -0.39493455819963597
Ni 3.574605939680017 -0.19520091095056738 2.8858918243442355 0.3591774552046846 0.15330922508052308 1.583199451874267
Ni 5.335186216011881 4.330173414081027 5.1386413995034275 -1.0163341968381787 0.51235503980335 -2.0527517946897937
Ni 0.2644093045172315 2.550138504911211 8.620422776656726 0.9211468156010522 0.6273913374456033 0.5546049496114964
Ni 3.543824102854179 4.877042411778672 0.7696921960808192 1.0844918276510225 -0.5062707812824829 -2.0589057301063316
Ni 1.5040954434988125 9.140605649704945 12.314660080746657 0.18115478653788156 -0.2619046521934393 -0.4483895926949826
Ni 2.8329437738065097 3.8649352512565343 5.264405361520343 0.5487243224610034 1.3381599508672826 2.0335417974202463
Ni 0.7979151270178682 2.282719583321492 11.295128527683307 -0.342862520094745 0.865461092002974 -0.9513634483937486
Ni 8.842276900283874 0.26691427133941137 8.055843480681975 -0.828634667203244 0.3876215694779905 0.04868512391052906
Ni 4.427684275852451 2.6765936183578964 1.134193209573495 0.6385812926241518 -0.04539591163629601 0.8795453380101821
Ni 4.486377294094767 1.0136430525882911 6.9813580751802204 -0.5484062769999523 -0.029759233540303586 -0.5992259307549809
Ni 3.503086394242378 1.6700449243608886 9.051116167093303 -0.0946145394527919 -0.10779684247102081 0.0038767093465868715
Ni 5.472438284995041 3.141667221318158 7.498449965445303 -2.371882775495554 0.5987214803147366 0.3275009500370102
Ni 5.470591557629785 5.163367433325573 2.3078780438979765 0.14609548094090324 -1.1748501629306218 0.4096978325517396
Ni 6.877624107876468 3.0100284721482025 11.946052384419955 0.6782904382883157 -1.300888982330966 -0.3051719475225067
Ni 7.280686068665759 0.891633798140241 3.5796195302102483 -1.4432409370690369 0.39774143152081176 0.36987273013500166
Ni 7.999245858044198 4.479959459389766 2.1299166071685205 -0.10249137109770737 -0.4627198932747257 -0.6886075039436076
P 3.8590202383589047 6.008373193936018 4.44911454128264 0.08818163934325458 -0.09079645125828234 0.27632854092825315
Ni 2.7297830233631606 3.916744181845196 8.14315163087109 -1.0181545378763692 -2.3544162432796742 -2.346173286544592
P 7.529171463654256 7.951587492920025 3.0075609884062087 -0.27971159846787313 -0.865538996428761 0.2124939629707953
Ni 6.939571754544682 9.238573622210343 6.069687285126943 0.4057468183237915 -1.4619374850372757 1.6287349744122208
P 6.27003252027766 6.025633695250893 8.375183782100914 -0.12382355691658029 -0.1725991836583866 -0.03515469352426204
P 5.904645626182542 1.2365119620448628 12.965904829218555 0.1095145964930759 0.03435096667604406 1.1689474242929419
P 4.8135314464002645 6.347576785189082 12.996091507868758 1.324084703721139 -0.41154979815881376 -0.8615892677523935
Ni 4.110284866609968 1.43299643993643 11.705403695854715 -1.0434904455379965 -0.881451039673327 -0.45602011265704684
Ni 8.762712205928286 7.779841847951152 -0.11365966978127325 0.36965007260123434 -1.6469918637398797 -0.5902800344156028
Ni 1.8801970131982915 7.044396388059697 4.274404990314678 0.20741577711693956 1.0257737449845237 0.3478034090397881
Ni 1.5537193847790762 3.872285591858843 1.592138627748159 -0.6495843286028747 0.664476672333675 -1.0732141978546743
Ni 0.21804090588433359 8.377349572758485 5.827552986676287 0.8210776807915924 0.8337200521459512 -0.3661621140526339
Ni 4.392413611618984 3.6077464678931626 12.191251153231176 1.4409642252197183 1.3444226439475426 -1.216893098934285
Ni 1.5903339545704278 0.45577962751709317 9.758211619263664 -0.43949408997756567 -0.24425994252848254 1.6837671235867002
Ni 5.504088632215431 2.7176878733421974 9.896673203248922 0.5719593817295441 -0.5445064277249139 0.3131814480905445
Ni 0.993429615931942 4.71012385616057 12.063092845189704 0.3517852765056716 0.06377852790854177 -0.030050539528477273
Ni 4.296786046071534 5.1994791813095524 7.110681101371861 0.6474400285663624 1.61738046863135 -0.6132415283077826
Ni 5.618220040274165 0.0452905315221862 1.5901053992034406 0.009041798487294105 1.573632377011122 -0.27703765118013574
Ni 6.942798956326542 2.3524746813259894 1.3327529701973064 -0.6170385334563695 -0.10777730208699504 0.2566611444063128
Ni 1.4420563746838033 5.6535455577957086 6.719888906903912 1.8118157743282217 1.2786435406692045 0.44255678806328946
Ni 4.047797829275664 2.088520659099797 4.288735411824777 -0.6765528867719187 -0.18869017568297825 -0.8291602006894108
Ni 6.961101670114878 4.703980287895954 6.6177283147465 1.673005257084506 -0.37452976929103887 0.8305480821758728
Ni 7.260655476302999 5.602632564245638 3.9803136573975513 -1.1342357318433693 1.0196781736097473 -0.3416692711175922
Ni 8.365053294014572 3.5946273898280965 4.512083373330553 -2.0194719495907414 -0.23528833515749153 0.5845148497970514
Ni 5.907497997162542 9.423977735910372 10.965780243854734 0.5754632811177445 -0.7025590810276934 -0.4903222283730266
Ni 0.6583089377547386 3.5673195945804648 6.457095031720546 -0.6113574239111923 -0.938463709612945 -0.1816805771343645
Ni 8.271985548577378 7.212165169642992 7.458429006464374 -0.2349291520458599 -1.1915654188027738 -0.31155034024502476
Ni 1.8707439632197003 5.034224508763117 9.840956890106247 -1.8103625868214628 0.44656308100920505 -0.4529610141157489
Ni 8.850852297653235 3.258724138074329 13.487599824574762 0.4536801516699606 -1.0498115026600177 0.27752127568477364
Ni 7.362783156487565 7.988275200428811 9.502001052870996 -0.7864734604541617 -0.12626841891264706 0.5665492664575663
Ni 2.5166231458962063 2.6663909067755873 12.895162372028674 -2.0425221465419856 0.38147920402567853 1.0864276112211548
Ni 0.17468121010245535 6.559145917301805 2.5146347142034173 -1.16276983472732 1.4374934930622985 0.7861433308082525
P 6.275316720362404 0.3030817868329359 8.32679952513119 0.8165119157977809 2.586291181880242 -0.1724408037036514
Ni 1.3897354800730906 2.2362679905350107 4.521530937980336 0.004204524999650823 1.1378985254069371 0.5315868914497683
P 8.92744577223799 8.83554823027977 10.808665799258916 0.0748098460220389 -0.49725983603312424 0.32756805582951976
Ni 3.8381302778162736 7.493315697681303 1.1315053984577255 2.2028623103273612 0.0332487347508008 -0.29199992891692295
P 2.3499879989331687 2.072604063342807 6.628378994848104 0.312732533478584 -0.38644888932612803 0.5766171922165295
P 3.8138302711981935 8.832805565875924 10.195460891846901 -0.7815006898299185 0.7313389813738631 -1.2349970076238472
P 3.0510861582737854 3.274201907526703 10.491104572816605 -0.45633841522841406 -0.22724232492456348 0.3637059392026574
Ni 4.415945672203987 4.717364490186724 9.432408686287795 -0.05991724518092262 0.8973108895237192 0.1163123361411997
Ni 8.121888667969536 0.22521480174332822 1.4925872236602724 1.0225927761533808 -0.02378964622043 -0.43365897135302733
Ni 2.473581599185174 6.149940388247898 2.1817794768237913 -1.3093908491543902 -0.1367060693062033 2.3857438497483625
Ni 6.095013962453531 2.1312605127264055 5.291862174867252 1.1480510404599067 0.8072657146091645 0.28011037656818855
Ni 4.972633408467403 6.954043880382312 10.31168495284577 0.4127263349654183 -0.09095457410270143 -0.20987478018039338
Ni 6.302880497621062 6.731760072665229 5.908331767141311 -0.23048140068715145 0.7166908924433851 -1.2257667472748308
Ni 5.360546719532781 7.262639336888448 3.210142409267527 -0.051413064364653385 0.7046468167946575 1.069732409953661
Ni 8.634776053703522 6.080331565678272 10.303361880601564 0.3723875261370554 0.007798927219128503 0.3674234972635607
Ni 1.9526399223185584 9.0970795656159 7.646572127682377 1.2484739590643597 -0.04043188276280134 -2.1163485456048328
Ni 9.049476053779802 6.162337231353285 5.162044554861451 -1.365757915090209 0.4002829669957429 1.0659166357519965
Ni 3.134673427088349 5.545219456058449 11.629348697714581 1.9619995664058856 0.5103806896857985 0.5963174988589344
Ni 1.610209129283636 7.232671157169084 10.84420433038249 -0.3812580891538079 0.5079769653403122 -0.6148163289940702
Ni 3.26602876760324 7.131805102610287 8.795935928295014 -0.9636216969358113 -0.39269821266994953 -0.5040344357527965
Ni 0.37642063299179296 0.2348232693714707 3.5851322856619796 0.8185554285903709 -1.4984232386681355 0.37889370268668937
Ni 5.016086354839012 9.231808383347522 4.839331690447248 -0.47148735505471057 -1.7861409952699367 -0.6177723262986006
Ni 7.917953285114186 5.241368808970969 12.464709421838167 -0.46060053293887776 0.6504947562322861 0.3645050380651852
Ni 9.242230508082137 2.3725327003327874 2.6672667309418823 -1.8605273806013118 0.026044760803193852 -1.336875170617588
Ni 3.29802651898145 4.135965347644651 3.0449864726396307 1.325314462363182 -0.39143940056218396 0.5352139466793944
Ni 6.327857028125425 4.944758795909642 10.67666593260912 0.7079018333968453 0.48278863900014274 -0.4252833456948224
Ni 3.3312584693413907 7.3337383404508305 6.273808254940288 -0.5923816541396378 0.10402966211910472 -1.2527592167032748
Ni 7.39719445254116 2.2008144820079543 7.393184677182736 0.9525464129582563 -0.7237208027069729 0.7363747440255576
Ni 7.73322569530044 1.4949623710340036 10.05864490650395 0.15393143204555426 -0.07263983495391362 -0.3839209806979517
Ni 6.036823766018587 4.385657514970842 0.15220781797733665 0.12805996359543106 1.451290546846391 1.2267190838857713
Ni 3.4062703407865946 0.5977984472341398 0.5782478211420535 0.25128316792385114 0.18958774779658316 -0.5073830405100552
Ni 3.6408778538916295 8.155778857786402 12.159003819392217 0.5816503837650628 -1.0090931990050493 0.25407487173637533
P 8.225927071022117 3.77866931354088 10.192986094333165 0.6495174799206813 -0.24394241128806374 -0.02006128952624932
Ni 1.963071189267855 6.736660299733434 13.347371964713425 -1.0847890471764674 -0.3046461569260237 -0.6228263437827403
P 1.1712731180920326 1.229856429758195 0.5513066287030689 -1.2954171605831175 1.312907604058397 1.4456382336566198
Ni 8.794563681871622 4.992078899090675 8.173993806313813 -0.05286470920951541 -1.0457779560205926 0.642670375091861
P 1.142913968156259 6.9199525618425 8.481104567156 -1.0688515500106044 -0.04581191612779207 0.22924907094194713
P 0.17950464256735352 5.499151836288507 0.6999233847543025 0.5371173343496943 -0.042481051982346196 -1.0517735114823952
P 5.7483777506660445 3.0060881776213426 3.190714288852146 0.07430333869926559 0.22074206191220047 -0.5068793614007593
Ni 5.136919006257813 7.878257788975847 7.504457314711195 0.7974716113368783 -0.6751583204172373 1.0608713600186053
