# total energy = -340863.2424406686 ev
CRYSTAL
PRIMVEC
9.31135171562446 0.00000000000000 0.00000000000000

0.00000000000000 9.31135171562446 0.00000000000000

0.00000000000000 0.00000000000000 13.62810444167247

PRIMCOORD
 96 1
Ni 8.4588976211584 3.001430478399273 5.6724802248428725 0.39433163450831443 -3.28908577595751 1.527950558703291
Ni 5.487524186648278 0.74539234120642 0.032942631838732236 0.6346369632644232 0.39567092214502825 0.8556546474355134
Ni 4.301788703384285 8.744830614884563 5.023537659880874 0.8538983268660392 -0.6687624441932225 -0.5617451602007034
Ni 7.343760807896744 1.429711525390243 9.057442494035506 1.6862451528135476 0.40792968490772324 -0.8985581316672591
Ni 4.59606466840062 5.223435624447502 9.894439915099877 -1.1699429554369916 0.26211933930740666 -2.567223366615514
Ni 1.3249495053168732 4.406532100753883 6.690895370385025 0.0007139953478890929 -0.058591070170331355 -0.4764876364827794
Ni 5.603487763040931 2.748022036812146 8.426325581124745 -2.0979137359384126 0.7147898187659302 1.31790428594204
Ni 6.57503421886312 4.399734813876844 6.889416186007661 -1.9795674000863202 -0.25731806126402135 -0.6504677596490926
Ni 5.317173003887429 0.08791592224057833 11.332273732740587 -0.8758745740268141 1.3303965048717799 0.12891408406561022
Ni 3.658178749647602 5.9452795567333325 3.3834901444594006 -0.04571832797272127 2.6771115443979245 -2.52155440382349
Ni 1.7193690598709472 0.9696376286854862 10.591381567900843 -0.6145013688568126 -0.8276946718874777 0.928686318511207
Ni 3.059849900134259 0.019240046402773516 0.26699184171894075 -0.8231739011989888 2.041502961248852 1.591197382478079
Ni 0.6048616939968091 1.0594363062774854 13.047206864572875 0.27297350841309115 -1.4854376250417451 1.5043061798114739
Ni 7.220003629975212 6.388742001672833 3.489230787616027 -0.3543000725077253 -0.004071341855896214 -0.7973078320655043
Ni 7.182693042966591 8.587971581007041 10.061180155599198 0.3349602345285328 -1.746510011141876 -2.504199971705442
Ni 8.698795291158428 3.548667940112191 0.6657448994409241 0.5309189188484664 -1.6275602373778293 -1.1248746023434433
Ni 8.164342315585474 4.983621756614452 5.100726904748373 -0.08780008763411976 2.428898273648649 -0.8820071692871132
Ni 2.5442803461868313 2.1577847520880447 8.79060428962269 0.2865877567624161 0.668591722943313 -0.8638649511604476
Ni 3.668113962110342 7.133408057432117 7.861413311261149 1.426995421744452 -0.3749933391910187 0.30512695321718414
Ni 1.3041106997952125 6.591803963610444 7.794131344800731 -0.27032964303234086 0.22466916488074856 -0.828404810580625
Ni 6.157634247853524 2.2036617828321114 1.9772748844191836 1.075191376185703 -2.700969581962445 -0.6920746365566017
Ni 5.671507188570748 6.453949398932972 1.3531414854231874 0.11803754636242252 0.6317061627708734 2.123600342071239
Ni 6.448707107820954 2.0138033178693506 6.390981381801502 0.3635077071489224 -1.9962512884999037 2.2261148530973984
Ni 2.965609707692469 6.0623325612966905 0.871799529874809 -0.29825979378370565 -0.06779921903216066 0.27153471908403565
P 7.915608172645296 1.0531232096985372 4.726976689111628 -0.2923408571961094 -0.4196788550238514 -0.16095157211712927
P 0.30008904199898645 8.365346468756199 9.50518071176122 1.722188660787692 0.5758368624070793 2.2379635249058687
P 1.7955545410050966 7.23364476048872 2.551235926045938 0.7833737384829154 -0.2641258282144741 -0.44886833210361404
P 2.4373767151795995 5.366895622960559 10.021440236883429 -0.7700731647192673 3.5098810597051493 -1.6672958654045542
P 9.217810045303805 5.990905180976468 12.440524801282285 0.8472049740062635 -1.1141052796420812 -0.6794394642910944
P 7.444556192066527 1.6989306424804 13.204052862557756 0.1584491174102497 0.6129275966117895 -0.1418269354725364
P 2.974297199002437 8.23348841469354 12.24745485105392 -1.5055130556353813 -1.1724358970621744 -2.530732984998964
P 2.6788852490559663 7.916502062426386 6.141763979698422 -2.197952274620253 3.3340692826467353 0.5306654080767635
Ni 0.23567124737881137 2.8865935755848677 11.860198519506019 1.0987133705670433 -0.2765008048400593 -0.5327505727405665
Ni 7.9661315679806535 0.8632135323004018 11.233959823848517 1.8196111020029242 1.2552634711823671 2.0087244812662504
Ni 6.2415388397014615 3.6879564529801625 -0.01779678686038863 1.5476686059575089 -1.8284186729922254 -0.18449542087534032
Ni 4.467335228571775 9.27633189190954 8.71293830353861 0.47820204807072486 0.2824940463090167 1.0175819532023507
Ni 3.457677409478739 4.630907747159358 7.604768243758325 0.6034068016055479 -0.9811296239125876 0.5953831599701229
Ni 8.606380123686362 4.872909782685701 7.664009857864875 0.26082324620380243 0.7154518778299613 0.5758669443140664
Ni 8.788649836861744 3.6254586591189537 3.040389174691779 -0.229132857079057 -1.5470746811272515 0.5766580727567939
Ni 1.448613569719542 4.410489425305583 13.234361312947838 0.011106137215490551 0.7068991031639439 -0.4069737487523572
Ni 5.695819128346019 4.756564440865707 11.625004944478977 -0.017249016888434807 0.24484358294609448 1.7707709405717698
Ni 4.335598222083637 0.3810214503247992 2.3286610950952835 1.221430324683006 0.09162228959368736 -0.1649781767780191
Ni 1.6241139300735445 0.11933335464032575 7.806723085956648 0.09722755159560674 -1.470153445189165 0.5229204740240221
Ni 8.166791201131584 0.7662050749427988 1.4936944798773255 -1.2485292377823274 -0.09037453322951533 -0.22299923337749336
Ni 0.8170031551588036 4.12489164024733 9.473331232633946 0.2799656234602082 -2.1684822901855942 -0.7372599748439884
Ni 3.360513452544633 1.6270656286215188 4.872688172510807 -0.6446892052941026 0.26314186703465003 -1.932082981352111
Ni 6.11658049738659 6.456454152590401 8.064621461423375 0.27637507789547244 0.3276235916578035 0.6101189235184008
Ni 7.269716937696456 8.305055465292057 5.744491426926369 -1.309280291718455 -0.03127412752293324 -0.3470585604539636
Ni 0.9321780600466837 7.472043302835044 0.1632698996512763 0.43866130966362515 -0.4978074810064782 2.3580227296840097
Ni 8.547420643541969 0.6932264233983096 6.891718883329156 0.5791006207600156 3.1824060778100676 -0.5867424535759895
Ni 5.455632806437515 4.854799203266742 4.372632261941233 1.0397014108092093 0.08285071404864441 1.6950648079877064
Ni 5.056455151069514 7.484473957603327 10.065758547321717 -0.5327454305342437 -0.9722127810389322 0.49445142005005166
Ni 3.0475961610518167 4.286015273288801 4.536305343129189 -0.8656652375939802 -4.372874149783605 1.285020904950458
Ni 1.5671843246403754 2.0316531794354917 6.4891723808486725 -0.7033201275634339 0.1848923992034429 -0.003067068961097944
Ni 3.8663153983632754 1.1892086175176027 6.983094903930704 -0.18228530059789896 -1.1725667662130839 0.7347348944292894
Ni 7.223551255043912 6.284529351360758 10.684515571738535 -1.1898962586304669 0.5642812963589959 -0.3900147523005154
P 4.1254503213605105 2.4637185296660955 3.032252915413482 0.055622217349994535 0.6703269604668648 -0.9674657532722499
P 4.314778039265748 1.722199710844399 10.151479783922683 -0.11035483300618415 0.06234539500644102 -1.767413851174079
P 4.490399447194274 2.970879932860145 6.213298440565338 0.30065374793717903 2.716143461489406 -0.00042988844856700154
P 8.739150690233886 6.747946023392717 6.117642922636822 0.8091318212836258 -1.0988838347066363 0.6387317021590871
P 5.6540111583762895 6.644971782881527 5.904130830477157 -0.4974374992615692 -0.8846862587811731 -0.15308862442928473
P 6.62031532308646 4.486712151847278 9.398485655036245 0.44699939721567533 -0.26299531415445676 -1.0530837456533864
P 4.892547423814022 7.670179559624773 2.9701769257927255 -0.9398988993975748 0.32126448220899506 0.4295740026503763
P 8.131985367780393 7.905347062866533 1.596736693257286 -0.6949324177203708 -0.8069754370622554 0.2685838639858278
Ni 0.5476946490905379 8.432593052079449 5.494633403813509 1.6476999455504977 1.1897499628605899 1.2484073674924823
Ni 5.957868504483684 2.3681933706639886 4.346902203273671 -0.4310721844624576 0.2064456998941864 -1.9264029002481984
Ni 2.183623753572677 9.40157888613289 3.182148920350388 -0.5753938613323897 -1.2433376662790587 -0.7521826575920917
Ni 3.3598337238569296 3.363642066778448 0.6597716672058279 1.5918062197066716 -0.39282162562169126 -1.3582862893035124
Ni 7.807121611817384 8.547066812170288 13.140095979855957 3.6888637782923763 2.6562817521367674 3.554367315042982
Ni 1.2772288268993084 6.119187675914768 4.482051820228158 -0.6180723740375226 -0.5806216853902323 0.17431616634949335
Ni 8.202900623746865 4.321072513140924 10.986064633713301 -0.2834476684715377 0.29936459681211025 0.255004068418864
Ni 0.8567421427393856 1.6839021205358244 4.130869528158368 -1.1108793165056159 -0.14163693094891736 0.38920562613565873
Ni 2.92446284370667 3.575028377302459 10.70273695624494 0.6702907079122907 -2.214764975302218 1.4287255170616813
Ni 5.355675443937503 4.147937236166056 2.1032937897139115 -1.8785276738334746 2.4257517575998677 1.0457062222423927
Ni 4.821762526773958 7.82025992932903 13.245699746139852 0.2716671308968418 -0.8082566177675241 0.022266524707684233
Ni 3.2308621888790383 6.071122477477408 5.766759524962585 2.203599445603702 -0.6035075888494703 0.47023214249137074
Ni 2.4338477128146714 7.795352063033032 9.674837267671348 0.04507709484429656 -0.28562847817294035 2.03662043634557
Ni 7.314560408381137 5.983372297300407 13.502630672145589 0.7990806076952108 0.39699144072866466 -0.9660153939789686
Ni 4.670741710529181 2.4015652558246816 12.082295678104902 -1.757403003905296 0.19157006833393458 2.269232767332795
Ni 2.119375425556834 3.2647741324491406 2.487783718616378 -1.6395320650277247 -0.02264987618903196 0.9161179949278933
Ni 9.156150273112369 6.120202613270381 9.632834690447194 0.8725107997609037 1.9506993109017177 0.4542830753612821
Ni 0.5536446029459182 8.031301719833245 11.712770022818995 0.14929444749417514 0.8507654376640122 -2.4904548542052076
Ni 8.473441952804885 8.109703302716348 7.919509629085678 -1.7204313117769534 -2.538980055499105 -0.7875250416471276
Ni 0.4155302515508162 5.4979435894091075 2.0076382717853956 0.4169581136585787 1.0509088494892547 -0.6285974419385626
Ni 6.630958198292563 8.742148945541292 3.3857798058882556 1.2968654629938698 1.7440957452734287 -0.3920137850084152
Ni 3.2786852921673537 6.063198517022121 11.978218042395179 0.19933351432943736 -0.25665317398651283 -0.18469056760528194
Ni 9.203870951529934 7.805240718736341 3.45667364574539 -0.6162057531424291 0.32886389182280784 -1.1298651135794993
Ni 6.516540306313044 2.6595083257804633 10.98661027893384 1.2184234195358823 -0.18760465592828335 -1.070334305203718
P 4.746387133253922 5.140238695342927 13.659449667209996 -1.7286956086682743 0.06457299878537912 -1.3698634526181503
P 0.136883390675726 2.2581983708304874 8.361918960126832 0.6616294326928669 0.148764286022318 -0.6198778026773776
P 6.473121472466975 9.338354806824546 7.7038996893460165 -0.4324873196424293 -0.47684476271188203 -0.05788247413908096
P 0.842641031442691 3.7759766623618676 4.681526118283956 1.5622079372242643 1.2553436896009993 -0.22303805703522878
P 0.6669451326990751 1.6461632113404312 1.8906271683055265 1.7428006806110887 0.8395454005784767 -0.031060211739914245
P 7.461419050332714 4.803819551688953 1.8379677488474397 -0.8347250963716978 0.9696360214506913 0.47721757267026843
P 6.589531993750174 7.742817415690222 11.989379559901352 -4.112204141328215 -2.045435463534039 -2.9001449734474636
P 2.5169608397522687 2.1798340333549313 12.414712802718121 -1.6049689823408744 0.27924237214093844 1.4624933575407457
