# total energy = -340855.43285907904 ev
CRYSTAL
PRIMVEC
9.41202651606635 0.00000000000000 0.00000000000000
0.00000000000000 9.41202651606635 0.00000000000000
0.00000000000000 0.00000000000000 13.77545218848294
PRIMCOORD
 96 1
Ni 7.777797318664588 0.5128443694078907 11.692534813695904 0.2946903312648925 -0.885425708050359 -0.7483249744088983
Ni 6.918949922192141 1.0748910473067332 13.754072573678064 -0.3188813266887992 -1.5542416311893361 -3.3234855935936185
Ni 3.6387740614007287 7.381955730133719 10.008554840026669 -1.7192046384587034 -0.7444855460581501 0.646501575912493
Ni 4.229294001149528 4.5337354026432015 7.340111743774956 -0.38007486747898417 0.6764325591439705 0.36553990708760276
Ni 3.7262117853813215 8.304428424142099 5.443397387705405 0.3595518078249679 1.8573749510152593 0.3435811434283244
Ni 0.8690142672414289 6.30065509294208 6.466403699036313 -1.6553235235340265 1.2205283816940269 0.9010582723812934
Ni 7.86901867720279 5.5976049671962995 0.8391301426546929 -1.446610110651586 0.23417221927517737 0.630951543993036
Ni 3.822459165943812 2.988177158017042 9.065486750150223 0.026046046354774498 -0.7286683765202354 0.3958079619435248
Ni 6.636080884892602 0.9168894800293386 5.201403839262195 -3.4853751041439844 -0.5272211582819049 -3.156255387556629
Ni 1.638172583051244 6.144631933585107 2.6132585038681815 0.8205696308069222 -2.1401955274257594 -0.8616296340720259
Ni 8.942968521883252 4.904766889945562 2.771165950882949 0.6021505606009435 2.8163938590717366 -0.5612831329626204
Ni 2.1516174397346957 4.507080544267202 5.939203165969907 0.3557843703627357 -1.9957702350984272 -1.9588551072396332
Ni 8.559146090889866 8.65755823749278 5.890548637407446 0.8851495715708368 -1.4225011334185242 1.4074252129220082
Ni 4.695603430309318 9.133627937887004 11.875238243899785 0.38548498275096194 -0.5282200318600645 0.4481152559876734
Ni 1.7016849362720226 6.608880128993364 11.892912146815906 1.175964479040723 -2.3654943554707066 0.36114434912306836
Ni 5.499719894064097 6.620880462478322 11.095437749994723 0.137797245487853 1.1693837404994119 1.8399742390403087
Ni -0.15466594516988974 4.988223326817027 11.159893188247025 1.0083954016070762 -0.9574770174906542 -0.7603875620003872
Ni 0.2948345462873246 0.25720620649162923 7.9871311359761865 0.7124107770107925 -0.5495650731947439 -1.3568786103227082
Ni 7.063170400615673 5.493922085886267 12.18525532975149 0.40585454754624944 -1.7103268763530994 2.423223077640743
Ni 7.836434242281282 3.0445740193832105 11.286572473324743 0.9232106401086164 -0.05901581641257578 1.021619613606834
Ni 9.45758046982328 2.968270722471406 7.342619107571342 -1.8108644661585456 -1.6030329416604263 -0.26175449976882015
Ni 2.877632909561492 6.376421904356909 4.925316166884941 -1.3055789316074677 0.5956636673250194 -0.7094604361332169
Ni 3.5534069831979336 7.343225242062661 1.3281959689124685 -0.5868946628831376 0.3923680830240404 -1.5591645224122501
Ni 6.111388656825209 4.529763527560338 2.757927935944445 1.8512012181043798 1.5112026498209907 -1.1993476338513538
P 2.5157969719178013 2.714014245010511 7.3296286289235475 0.0232240035249471 -0.4805882889147142 -1.2226654826416878
P 2.5354869308593946 4.87026240166646 0.25172464239622594 0.007026310719162093 0.3174880458856984 1.7971214055408404
P 5.1989585948391435 9.15922864932158 0.4934254768226638 0.4014103957319668 -0.022031782989058828 -1.0642446473662122
P 7.219814753705984 2.9930714116736516 5.745162008929963 0.46308036193793795 -0.21212269567430567 0.43465167428359974
P 8.473101346796156 3.918348889508319 9.11791644244666 1.8295473872800299 -1.416170563214806 -0.7115368590462713
P 7.21594641091201 8.551061160330198 10.04577563908519 -0.9611228417733577 0.4739946948575966 1.1245300745198312
P 4.95248586309751 0.6011207049284906 3.4382423710500185 0.7517535404744731 0.4062579536322552 1.3627499815018207
P 4.161376819637799 -0.10335722520134287 9.60104892734842 0.9882356388297497 2.877808771844108 1.7512786361751131
Ni 3.5438067164099674 8.615608836439874 7.748608742818666 0.3888035056012336 0.5300267460515001 -1.055546605371582
Ni 6.6676299969252115 7.744121088696605 13.298628387635949 0.2542882732987621 0.8048079970972912 -0.27598504154590536
Ni 6.658952108710991 1.9381997442277064 1.7690157485475837 -0.44367418949718423 2.104122950072918 3.961842943132422
Ni 2.150120927558924 4.6053138623711245 10.170154624944297 0.10946214598858567 0.6622189866477498 1.5247261382287225
Ni 7.041334499686181 5.297370741442058 7.736265811577746 -0.9605152900963456 -1.5702434059342312 -0.49437917205121956
Ni 5.872210245437178 7.720054537542851 4.76386791559014 0.9536388746914868 0.02368525943208179 -0.6830068699273785
Ni 9.056119901613574 6.162307718906479 8.895539439140196 1.7428994109724822 -0.990369654453617 -0.09293612330910446
Ni 8.61028162957518 3.0775914075128035 -0.32822465065692075 -1.0241158976661267 0.15308631043643958 0.7105017329135377
Ni 5.703038485391197 2.8283515400499333 7.3792064772623815 0.8205138378683224 -0.8251284538221982 -1.16547283548078
Ni 6.508745581584374 5.042643662668026 5.243116057253282 0.3735769184594663 0.0694444679450675 -0.6286869163285753
Ni 7.71755093855697 7.769157078555419 8.110848456389027 -1.1191865508197305 1.9489676729225918 -0.09423350196428933
Ni 3.2532951137851063 1.5303578222118805 11.215655679043087 -0.26710676521966903 0.5911436679674787 -0.579743396550337
Ni 0.9292982954540977 2.8152499994922384 1.4064183779792396 0.46059513362223903 -0.005130636358346002 0.46703523282062787
Ni 1.5199387091390586 3.6156487128732464 12.665853155980704 -0.13471012192209703 -1.9633815343550767 -1.0577184162119202
Ni 8.891268261622177 1.2439216269587738 4.882048140952628 -1.0025628540856992 -0.4696019651065397 -0.8859309298215516
Ni 5.2336136755384475 6.626104137054126 6.719196606413357 -0.6342636390854044 0.07347852880512507 1.2705926453402698
Ni 4.1748548412460025 3.5825654405598146 1.5100240806739182 -0.09181332255857091 -0.02048809265102278 -1.6105451908770714
Ni 3.1416120101517686 0.966982166204743 2.308848162061174 1.6155832675216113 0.7403149596202282 1.299795235046155
Ni 1.5163621391592281 4.491513052828677 8.030647639401835 -0.8313998886532069 1.1860084935402864 1.3445424573548586
Ni 2.053544126077239 0.2662125744224181 9.629770666691712 -0.2574515015180921 -1.1302780327472017 -0.9180594349249802
Ni 0.3749261837698702 0.8199164322419931 13.621442064394436 -0.7056006960674944 -0.17477819358757643 0.31763228477304656
Ni 8.455218496897004 1.4149381441522464 9.363891277998995 -0.08022150395591346 0.15619323149653747 1.3413638025165608
Ni 8.856283760003677 6.953426174392454 12.217737173586736 -1.5913799308025303 2.2962175234517552 -0.013363565791099565
Ni 4.409317827476415 6.235740347808157 3.124410590954037 0.5096484395054642 -0.815210423377538 0.3715526889405859
P 1.9513954050480282 8.150795919455856 2.7820763717266845 2.4395482971633276 -3.7478140315743387 2.8182383684796433
P 1.5510172198585328 6.86352249953103 9.748143838592584 -0.9829275963532751 -0.39190374179311216 -0.933482968568902
P 5.778268811309052 8.734200367350043 6.791793447382905 -0.20716638011029484 1.075590925616967 -0.04394786633585979
P 5.0010613306393665 5.949228856344948 9.197841487064355 0.6629180695973035 -1.4876014654622831 -2.6867066442855276
P 1.1643900050388594 3.7617892446543717 3.469911957018791 -0.6543105304339505 -0.5230922237151959 1.0415274082743546
P 1.4096391733663396 8.486137003170011 6.55387812991933 0.9688747178046346 -0.03909465200861654 -0.8620291835032895
P 2.7293652598449936 1.7537710896098695 0.44458459014019996 -0.6624933233550591 1.2042144750253518 -1.2241919465885434
P 7.813111241202282 6.623553477936932 6.331693131948625 0.940129270240826 -0.25585561778588195 -2.2000055576048565
Ni 4.545707500049371 2.4688780209981833 12.98726161721817 0.8559963470456484 0.1388755661536963 0.5002590278707643
Ni 0.5079990582878466 7.130551096630427 4.443161591511874 -0.5423852676168529 0.8783628876663065 -1.1924712184464947
Ni 6.585180646863855 2.7077740715983327 9.554474456590018 -2.030019643199601 0.9643778583755456 -1.5522356565029007
Ni 7.155257665570045 5.197358550374482 9.967765000609328 -2.317283085872803 1.044083084816673 1.2840130325112338
Ni 1.285513371013697 2.084359100061357 5.389273530681679 3.167866489432996 2.170923038416603 0.6180214661949291
Ni 5.5986779381902485 8.08514703627344 2.3838554229566027 0.2696809537047485 1.4309392368835485 -0.6263842363373278
Ni 2.042193222404409 0.07661483498109997 4.359930102068088 -0.6611810323015387 -0.007979161550734646 1.1996415109426888
Ni 8.122606900799033 3.1762953269298615 3.620270958970864 -1.510450859256631 -2.371677087242651 1.1058083297406118
Ni 4.252231109151756 1.6848374092617686 5.425985139119388 -1.4442274693520225 -1.0106214627241177 0.9899739616770952
Ni 6.004750399268684 0.633370071715046 8.734132600760951 -0.4036176877959307 -1.160590053467182 -0.25373959988414363
Ni -0.07503549697421692 8.362613570498183 10.124943015588736 0.32265082103356046 0.156296332733305 -0.009072908835545665
Ni 1.2943889117794343 2.360677367082049 9.225144834049857 0.43391865277231717 0.40402649319857514 1.016538856649817
Ni 9.20548875840281 7.642226492376488 1.693650830654172 -0.7146049564486338 -1.2307361754649642 0.06766989254314797
Ni 1.7149276572236583 8.857554383549143 11.758243933846401 0.18786125202377968 1.8653834231420325 0.7073822134479494
Ni 5.1447923836972365 2.8381023992581027 3.6882944963793607 0.30686604739547796 -1.355330291998982 0.3532209805109336
Ni 7.58218717684665 1.0525374849327929 7.034930557017033 1.4603652554541495 1.0464413006362043 3.065929448176862
Ni 1.2086077044210792 0.038422714812268194 1.694890394512971 -2.372048097428824 4.04543259222962 -1.748379203140131
Ni 2.6225764098682665 6.528256712026975 7.805088430015947 1.0632956531893816 -0.213429073190555 0.7069083591353245
Ni 3.2087762295624795 4.170252360403537 3.5191462663990363 -0.17330083771110152 0.06510470291913303 0.5816359855873595
Ni 5.66594568988985 5.889688378207034 0.5474900380809327 -2.2207309630776657 -0.1713195456150146 0.33907631357943535
Ni 8.748930188451187 4.651413967005887 5.758414141907862 1.0335623877910072 -0.4611471494709671 -0.5872314773972661
Ni 0.2294520234481448 5.2732665421832525 13.548956285334787 2.588947902776799 0.09943432943893843 0.3589784518200011
Ni 7.851154651356163 8.628936265627875 3.7734545100043766 0.12064181675448901 -0.1915960364758636 -2.251800173678644
Ni 3.6197523563237883 4.689005599899158 12.174854099528568 1.0635031412144975 0.6503001237229767 -0.5883103122837416
P 4.973060552507798 3.0972813664543963 10.87724815717254 -0.799854509746758 -0.06702326009808457 1.438526048091871
P 4.462495775860737 5.072771558734966 5.149374158081925 -0.7776972569234284 -0.8995395217439217 0.07073721861456204
P 3.6307738390774245 7.336345050864618 12.620215181835443 1.1522776769467444 -0.21937217814786736 0.09437876929290198
P 0.8190429962048134 8.010744968666705 13.513305412256889 -0.9288521546651101 0.08174051170360117 0.7913672982113532
P 8.539983205418986 1.1373492535860885 2.7251562017003095 0.2552704347063733 -0.2162626859846082 -0.9083355227689969
P 6.337719652364638 3.819880270747829 13.85755309642345 0.22506794298106397 -0.5108463164683072 0.47084072260964716
P 0.258784603295886 1.5924866075720407 11.79793068378575 0.1763913037109672 1.568677604109008 -3.003718778976072
P 7.098249022496799 6.609266022070136 2.690937839019594 0.8839010438757163 -0.3789937185996634 0.19739181722203422
