# total energy = -340888.2494677429 ev
CRYSTAL
PRIMVEC
9.14225707985101 0.00000000000000 0.00000000000000

0.00000000000000 9.14225707985101 0.00000000000000

0.00000000000000 0.00000000000000 13.38061734987060

PRIMCOORD
 96 1
Ni 6.634654764158016 2.2050392536399377 11.53274055124743 -0.12737116505852258 0.0099617391984022 -0.15546998017726774
Ni 4.773574646143205 0.32626978252938516 5.9186615358445 0.09471841202050785 1.5305805401269705 -0.45297541229345206
Ni 2.719144934546387 1.2853921938643138 4.305869576483911 1.5590336532613407 -0.2241415745120527 0.9868500713361326
Ni 3.392554443915952 4.027411055458891 4.548486793112558 1.0295766636703818 1.2933183690725598 0.5868447834818087
Ni 3.5716146897855983 2.8780282191868745 2.587249592610239 -0.0978988666310185 -0.7829785599270258 -1.3092558662384226
Ni 5.27016376261147 4.605576531260092 2.6706242338977613 -0.2462854575989436 0.15775877621144443 0.19752037238009854
Ni 5.527637146887323 4.620642970818612 11.85623017341896 -0.4049166091130123 -1.0928355716300275 -0.2889781113714636
Ni 5.663774496077812 8.093886975137172 12.547339092366979 -0.15861778177763006 0.004532597763030903 -0.06318923106397505
Ni 1.980706551038621 6.777493387739521 0.3474277079361105 0.4822715901544081 0.2337266470973265 -0.9613817518616992
Ni 2.857119877396622 1.7420296471828633 0.13699215022126623 -0.20283792793827002 -0.012505588666178463 0.584970192166915
Ni 8.191599418099226 8.882699194790234 6.94223868757717 0.5236038732442918 0.691099674237842 0.2428782316896075
Ni 8.643217772317273 2.503579656421175 1.2281159536737014 0.18934786387163519 0.9028050798690709 -0.21602331628029248
Ni 6.982060530677293 0.6493196621385574 4.775783415437705 0.8610547354051622 0.6869933653789524 -0.3880288322187382
Ni 0.862509781891619 7.697332434912432 2.2964883363219295 0.16950383256251453 -0.4244014573105014 0.744205810034202
Ni 7.864946575000969 4.236238490165031 3.4849278087820252 -0.1121332650628456 -0.7116967816629033 -0.3858570213784
Ni 7.7868168465621865 4.282306323256891 12.83420666139317 0.8415290066674087 -0.4313015268644443 -0.6046848969870231
Ni 8.84402744762243 7.495535395849799 8.965843451201012 -1.3799933419633006 -0.20277724990366366 0.994836689086035
Ni 6.977727100852816 0.7518930431547769 0.25285928716105627 -0.9879659301081308 0.7141922943912474 -0.45944585050914416
Ni 2.237411985725326 6.616434245929781 9.18797469831344 0.1223809109327828 -0.7882662906885264 -0.6830068699273785
Ni 0.33381397301706167 5.147657518628356 1.3789933638473224 -1.5466543057603814 0.10991414592433973 -0.21012983361399293
Ni 6.533724246727152 2.0157579644290133 6.985712862354252 -0.32197025002676805 -0.671580630368308 -0.2937377375436361
Ni 3.409330485536027 4.5042071854925725 0.2404148469140552 -0.5942691009703379 0.6967597007370968 0.13556604216448911
Ni 5.9585757157404595 5.808322721720872 5.050701140321333 -0.5630571941439076 -1.3394951247389384 -1.5653796500840267
Ni 5.373142145613395 2.5391704629753735 9.286482517635681 0.5462637767356527 0.8185492579427838 0.27775601740339906
P 0.2504804718861006 6.039795527049861 12.54812898337296 -0.48738500012157354 -1.3367450727976269 -0.062443868257518256
P 4.223375334546804 6.23522041297397 12.455829670788697 -0.13746480184909873 1.213489729679691 1.1228346890952792
P 2.687320737881818 8.771053952139356 1.2096504229575002 -0.8881845017424188 0.274150816550644 -0.36515321317214533
P 6.610555774669994 7.785664922178464 5.584293542052409 -0.31739959993695016 1.1738222358867398 -0.010888364777729635
P 4.6217034726321975 1.243584652540823 12.18665145485825 0.6755247026177205 0.07512429193866416 0.9197409363924612
P 4.295736298809964 6.094685638159907 8.012179881528944 0.02242053378704526 0.5266388034158737 0.06050088559853451
P 4.9131951952558985 1.305980556659088 3.706484922153993 -0.9659439173110848 -1.0206981302338292 0.15474107243104318
P 0.09617928646086203 5.92395398842971 3.535667335207867 0.7275666588156244 0.12486433947626883 -0.7928174003943185
Ni 0.5669899808276968 0.2567676020343982 4.435982178302394 -0.029223158531175478 1.9256611369861676 -1.01632545508743
Ni 1.8989839155934678 6.586045383616358 4.523130743285158 0.6369517274405289 -1.2397172959176521 0.4264308290357043
Ni 6.250323421560544 5.853750596821775 8.987171422588192 0.5525393253317193 1.0598873988387811 0.19076916969919405
Ni 9.107269596073905 2.4349121639915356 10.23981148070105 -0.7487504919820911 0.6317125905287766 0.6741933854008066
Ni 2.671276076822836 5.323883664823767 6.7943965067320855 0.03371153331983226 -0.3010651244429847 0.3631433818309681
Ni 0.850222588465253 0.44464646901942634 8.834953757536368 0.19447078692049735 0.1111441616766989 0.5588418705109794
Ni 1.8255533072597088 1.3731395766814725 11.367476885437105 -0.45960808711862133 -0.5893050720968431 -0.6773033917846981
Ni 4.224234706706089 6.95728501417026 1.4649095525846436 0.9425476498743316 0.5992948363197034 -0.48273798826786546
Ni 6.003107649654024 8.045542720048912 7.685946668027613 -0.9589235201291937 0.05916828283004003 1.0509181054606351
Ni 5.797690276813979 2.9696519189778265 4.6094619904908996 0.14806931683782243 0.9820163973929151 0.8300896544822155
Ni 1.0789417459817263 7.2618410220664895 6.92892481868817 -0.4756445717561937 0.045025415670754715 0.7832899205198575
Ni 5.522554051987726 4.164215789411377 7.363942662620804 -0.7770897052464165 1.8116419677545186 -0.8274414182260911
Ni 1.0230459866001773 7.584233573396379 11.271484101019322 -0.7450401330100394 0.90034787657783 -0.18825643057966934
Ni 4.8595301465856835 0.3607342630195002 10.160973227343709 -0.3732208206716282 -0.936576262782245 0.5045196029193312
Ni 8.74372774592551 7.587387652066094 4.928255235234509 -1.3130279316863451 -1.9250952371803682 -0.05626087937525794
Ni 7.586217443168344 6.2637076858285505 6.6935199286176035 0.794152317155658 -0.9866132727349782 1.8105921863337657
Ni 2.5302476201300363 5.457799445559935 2.4055408348837335 -0.1418647306890073 -0.2186952066855008 0.6932347183029739
Ni 2.412376500452851 5.5411128337254665 11.485493367000807 0.14444971780736413 0.45950447166122155 -0.009771220454150914
Ni 1.2182788851269974 3.077557978510117 3.8744245265922173 -1.2455914953102418 0.6810350909129883 -0.10924437355082475
Ni 1.3477972402395926 1.259254481062245 2.256386740157188 0.6996457640356403 -0.03920443811360345 -0.2597534101783914
Ni 0.8692430541821834 3.2136953277006057 8.190396297076228 1.6447051245882318 1.5396372510126 -0.7241275512270884
Ni 3.921982547577304 2.690986782944298 6.736886224761924 -0.20248131592979968 -0.5009411415394533 -0.5351375849155041
Ni 4.205301092430788 7.243346236127845 5.765895335371855 -1.2273096662819185 -0.9437277862253618 0.12169185528555816
Ni 0.6528851423738868 0.09561063807461205 0.1633602479000794 0.7464454979979983 0.4423762966213672 -0.8308789831527302
P 0.0770189442116225 5.582755814422711 8.070920711293144 0.9206415938298596 -0.5265408443854287 0.09748209080857406
P 8.495908585056087 1.7897887978222504 7.845630814382498 0.013901440572440573 -1.1168823281665863 1.2979900635166162
P 1.9326914172028513 3.7738048458998183 10.343618152188412 -0.4249892114931713 -1.3487696080623286 -1.444414388551848
P 4.201909315078719 6.109825215774537 3.6976132759479325 -0.9185759695500826 1.1704386641264874 0.8590544171456819
P 6.797999470221172 4.043857975826475 10.175985727585848 0.0444065511398332 0.24817907507723067 1.2821374127550758
P 6.815708022056641 7.907522065913608 10.172988895736768 -1.102671583883843 0.19318472111922214 -1.1361370626311402
P 2.134351322410278 8.430358602268107 5.546613729770588 1.9342252245060947 1.7530385562890132 0.1154687571939818
P 6.816695385814117 4.15467127308911 1.3443240968001013 1.5181433428048823 -0.32540241563676864 -0.336362257082382
Ni 5.083570296962564 3.0246791639430777 0.3184174979803481 0.5763102024990719 -1.1409972189369189 -0.7770197712404295
Ni 1.7895968104249635 1.283993428541223 6.706686607168684 -0.22198081941530803 -0.18274732783598205 -0.18123114830177176
Ni 7.324492909381137 0.822291164837103 9.492677896547589 -0.08361715990102374 -0.676525375968093 -0.8926515363748369
Ni 2.9545580526482658 1.9847657131526883 8.93291304143779 -0.26461485203575075 -0.13046240238933662 0.6999321849278074
Ni 6.2690101948964765 2.2827850072841467 2.1712997541310064 1.6284380119970923 -0.6338257802170374 1.7521666952070212
Ni 4.503183252707042 7.044895263132214 10.452095602784057 0.20329249897718538 -0.05563635841738159 -0.6859510401573671
Ni 8.323604467119539 7.419892361318733 0.5089357345652213 -0.48394100743703106 -0.9828430070592686 -1.2406961148911535
Ni 7.63312636390546 3.920282087772762 8.24343692959241 1.5298043240825783 -0.043462442059009024 -0.5260423074824553
Ni 3.2233952623921045 8.574020028980843 12.112014068598688 0.11086571120433164 0.10098778996898738 0.6312441355327902
Ni 0.10319414026744735 5.259220480966113 10.391226455587073 0.1771672626450433 -0.7184747238166852 -0.6676501849656502
Ni 8.718431120768697 2.164621335382524 5.771127449060775 0.349472826322411 1.3569811973388435 -0.9470612214739689
Ni 3.6594626374299075 3.1502937753108378 11.460431697849248 0.0004453150675347169 -1.395237926827197 1.08003970541694
Ni 1.0355800209659123 3.657835315681475 12.405210822155436 -0.20242809409436105 -0.4714557304858268 0.8204855557335482
Ni 3.274015939476769 8.581736093900377 7.746882553700796 -0.7624256754763385 -0.5823636077820036 0.5084850153249824
Ni 5.448053799583368 8.280635859155312 3.7852692361949543 -0.03308366992784625 -0.9686944834730287 -1.3400905922310922
Ni 3.091042807605273 8.113396551604335 3.2918195707851807 -0.007188033108006975 0.9779149736300319 0.07149158028208333
Ni 4.216427219216419 4.586167519620081 9.812823281103517 -0.6584919155051497 0.9882646922954722 -1.5772167519282707
Ni 7.150872306434621 6.169844133069249 11.340528254437924 1.0020722876025259 0.6082070512076687 0.4983116743364063
Ni 8.215890394984536 0.013786523576607127 2.0553567364580028 -0.2012880669526469 1.2168987553612398 2.409239618877457
Ni 4.645272211213426 0.6944641272720362 1.567913533906207 -0.04432761827278173 -1.3108476362055748 -0.16099270976770982
Ni 6.147674159811111 5.887896926767815 0.35851360879088096 -0.05207769453184579 1.3410601552332129 0.7123750386768505
Ni 7.983027966589469 8.864515245590054 11.691354139306013 0.7800572725151727 -0.030975108225275685 0.03496288922843011
Ni 0.3745052447591841 5.071886492499099 5.58639443271415 -0.47630225994485065 -1.1980610538294463 0.5553040325610501
Ni 7.3451361257179935 6.690879644792057 2.7710720401583036 -0.16692218787826735 -0.5009020607714019 0.4012898109937024
P 8.36708504147653 1.9118287866976673 3.455865487961285 0.2628582743559602 -0.22856464328041282 -0.3810338889581438
P 1.7855650750819372 3.5946348929460075 1.468335156287664 0.1628269347629712 -1.8282782907596193 -0.36289989836159436
P 4.862601944942275 0.8891009506415656 8.050528907024166 -0.020111940258526653 0.7212908531092417 -0.9935565368220308
P 8.670534836274106 1.76681430594691 12.427167780825156 0.48045973375664996 0.3979229514039985 -0.2059854724283162
P 6.373963305413352 8.03384063107142 1.4297594028185039 -1.1343010378636658 0.5774790259961925 -0.7470664194114489
P 1.9458196982744744 3.4266459203199093 5.999694845110822 -0.5435453493632252 -1.2254199054583736 0.09450218224464371
P 7.359754594682844 4.243250601294513 5.723412181255054 -0.6241720591773573 -0.7209792354060939 0.6187179780413214
P 2.5172838996846587 8.58606038146784 9.994223944768665 0.587307324940524 0.9261303848585728 0.032504143275292406
