# total energy = -340857.0607088249 ev
CRYSTAL
PRIMVEC
9.47699115170621 0.00000000000000 0.00000000000000
0.00000000000000 9.47699115170621 0.00000000000000
0.00000000000000 0.00000000000000 13.87053449946394
PRIMCOORD
 96 1
Ni 0.6770637368795428 2.283642146170617 2.1719728630872175 -1.8314173506092328 -2.9991964656256864 1.7520512526750793
Ni 8.382000710959474 2.4623308158475727 0.674478413671488 0.38052249653936404 -0.13367705267189237 -1.0993216935750034
Ni 0.47573832594613646 6.692518530071103 8.50265133863332 0.1598727372306537 -1.2524640540603593 -0.923647727646035
Ni 4.140431130266466 1.412772990900159 7.994560460019818 0.48003524462472164 -0.8081879693131178 0.5331089845212496
Ni 4.807071124490072 7.966861110047301 10.211848504381356 -2.068419583134038 -0.18648931137691754 1.26919730765464
Ni 5.846952941389745 5.019990686496552 3.827643034658515 1.3344776169196888 0.41875711454053044 0.5553971064954887
Ni 3.9651447004417526 4.877731571114913 10.464860477794272 0.9125151080679832 -0.9495137967795195 -0.3932718257852324
Ni 4.183560917362717 4.8140935749928895 13.429853751677731 -0.5507310684783869 0.2096870896496195 -0.01996898692275916
Ni 8.537802446811458 7.380548093505046 12.853435661680674 -0.6299125612055603 0.7500928649425985 -0.19408589277725283
Ni 1.775599600212397 3.1811321698114052 0.6228923072990366 0.7327176068889446 0.8328309646727786 -5.095205271231903
Ni 5.838347833351205 8.730953005108251 8.380618965637868 0.28315070605640913 0.14253707416568356 -1.1759737350121038
Ni 1.6341270751030046 8.471634094030525 12.66361816120013 -0.41185395966279387 -0.16280405194483574 -0.028995873011717806
Ni 3.3623985811034305 2.5294184367779984 9.966811419090062 -1.8128676126315035 1.2704715463813734 0.46018350000611713
Ni 7.308153357484772 3.047762472205264 2.6526430152704203 -0.3017348968164997 0.4440320870572353 -0.11219651420061322
Ni 3.936268308158237 9.156270894603457 2.840463713698408 0.1180812551161644 -0.096690191034898 0.7746278739694852
Ni 4.111763231790051 3.617670816925148 3.555863775509122 -1.1074787754644992 -0.728799502781461 -0.9374838621981789
Ni 2.0606295885021937 7.075569038672157 3.1829413274375695 -1.2921616297602971 -0.10314083175624818 0.6040961143630886
Ni 1.7571478982839412 5.18108058345592 9.952441457285174 0.46069592086616135 -1.1857585823130095 -1.8717661867399247
Ni 9.156782652129978 -0.023094479932950062 2.1424984726569707 -0.8409841899075323 -0.5996725313740963 0.07340370970313165
Ni 0.6133603495180191 6.820969669227903 11.112683905926996 -0.23982838911969018 -0.1367685471130225 -0.09152998699019721
Ni 8.417368842236824 0.11071021157073438 12.46776571270313 0.6248724276784916 2.491679470640928 1.3076445558872447
Ni 2.746678460768675 6.148870928054738 11.939145775683146 -0.6676116184182309 0.6518422713991161 -0.026126007663090492
Ni 6.8554280093469915 6.998786455711526 10.47380675751716 1.0631771253336464 -0.05060239553789995 0.6736256858227947
Ni 4.31435287335379 4.01195156013597 6.009298539687336 -1.2332545710114438 0.8616682006194449 0.028239197351351365
P 8.063697006454575 3.1350455614508093 12.521791196618667 -0.09481534260968832 0.36100550955235894 -0.1443458452396482
P 0.6359544443139263 1.0453405638492308 0.26416449669458325 0.8700687659783145 -0.9804557377740147 -0.5458727119448212
P 0.3886807890919094 6.019140395081636 13.577519490557153 3.501613163269402 0.29283836565781823 0.34280261339108703
P 3.835177242687853 8.356337018703565 0.795384920108594 -0.2493712956131189 -1.1040504665092405 0.4263398119837947
P 7.1640936137690785 8.700664541131188 0.5806884222461388 0.783379137799554 -0.23448615097117032 -0.8693650550430705
P 5.465295550499775 2.553338362647245 1.5715732467779069 -0.4228857919969233 1.2603825375764874 0.44287509063465663
P 2.9706671485339813 9.275936862888312 10.818961621279325 -1.2955416019761234 -2.1036403540095447 -0.915865512597455
P 2.8562514333915847 3.3556035783901774 12.340322925413403 -0.3257286886279358 0.5690532638263426 -0.13711256071600258
Ni 1.8909156295218215 8.644323828257706 8.75380582176479 -1.4636269569245568 2.8600079962172615 2.08605992192362
Ni 8.747234476044609 8.606245277488043 8.722305250609168 -0.9288207872065423 0.9504111117828085 -1.3145528529713038
Ni 2.494609447983331 2.0947846649018627 5.864101557023817 1.453790173339793 -0.38017694027448723 -0.5262076294157261
Ni 0.8970711406283394 4.405720545820272 12.113401108861833 -0.48521267506060306 -0.5405893520586947 0.45796849463266937
Ni 7.992411078408429 5.202925048245386 -0.14994779836805605 -0.9663275259027486 -1.9591021902534325 0.7037389602684073
Ni 4.88272594549411 0.27008856391362673 5.823723888181302 -1.7496508707637028 -0.9593716634102057 1.5516638431598309
Ni 0.37896497768099374 2.794101324892965 5.608162141019376 -2.1368752048032746 -0.20290451951014732 1.6684893714920233
Ni 4.478664947331994 8.976103814294328 12.705534893418703 0.10097030646749063 -1.583755581488053 -0.21471899564657213
Ni 3.8677022765956397 6.310065071917657 2.104520377994365 2.3076378494735548 0.16559292754388255 -0.1438874175459909
Ni 1.801026367687511 2.152253139731937 7.995614301444801 -0.8577742648816775 -0.7957114341126619 1.361135328716533
Ni 7.952114911690507 2.6371623500931567 9.29617118686748 -0.6043362553983528 0.32886980536007876 -0.2134666112967098
Ni 6.596706148716873 1.2137751290133003 13.584912491417136 3.153337442578885 0.5925968554742375 -2.310820875187227
Ni 2.1863418771929823 4.713817530768447 2.125312896757093 1.5636500689874295 0.5312269370071883 1.1703898131664232
Ni 1.771448678052837 8.800362488890485 1.4401359076839444 0.5027643107911212 0.6262137721977344 -0.24193335127783494
Ni 6.23390797037833 4.162341933994555 12.002797987292018 -0.04888027064047065 0.6858427967142768 -0.21165501200926773
Ni 1.3693494170757192 7.664042809215279 5.836207928731047 -0.9995258670315883 -0.708733071048889 1.3784499087355808
Ni 3.004575823161621 7.133653517932304 7.928647038303021 1.5386180657194664 -2.4729502696625407 -1.3748441936621936
Ni 6.038634566045597 1.3515042425861035 4.364363903783504 0.18015796984225102 1.1961679505717915 -1.2955176907167236
Ni 0.016830188728682346 4.555494915248786 2.2942004621020464 -1.685913737616058 -0.893795420171293 -1.9138456324084783
Ni 2.480147559363493 1.1392101620009276 12.356163716257477 -0.03750416759304508 1.7167368936445015 1.132673529562572
Ni 6.793306331822067 0.5475492793065271 2.17714730029982 -0.42889908807053867 0.4346766139842643 0.42462591461648164
Ni 2.5051573392244046 6.641721857068266 0.28976090231274765 -1.3680963334153986 -0.21982469230425367 0.8660233922643473
Ni 3.0298035738208657 1.8029407199163492 1.8008529387479675 0.5655264816200067 -0.4072357441644922 1.7266605805161166
Ni 9.243715092699944 4.937303937998465 4.4808484461118185 0.10791074234106576 -0.1053892614707927 1.7852927883370286
P 8.84927324063818 8.49671968982129 10.768140308099285 -0.27403460268775387 -0.5834617259421887 0.3686928508942876
P 9.107331711882068 1.4155307953486338 7.68144635591349 2.795451452492115 0.4904937209538843 0.490347168073691
P 7.431041502788462 5.252432850440687 2.2213934769631862 1.8479955666828884 1.5965594181209406 0.9093886466238597
P 1.1766442773668242 3.3289542790461524 3.799666956542027 1.364447423808902 1.6749459257506447 0.7645244669868962
P 4.900353149185393 6.1688768565452206 11.826087165685152 1.528694635958167 1.3282961706993253 0.13054364924923323
P 2.833715148242192 4.133683512509372 7.937635016787329 0.44332760479104294 0.14012383673850062 0.8674827504186932
P 2.7477588377691085 0.06242115044785131 6.980221977587411 0.1237111997084321 -0.7383161840226445 -0.9643598606534166
P 5.965822842411121 1.9865005630864874 9.710123320778303 -0.585379768900508 0.6130767205951441 -1.4798375052461483
Ni 7.325572067368953 8.617134340413463 4.164225959851452 0.2588962043844187 1.896365473345844 -0.6923484590432785
Ni 5.550275730875977 7.410068921192328 3.591636574312071 -0.9854794162408512 -0.4377557671302203 0.23238041748207722
Ni 8.824794172286254 4.9031583385900275 10.193108701919453 -1.5433684359202582 0.09408386376030248 -0.016146784963191548
Ni 1.720462465225363 9.315019974728553 3.9894844570225705 -0.2849473929455157 1.1363046985572558 0.14141324497388547
Ni 4.8399941920295975 0.83967563863075 0.7190913498955277 -3.1843698864046575 -2.3243734170606807 1.7038770069626978
Ni 5.75780288487152 4.738476661953779 1.236953006469091 -0.9392198710526792 -1.062490383679267 -0.2921202565448711
Ni 8.95889359821725 9.130967328014357 6.1736636848164395 -0.2903767914912031 -0.012957845712248653 -0.18624094281153733
Ni 4.902220116458071 3.750054907443175 8.523318761111788 1.2185326914202368 0.4585253955774039 0.01332602768494479
Ni 5.224532588254055 6.01369112512331 7.1354882634347945 -0.4797457384087609 0.322885819862502 0.025433352471440067
Ni 3.4966022539379766 7.777321285409851 5.250954439808515 1.0208081734491323 1.1318471770065346 -0.18426067915671493
Ni 6.835753775549624 9.617914091490428 10.50866407896711 0.5980841038410538 -0.2885338247451934 -0.17440975450456414
Ni 7.4785022748776795 6.867748097948425 7.494929691479007 0.004263917482676527 1.521044061391445 0.24002764961468984
Ni 8.430864077751009 1.2098516546433051 4.138537627418338 1.1332201460946614 0.5595612651755073 -0.19883343476456722
Ni 9.619904259649122 3.8622909146022404 8.109782667116047 0.2551475359752638 0.8027205184406433 -1.1721422770811554
Ni 9.255362314923916 6.825982997589564 1.829329402001498 0.05683166427706342 0.6450213918225407 -0.139980626292417
Ni 7.241662787001954 1.0364227151000387 7.1424794398665465 -1.5824211789473457 -0.6688881711378093 0.2841374954497106
Ni 1.8699525249169193 4.882290003897444 6.222973417894996 -0.6556588169317289 0.5969972985347783 -0.5067963147686498
Ni 4.650359597479829 1.0098113237209407 11.010235735312207 1.2082364517005513 -0.010562091786562455 0.12141777568856507
Ni 4.695943925305135 2.4339661810905784 12.90080355925582 -0.09818168797875995 0.5072115479291974 0.06848827467938529
Ni 5.6573941627698305 2.4522283431943968 6.667052906931939 0.2726145824117756 -0.7799145762897214 -1.009208384426675
Ni 7.80829209275561 6.668428018359684 5.086991119107644 -0.7324178162603386 -0.6875260979539708 0.3333967466961549
Ni 0.10351054133188084 0.9981167165408101 9.894005381650324 0.8521656604456486 0.04041259948909169 0.37365585132651774
Ni 6.360425803323827 6.940976809197104 13.407854811931186 -1.7861014002812532 -0.2137196078477803 -0.019440368112798777
Ni 6.983699085670385 4.246497616133583 6.629615948468673 1.3730233384033708 1.2519521474209472 -0.3183866464405678
P 6.696972715950083 8.61564645279006 6.2907869763537825 0.1289631921359908 -0.7720963657968832 -0.3667164438942071
P 3.647902418954821 1.555761834606651 4.196266719507289 0.9582735452500205 -0.9011207501881126 -1.3774122114996858
P 4.049764755151141 5.850923800715899 4.996416670807268 0.5149238289717906 -0.9181062290025157 -0.759245477976144
P 9.01239121372117 5.733930343958433 6.671366833340687 2.102243216551702 -1.6978539406970696 -0.2905796515306286
P 0.8327650166244687 3.0651148431508224 10.136697859310855 -0.32478535087806 0.6214338343105877 -0.024991379838015026
P -0.024310377907999302 7.829435260193918 4.158607999449197 0.3421369547826301 0.513513064667193 -1.101716419059425
P 6.822012138263409 5.5435281131188825 8.927353223698454 -0.6427055992051705 -2.072465471068637 0.6910302544524873
P 7.422749135460574 3.042028892509981 4.745719926352299 -0.05429887055288068 0.6274820973871967 2.3024311084616347
