# total energy = -340870.47137200757 ev
CRYSTAL
PRIMVEC
9.25316523001579 0.00000000000000 0.00000000000000

0.00000000000000 9.25316523001579 0.00000000000000

0.00000000000000 0.00000000000000 13.54294263840427

PRIMCOORD
 96 1
Ni 0.8829240639962189 8.633841551530708 0.21384157188807024 -1.8832983557492404 1.571030420611901 0.012187800315443526
Ni 7.232005537930642 4.178812659348056 3.646776020298208 -0.13536318212506365 -0.22990573068933956 -0.4189316924451817
Ni 6.782209180083679 4.885467628539882 1.193806354741488 2.206990730673438 0.358386326761957 -0.9910623096452674
Ni 6.557977229050858 8.018663372992554 8.756175797320115 -0.3792922236766887 1.3121601843694113 -0.8463035452379167
Ni 0.013442998327094578 3.213975876195193 4.113154050090485 1.6450141711882185 1.755063557138842 0.3048413036559653
Ni 5.505309402312655 2.5440744789714413 3.961432677107369 -0.37950562523907544 0.2672710587116752 1.9976918776011723
Ni 0.4279949754416299 2.8159972431773395 11.421738782786433 0.86416962688506 1.6620207330485441 -3.5151207108375333
Ni 4.32766832708482 4.682536463677884 4.1635884267299605 0.5710170724209328 -0.5778937449361079 0.7468679302473976
Ni 5.8831624011334895 3.745320378491966 7.059935529470437 -1.6388316965265903 0.11693120067212119 0.12814095334501158
Ni 8.66470085729947 2.000784140468529 13.054177551623754 0.0036031439702260523 -3.892997285113618 3.0973683834124333
Ni 5.753590329565273 7.0936244531414765 0.8411034587930686 -1.259139923418638 0.0035128982492649177 0.24889744130049393
Ni 7.297647491490945 2.153812985687066 10.729734349973521 0.05447807644322231 0.8680093123461246 0.46398976112608475
Ni 5.751637911719032 1.4817463478186697 2.1046953344481594 1.1962216866278623 -1.1379337495202466 -1.3339137739964189
Ni 5.08526197041669 3.645090093608232 1.6382765907292303 -2.7711735537813564 -0.06635220217298896 0.6208679345047887
Ni 1.917570426292069 4.8441059803280755 11.768438225186793 -0.12473578431820453 0.25466468280157434 0.5751670900335641
Ni 6.0781636034636035 1.4975600070566957 8.188903105386473 0.7270501241905221 -0.8446199868879067 0.39450904062644315
Ni 0.9739048849979567 4.187806735871965 6.717339865813239 0.6265444160642758 -0.42647788022355587 -0.39189679981457665
Ni 2.95449861911343 2.80529133110104 5.376886573855827 -0.625707007764645 0.30877586282368114 -1.0217905919670596
Ni 3.149620112590469 5.517625365124717 8.596098816208304 -0.9120150285031132 -2.330631739265567 0.01114290399069694
Ni 9.034346298633979 7.0273902970116975 6.65333572248414 -0.7959831997168099 -1.4616844884862052 0.9329774896873932
Ni 0.41138924526693005 4.379911697510739 9.278432766124984 0.6653073957650865 -0.03129906722359771 0.8103708358970494
Ni 4.875316906372467 6.996059079820382 4.716817589918398 -1.4841158209065277 -0.044788102848968024 -2.0925743260033705
Ni 2.6593781698813572 8.078124212233956 1.6552996386521075 0.6589431441099554 -0.17177591642614287 0.2711750217517717
Ni 7.417411208002224 4.837388182430588 10.587155104156682 1.7203156121346954 -0.7814616090618671 0.5548726014505863
P 6.324889998971347 6.6730773503275165 10.506614629391496 0.46807472982873577 3.1466883126934837 3.2083096850497066
P 2.9979052168229567 8.692275289440675 11.395357083632812 -0.6868498978225525 -1.0560392287372844 -1.7566933794327808
P 3.4487934481573896 2.5063493246628203 3.1221900298255747 -0.6225525212960633 2.273995993049393 0.41251087652050245
P 8.773814180725338 5.2184335232275 5.369099110067224 0.4931494134091765 -0.4529175624723232 -0.928988166022342
P 5.571071647019884 1.5487947824814774 6.027327639456704 -0.8754002054935569 -0.4274124762226833 -0.508778378195685
P 0.4307440908071171 1.554929630974638 5.284822207215252 0.5268612038393248 -0.7510590855106097 1.0567072013385868
P 8.189273231992395 3.8736432727651953 12.495613013410948 -1.8596058972283072 2.028668785598661 -0.2238150444105694
P 6.5733652426920735 7.469469515125183 6.324419012865311 0.8443160824942427 -0.0983413534850758 1.7301634514630524
Ni 8.145200406392208 1.1953978991469536 3.877249231223393 -1.1788785673637245 -2.1331298788282296 -1.7518453073118605
Ni 2.0437280799206534 7.119200201610701 12.729092577692736 1.2747020395229531 -1.0328391364717373 -0.5963390961254891
Ni 8.45483907174158 1.849707713096232 7.542849890698804 0.9547843011498395 1.6529676217073404 0.13096710993989702
Ni 2.6563523848779433 0.27239652626147826 9.037313788696961 -0.3775050498692789 1.2633994700259403 1.0209138457890612
Ni 5.0178896749737 7.452434438087613 12.073370730741862 -1.987439860855861 -0.1301628688710468 -0.3196045780080689
Ni 4.981533989106991 4.888511919873593 11.322522644802927 -0.17046799624799674 0.14173051910398818 -2.9632748120284127
Ni 2.065491524348879 4.346794619445849 3.4479652898766386 -0.10634134097141686 0.564209562580796 0.6901936174838049
Ni 1.6940509689756478 1.1656952390216966 6.8992755989543 0.2536832927249115 0.9750988443374754 -0.07398709301042741
Ni 1.788803380091733 7.41238673932683 10.100867964231849 0.26216099117861946 -0.41146726574733644 0.5868185582295635
Ni 8.707617037256151 7.350520077146932 10.452944420899748 -1.1261069320886476 -0.34440543910183263 0.15841286485567557
Ni 0.2676764867194553 1.14650417450463 1.7231364429855298 -0.6711471423753151 0.5025637647445409 -0.7608704151740766
Ni 7.920181936321803 7.480212439862074 4.5541663782624 0.594015590198635 -1.876137062114111 -0.5356235234129872
Ni 5.9531255828179335 5.846612398798671 8.837379724026418 -1.1211107644256368 -4.184666570164 -3.7014755535191157
Ni 1.3122561218017428 8.415041208439794 5.765243765752732 -0.3957627105278862 1.1290498167670555 -1.0268165844267414
Ni 4.857865436903234 0.24642566764043175 10.248161697691621 -0.030390182256083146 0.24772656092084433 0.5867707357107635
Ni 6.837330284870643 8.85601929990066 11.679962235990635 0.4617297614473145 0.7519224619521695 -1.5983234519998988
Ni 6.527423277731979 2.62658495259665 0.11135258939169614 -0.24784868832100543 -0.1537195731450643 -0.9214563764216711
Ni 7.095567617822568 9.27028350357909 0.4417461041681547 0.11657021778827664 0.2455048706791772 0.6546584006916726
Ni 3.881277134012341 0.4865369753838306 3.4487508835977088 1.6689465136340997 -1.0296147159971687 -1.2273001532002217
Ni 4.121581832907334 7.472449034302857 9.271539158089682 1.0053203622261784 -0.7674444688471687 1.9798021418049452
Ni 3.9383136439849533 0.5194116205218411 12.885094464873342 0.832937665453972 -0.16942952768115335 -0.5003505591433061
Ni 7.971648040875285 0.44616541584286584 9.294182578523488 -1.8287292622541087 -0.4576910726015666 2.256532031936675
Ni 2.12733968019848 2.822853838552048 8.537944523885807 -0.048694636992225815 0.31852034380495464 0.8430960940442126
Ni 4.665168272694984 6.659910096321834 6.958648533126795 -0.5827677851989576 -0.22084104938391 0.9863754456925593
P 4.731411681989912 8.977124725358406 1.3113048964245226 0.16844299539816796 -0.4855111801376284 -0.010789120195704
P 1.6616001188014184 1.5654967455737172 13.313701074531258 -1.103124098040229 -0.10169818577245067 -0.4867445383240972
P 6.193050901941858 5.873788944838509 2.9762648394911997 -1.6362965888095624 1.9551118381471169 0.5469579745891999
P 8.687759744848425 8.428920956161877 2.7974030078123224 1.1171011290456117 1.5288486450375283 -0.17351526771475279
P 5.503162667998306 1.64108585166818 11.814673515482081 0.27430996783632755 0.5324099015716959 0.6726175562732545
P 8.331762722107296 7.745732013785518 12.78973782207309 0.9493875556143005 0.6993801690790793 0.022015842149458856
P 2.726278553901796 7.928380240642979 4.27523619208988 1.2769640960842523 -1.4666953114372352 -0.5328148503195985
P 4.675901944266728 5.238013220680785 13.266463666450436 0.22430792488658788 1.07458922382533 3.113827557409721
Ni 3.9715880258573595 2.1659438851961665 7.3480217225569575 -0.05131253423104712 -0.7091328775904691 0.2965883196185537
Ni 3.1737801267920416 1.4702724230350812 1.2486285822941707 -0.32823448576892506 -0.47521982551394937 1.0489512115422515
Ni 6.890517478141666 6.065856893816691 12.59847119719673 0.2773127592183934 -0.8338437222080091 -0.4516726343216286
Ni -0.10700915367119904 5.585071685888892 13.20589892460687 1.5279557009096136 0.7713936833029037 0.1573067762756904
Ni 2.6412234598608735 3.752195480196971 1.3146915548687108 -0.4514060109238032 0.724670825325068 -0.8592806742238749
Ni -0.10419156488361624 4.863620905625324 2.0017150088824236 0.8067131845398041 -0.5088246580525883 0.38883667283201423
Ni 6.5438568990349255 5.408928434130512 5.486056341589097 -0.038366258483024246 0.3687314174417069 0.5758869989187243
Ni 0.9927720887348411 6.675446160605419 3.5276248633197307 -0.6602775466506628 0.44665435517143076 -0.6365161825650071
Ni 2.0386018264286307 6.140779772020494 5.6215532148016125 0.7084055125061411 -0.3459442443438623 -0.2825120440311457
Ni 6.413063409667165 8.442125222828151 2.775504467172935 0.32185660726703924 -0.6396842958803436 -1.0568874356701927
Ni 3.9788517604985834 6.122291948054679 2.269498832317596 0.19263990435934567 -0.4810865687073714 0.00804215357818615
Ni 2.4542262453838255 1.9327548703000277 11.218296843208261 1.665353139855887 -0.9579714406285695 -0.2940933211108419
Ni 8.050262931973162 4.565234089095989 7.56325959706587 -0.04345704274237031 0.7474420575833127 -0.2141286703607409
Ni 7.352500254488617 2.4955323746047444 5.644698156786443 0.7113512253980265 1.2048366819903833 -0.5041066837516286
Ni 0.5419060649967633 9.606728588362378 11.082921186459185 0.07771802080776938 -0.7857931465576855 0.07713180928699619
Ni 1.584946898714929 0.233154778185091 3.2986812005935198 -1.440061768010107 0.23210299545097446 1.2127533657342984
Ni 6.067661261020561 8.899370378619299 4.911902996051361 -0.6250156381245752 3.6278882670502677 0.82448413536998
Ni 8.281767870812356 -0.014158267993039243 6.136794433791226 -1.0941956852023478 0.48757731863803766 -0.18586916129441536
Ni 0.32693653227714514 9.027323146286607 8.103176231555802 1.8525173658126417 -2.451249901870972 0.13238301645081718
Ni 4.743736897967121 2.676931424167218 9.828505674681418 -0.1639379084389628 0.6026817505140654 0.7437324699422094
Ni 3.542694568079854 0.1882371386068867 5.625941065714821 1.2666979382715537 -0.07920668953815391 2.468893068874032
Ni 2.396486494859962 7.574835306666087 7.736650032192702 -1.2445211450641986 0.03548070940511309 -1.5166824419886398
Ni 3.9277835420464666 3.2529687141290973 12.74422057739329 0.15434435121325676 -1.0354284944654684 0.3417055236721664
Ni 8.092559149864922 7.043120677763391 1.3432810592266569 0.24556169205904158 -0.30735121456201264 -0.07594370251616597
P 1.897639108563158 5.872872881488852 1.5001656983623883 -1.034855395570818 0.13790574604125927 -0.6277150393336093
P 0.3915504591894997 1.7713426574573528 9.34701352493631 1.1435760354076887 0.5548782578775411 0.7355391354981397
P 0.45205690609263266 6.4127858147127235 8.60487451803472 0.3855670009418069 0.17936709850983948 0.2598212873018493
P 2.947401441444871 3.9304577067742543 10.242148065661901 0.5816539833094886 0.34618901336481667 -0.4477966963059901
P 8.108567125571058 2.7437762891967683 2.2416551330705836 -0.5885514817602703 0.05283925528821868 -1.3035490456616323
P 3.585749545513755 4.781822925716517 6.314166505881267 0.38735828851427484 -0.71123012643913 0.500748565912673
P 4.441204663451456 9.031875703539448 7.916567650014972 0.4267496458277037 0.7395875945359005 -0.6232593175551008
P 6.754366406153181 3.583436254226741 9.073758304949092 -0.6303792164293337 -0.699427477377247 -1.3105105645811301
