# total energy = -340862.6248520528 ev
CRYSTAL
PRIMVEC
9.33542211873955 0.00000000000000 0.00000000000000
0.00000000000000 9.33542211873955 0.00000000000000
0.00000000000000 0.00000000000000 13.66333390970457
PRIMCOORD
 96 1
Ni 1.9853828762723504 0.5269341629271475 1.9674794038824022 -0.6199641917435967 0.7193360433757161 0.07816719253004603
Ni 6.574676351555827 1.3480722843873783 0.32563539100243216 0.3406608844577359 0.16329230443516396 0.4409146244741761
Ni 4.545482339645752 2.114445085987147 13.164635722534735 -0.27651108925270446 0.1882523168146113 0.0009860180623531406
Ni 1.8578610111942946 0.13688716046943994 5.056335304565326 0.9949955832614024 -0.5273661685002015 -0.3436299943883888
Ni 1.8673364645657609 5.434970687120295 12.367079810691903 -1.4423641908910387 -0.811283577519306 -0.9899839889794241
Ni 8.31752496320681 2.419564019970396 12.290319302960986 0.6160090637505907 1.3126746621119842 -0.7500093040898567
Ni 1.844847432869345 5.687699232610274 1.2434138014295761 -0.6418818177522946 2.492688114411101 0.8316112333330646
Ni -0.12638947838450043 9.182311783961254 8.904189956977948 1.991494747651525 0.1657227682535275 1.2985487642335636
Ni 0.3340643435631186 5.570782406970628 3.2857175465116213 -0.6184253865015671 1.4258697927804411 -0.0917870973063258
Ni 7.62982176314531 6.451458116038605 9.39351450512911 2.845144448841868 -1.5286092753332128 -0.7374296676526333
Ni 3.8501987768870807 8.463120205355958 8.679113865115179 0.6253606801688197 -0.4324896336352745 0.4660178472997071
Ni 8.724259966104745 5.296890459714033 12.361833303504945 -0.4445776751480601 -0.4906706128513808 0.9070204035019992
Ni 6.582760827043207 3.944411856123372 12.858604717818094 0.7722832849967087 -0.67697120525626 0.8860075486957579
Ni 6.313816653468264 6.302212723871483 0.19864844560731712 -1.0752397129251352 -0.6528228901448305 -0.4984435719285803
Ni 6.021085824533227 6.250149075149644 6.78726071518573 -0.09386352021938028 -0.17505021630204046 1.5597502197123911
Ni 4.685364303505898 2.959338122372533 10.887873786438863 -1.3865673956363929 0.8897317916248806 0.22339929702938943
Ni 9.082086692930654 1.36679914100133 1.0102420315729794 0.44208216241971604 0.7440898532816281 0.4873970843064316
Ni 3.4600714897998217 4.214438938655054 0.6588866193057924 1.3736064646003505 0.28205310211685614 -0.10161719602287014
Ni 1.0620629593217559 5.773501096587757 9.429012447439455 -0.1149069711532408 -0.1427864711723283 0.26862937251178254
Ni 2.333808833103118 3.0044282108298543 12.264071830350925 1.1361653447659144 1.2896851431953467 0.9879749289691954
Ni 0.5246395161895058 2.131930331469665 4.475547892511107 -0.6308114188707459 0.38326303539897866 -0.33760358568865084
Ni 2.9192331492850276 4.6316576205048685 8.32675022726758 0.5620583205657481 -0.696432142194349 1.5266632073504351
Ni 1.2400241096865423 5.072999032908248 6.858611345843971 0.9953298266723697 1.389749135798484 -0.603171288555974
Ni 6.868714139576583 2.6740102831158934 5.58655460250865 -1.3913640456940877 -4.159826628302184 1.6344708484547334
P 7.5475300178551885 4.398384094548027 10.766925925561976 -0.2260246504673785 0.19274583380959062 -0.5185873938663069
P 0.8332573663536665 1.5242503691423614 10.64579975812411 0.2573355447655181 -1.0536041369332307 0.6589590849495555
P 6.040839577571672 7.7235774067016 9.3716668169269 -2.5724007970513956 1.051251320430338 0.7614712819828692
P 1.7242524509456023 4.879765132084627 4.680197147406285 1.0143503336389303 -0.5609987689529822 1.2485102116189337
P 2.873004139338722 2.214847550036524 0.9643332266026752 -0.19967958481494644 -1.1804981052450185 -0.08885655392309214
P 1.22916701385303 1.8123881704332983 6.578662576767271 0.9943183546887199 -0.9632594285003862 0.39620262627878217
P 8.177960403696051 1.9270831656272218 2.877525284233107 -0.3137092955695565 -0.6429969051933442 1.1116267361946017
P 2.592540054965367 8.27080117589234 12.505051747202492 -0.1131665914233664 1.5965488765979794 -1.9294982513440706
Ni 3.8103178539285554 8.409012099207171 1.6176428647812617 0.018445608299697266 -1.3568672974687985 0.5822710480681972
Ni 5.795215288254782 2.821285901232395 3.2659740624374205 2.6280752077955642 0.7300667995296588 0.6204120779142928
Ni 1.6167550661451768 1.0061064396088815 12.79349855096298 -0.4769998002325075 -1.6798809011584164 0.35134587497540787
Ni 8.860874532250593 0.4551083592870264 6.233978257090477 2.594778393415647 -0.5473045592953413 -0.19565786525006304
Ni 8.516612173650048 3.8313879014747614 1.9263802083475454 0.07055672717263978 -0.09358995484301946 -1.2231125974814354
Ni 3.8873817628757994 4.246207379860078 3.6038276538069214 -1.2757821599610093 0.6733847734565822 -0.5798914920924271
Ni 9.152335743788074 3.4197611374274173 6.538028285250049 -0.014631890980561897 -1.3434623369168024 -0.6934946568325798
Ni 2.5112752060997385 6.855187113039387 4.0483095021848445 0.39395959588087637 0.7049584344978053 -0.727254012671212
Ni 5.886375684483714 4.585858039972442 4.993032741248504 0.8171804026197153 3.1408405956634553 -0.1779301089529968
Ni 8.725314868795362 3.9159574897428513 8.869375367560993 -2.1055511978790125 3.4934589095933832 0.3363517155594207
Ni 8.360944011118818 6.173365228863625 1.2485025399840453 0.924273534155492 -1.3981355600899663 -0.2939082016832293
Ni 3.504834838485713 1.639962925338738 6.601918046613242 -0.7086693076904892 -0.03163382485519713 -1.352105100193465
Ni 0.7395894757645609 3.7333939763119246 10.794485024968779 -1.0276524500644753 0.7042413538261226 0.9380325356127974
Ni 3.473561174648855 6.6253116807054155 13.190514445974184 3.0421102342700768 0.34916172283989544 2.045454746807748
Ni 1.19612895525045 2.7144886730850333 8.831582778513008 2.3499520368607336 -1.6561709591359863 -1.9629578165540968
Ni 5.5225649521296205 5.394277582444215 9.24976300883303 -0.8814047598164241 -0.689537986177677 0.34967465792057195
Ni 0.49738941925225505 7.446418061730707 5.483956447195264 0.4700038285306486 -0.4100513592364164 0.6544629968514147
Ni 0.11603649534119412 7.19273730319256 11.229210423771807 1.3335306796253872 -0.5417247512147186 0.39830887398850756
Ni 4.694130264802259 4.835916654758739 12.197995713145765 -2.067147401289833 0.5987536191042527 -0.21065588132079202
Ni 5.449645970568515 7.157057320152418 4.837462600648704 -0.7091842996536948 -0.4287224532833584 -1.049396012389154
Ni 9.2239571016855 9.251253875732955 3.5521523586419828 0.8299690697439513 0.8379217489321248 -0.04802666439092374
Ni 6.069013881290967 6.5056595764077985 11.350855640675146 0.3192685348248888 0.5620974013337997 0.40363260019426617
Ni 8.118428417341532 3.8349540326943674 4.382883559791394 2.225043731520407 1.3476357515682016 -2.0730118304904104
Ni 4.784814554507108 1.308695474219059 2.181159746059901 -1.9784836801038377 -1.7424132153646832 -1.8075703687883062
P 6.16772663395095 1.413821661821108 11.571641172567938 0.35066607529956384 -0.17067908381753832 1.5774838895467282
P 4.630388003107313 2.9227712742385106 5.103938488636045 -1.3943717221721599 -1.5402687139490119 1.2008460727737513
P 5.959677418348495 8.827509733876584 1.5721308152476938 0.5600888555442031 0.5260770173751327 -0.4197924977835803
P 4.414954468670541 5.686317590148228 2.10139323243183 -0.5782423865247783 0.6633371594125931 -1.190776090132259
P 7.566807664369551 5.879952914119607 4.1145079134187394 0.32832473148988617 0.3935191659093481 -0.29223569907681285
P 1.2461014694351376 7.835471775283268 2.2693570793330666 -0.6657668519000083 -1.0034984785260912 0.43974708652863626
P 9.420187672984236 7.123001700547386 8.136174121098989 0.31649611428607427 0.3150483260959542 -1.4861475066245762
P 6.882605247573373 0.5201538458988757 5.977886159039178 -2.2805088544672465 -0.9887508879032713 -0.8977785731887571
Ni 2.774450088853434 2.0154989477761434 3.8874779177228205 1.959208119703677 -0.787381831201044 0.42572506121793136
Ni 6.415619430823769 2.8235264025221998 9.660387148553186 1.5517180934365342 1.340108332842905 -1.7052762013030698
Ni 3.301500011013888 1.234002762470192 10.758591260763904 -2.0418384902113993 0.2754746775683901 -1.130268262555189
Ni 1.7922983422013818 3.6806581772031444 2.689409061772281 -1.2357475126366264 -0.2225390059116232 -0.8401688930950885
Ni 6.864914622805955 0.6059174346459908 9.711911209881064 -0.6025786492772977 1.432681673495952 0.9240621894756345
Ni 5.791229063043337 0.927657154030775 7.805384643587802 -2.2865746010453525 2.0982407802605283 -1.2480996064440764
Ni 5.000350778586329 3.7447085078254387 7.492930868507054 0.4751573477071301 -1.45619518323686 -0.25243759324326853
Ni 7.322303625697562 8.729954573549666 7.8970790259574715 0.21389649974527677 -3.157997567058716 -2.131186381948613
Ni 8.32498396541745 1.870949272895571 8.219068934652949 -1.0837834887300883 -1.308471165553598 -0.8824758813934157
Ni 1.8997957270018075 8.719461559175748 7.312521036940952 -0.8883495665653732 0.12442802326979863 0.4437382099659003
Ni 6.196843815296372 6.7335372284250266 2.6009111279093995 0.7810777433598871 1.1600231252201183 -0.10979767495113349
Ni 4.431216773865708 8.722532913027187 11.051259542371266 0.8226637943317896 -0.9856066858473348 -0.14778135328375838
Ni 4.367166443243414 8.660246977170614 6.359967245869426 -0.13287923936094534 -0.21621409213485987 -0.42003161037757986
Ni 1.7479924291954922 8.657959798770605 10.39121159656359 0.8062437011025534 0.5441464732823338 0.20127906809158239
Ni 0.7472333193316115 8.206685497315757 0.004085180685077399 1.5202956132611947 -0.6372196363899348 -0.12227292460000878
Ni 7.690660708585551 8.383040955089516 10.791041187777907 -0.1400976114862555 -1.3545551043958541 1.9055828781790534
Ni 3.20349675042901 6.617834007650692 10.575406941767259 0.3870356150675335 -0.0636340319108775 -0.07657747944542297
Ni 8.308170870321874 5.625263930001047 6.550475203457118 0.7088526273458889 2.5940728827081903 -0.6902278131558499
Ni 8.313566744261488 0.29172353689682845 12.772060687788365 -0.059956068838658026 -1.911638083234198 -0.50922832124891
Ni 6.247637846620654 0.10232182682097654 3.807192354629278 -0.5663294371372763 0.7539191806672242 -0.1221086311080026
Ni 3.7853269291251914 5.148111838648954 5.901809004201652 -1.2948206646496991 0.8486031399053708 0.22111332920869017
Ni 8.435104603811356 8.367357446060884 1.527834237663845 -1.9209225938599173 1.154877833573753 0.3389369597880937
Ni 5.429238737987211 8.389342364967094 13.110719926079991 0.48857362111303604 0.4066091663240869 0.7908047408396638
Ni 7.705513365052549 7.929946246336702 4.714601911795646 -0.1349816304159288 -0.782699081013394 1.2512260678882
P 4.060983271147507 8.63579750684562 4.12569828381911 -0.9342702403568878 0.7405409595881053 -0.311606904514573
P 5.851815952088475 3.9160975210734645 1.3748453412583415 0.20631945872896726 -0.15040233584637325 -1.390414794406941
P 2.947006029856566 4.402641046998656 10.587621407965512 -0.2693675362293877 0.5204992661770391 -0.11084231416556395
P 7.140692325314803 4.077189563810428 7.114839741057068 -1.2807078793974007 -0.524366205331613 2.085837778610485
P 0.7042063591453187 4.2343794001343165 0.21503117774681055 -0.7080722975364386 -0.6053382143003059 -0.11600611775469054
P 4.101676375823587 6.30720717466334 7.840786431051126 -0.43443724427994856 1.2874331139363764 -0.5516204130618758
P 8.015869470800718 7.458246041456468 13.010649803055268 -0.4205286046186564 -0.4982229712773419 -0.4357888732118366
P 3.9657806371748854 1.8934102983258638 8.579808313155603 0.30713832722025813 0.3717246957420759 2.715879923415374
