# total energy = -340862.6619930067 ev
CRYSTAL
PRIMVEC
9.28224648243162 0.00000000000000 0.00000000000000

0.00000000000000 9.28224648243162 0.00000000000000

0.00000000000000 0.00000000000000 13.58550599088976

PRIMCOORD
 96 1
Ni 3.000941046998346 5.022391584893953 11.01924455767696 1.370330879172872 1.6761839119228037 0.6513437344961428
Ni 2.2945899266625793 1.9058865675921746 0.6729638075016774 0.18126097309844266 -0.12702200924921997 -2.0242724563031786
Ni 0.6207623090123245 7.56495672976185 -0.04867981412524668 -0.06206900141660279 -0.03952196935402226 2.5824422404477976
Ni 1.2163827248548595 3.3635705753392457 2.4231249083798283 -1.0652844014846363 0.3135267472451052 0.5357358806211354
Ni 4.031001235636274 4.901054057198655 0.2762721469980893 -0.37774879044896875 -0.5005719311254928 0.5086500801479369
Ni 6.348518311427326 6.822302742931567 5.780619325087698 0.6972296983949798 -1.0317651866812685 0.09086458549205641
Ni 6.144540942156809 3.790980902776342 13.408894900104556 -0.7324496979395386 0.7021618455892745 0.430964969460632
Ni 1.277116464428784 0.48748688395098205 4.591738040491072 -0.8367367274850879 -1.6834179677773975 1.8707233472977074
Ni 3.8714208519048197 2.2243140375728374 6.213426350704266 -0.5853982808432693 -1.1049323548935615 -0.17392767266182305
Ni 8.264513245578572 3.2636379083282616 12.617362459071558 -0.1103535474546035 0.40318008603787986 -2.0899073206941683
Ni 8.209534498903292 3.330776398063581 4.112821454835766 -1.0780686977334981 -1.7542423467891273 -0.7779399690618538
Ni 3.202217282505144 9.020329458102852 7.199937951143352 -1.4829680804553298 -0.6904728392871204 -3.439748564554121
Ni 7.626525871530739 2.760503013040932 1.452059894525637 2.7907203655650323 0.5480548071978044 -1.3642581906162312
Ni 6.54185822608196 4.113037731181795 9.17665641439725 -0.9223585765209664 -0.955451245309877 0.9091590471115568
Ni -0.08585242712718692 0.5151758255907523 9.380737744829807 0.9586334996926006 -0.5585855315257994 0.793368387801782
Ni 8.816983281601864 6.9613322326668925 6.881656212434478 -0.4703468136923642 -0.8367141017772688 -1.1090391779730835
Ni 6.564200593673957 1.4174547509362216 5.958440251633874 -0.7860204320771431 2.6512956117760855 0.4191085843426782
Ni 4.041657254745378 6.754106077082625 6.931977127760498 0.8153860297234539 2.7932541877304793 0.7365932877942669
Ni 6.694848214719805 7.606216315946488 13.167534210834038 3.3551749542770986 0.8135831721867601 -0.7854853855092795
Ni 5.608157039509889 1.9951539332474444 8.72224774446822 -0.6636940285313796 -1.236872113159373 -0.18856856250344944
Ni 6.054772335184561 2.4674160763075275 11.322907686198615 -1.682910689123676 0.7826630855691359 -0.9151985684374174
Ni 4.917223730794524 8.753269940865898 0.16742109744352773 -1.3268365554346633 -0.060157129105870594 1.0987174843321013
Ni 5.109886041446576 8.923942609297162 5.748733879755222 -0.8085489521969622 -0.5976747842177771 -1.4566037315291882
Ni 3.490217548095875 3.0137227005813045 10.288113551789221 1.880086276569846 -1.830686900201112 -0.9857300987990765
P -0.0033945175855393775 1.7336080704972583 3.004584328793053 -0.7058079269822941 -1.1408853759494029 1.8566087622731962
P 8.120165028535304 7.366455885991656 4.093652687359973 -0.11643857730641882 -0.14106486049553124 -0.13163019744519266
P 0.6502427242479631 4.046586127695669 6.8452883702136855 -0.5026763790630052 -0.45827445590886234 -0.9213041671145231
P 8.24468636681808 8.452042473854897 11.351410680866145 -0.07416089958413034 -0.18076732129147577 0.09858483695444956
P 3.9966197941901767 4.983703181020483 8.184167047140862 -0.9113977066340884 -1.6125712201681648 -0.02646050818437378
P 6.015508432021226 6.034147183215547 1.0353705619239195 0.20711701492959814 -0.2494620555547123 -0.10085717792839405
P 5.394748907682884 8.708037553131874 11.63904244126643 -0.8125264487874716 -0.5184845497398555 -0.65446531084426
P 2.8121587154295744 8.82041771284783 1.4983866591350672 -0.4509223864191653 -1.3634737470417229 -1.2133637456247877
Ni 4.06536411258915 6.915580039122665 1.6578389478632938 -0.05531599896348538 0.8139973769060433 0.6365933156598456
Ni 7.911667205165369 7.5363395634610075 1.8340707537897145 0.4852905794863901 -0.6571549418612811 -0.3192646781701469
Ni 7.114712075662388 1.008181933376467 12.967135147631952 1.1576026887040838 -1.3089391063289522 -0.47881654172627214
Ni 3.536127539832483 7.20671770406782 10.656498073028764 -0.9744308717361736 1.8175516483707344 0.5669974097385784
Ni 7.930788633183447 5.663247173144498 13.168037308600338 1.0539365805719847 -0.56997988940567 0.9950539473031638
Ni 2.6971052686897314 8.867729323822656 12.624589616282663 0.2575404616874726 -1.0149162334447295 2.3067248507409825
Ni 1.122177204002688 7.334144385539749 3.164295592201719 -1.5193558750557448 3.274293191029367 1.3380864173168696
Ni 1.6796689354423793 4.4554412441579405 0.30192270728214593 -1.3932432649946715 -0.3721173031948043 -1.9029557249688516
Ni 2.2643854961913044 1.0535906837960967 2.796589603189418 0.9640276741249786 1.3941673194708375 0.6817015208523938
Ni 4.923628480955919 6.458642885216878 12.506938996941141 -0.774185387115428 -0.15239159836226013 -1.7744087944346731
Ni 6.489914774048384 9.224594577018301 9.793315970407638 -0.13516443585069626 -0.8407314504667779 0.6255414287210582
Ni 1.9356918614591883 4.000137765655639 8.691504015468864 0.6579149599557573 1.1183419434312483 -0.7004813725630581
Ni 4.56137952472606 6.082089986959902 4.35347576513921 -1.3691720829780807 0.8799986234975167 0.8958055086227862
Ni 0.9038958927050561 4.506493600516887 11.357130401227668 -1.2606828424257257 0.3567752735210953 0.942192580527758
Ni 5.205056915946262 6.076251453841761 9.458637143060932 0.4246369703600751 0.8480423823058943 0.315277925608257
Ni 8.530134014590862 7.620575951453269 9.072904102905955 -0.24721619694332908 -0.03468443875606285 0.63289118421791
Ni 3.7005346918015114 3.1577367567465857 3.7897445075277942 0.1390339461084315 -0.6888962388286201 1.2345984866338477
Ni 7.36650229722471 5.19156981162089 2.6500164316335617 0.34213361234852047 0.10667378461017113 -0.07510423733400613
Ni 0.30128316049066756 9.223220804519913 7.224609234409978 0.5132343570845096 0.23237373261385785 -0.6421939496760746
Ni 3.7758137118144295 4.797789063654422 6.069419720336272 -0.7720164044885671 -3.222879098223449 -1.2436055752284647
Ni 1.7329397487412868 6.009558511943756 6.506220896669433 0.054875568991957106 -1.0786047727426262 0.31191363712171444
Ni 9.159739519949216 2.653255935700702 8.41075968205373 -1.715523847173007 0.8787148716890868 -1.0773153645072413
Ni 1.644127213169942 2.8538824139447496 4.8855926190191825 -0.6250740021663364 1.8740292717424887 -0.6013000396751903
Ni 8.950666197289417 1.6382422688187472 5.654300943861089 -1.0565112832776966 1.1929545858408164 0.3522362480001611
P 2.3927682490641375 5.226071922272927 4.389911367760258 -0.5364465335349148 -0.04593687174143056 -0.22791646817345265
P 5.504093772757136 4.522097057069503 11.375130533855172 -0.6781719104325804 0.9088880528383573 -0.4651752967937537
P 9.240615734668399 5.535736951453072 1.740846366404296 -1.1372094697597124 0.3668290582126715 -1.240838554006289
P 2.7291011727568746 1.785133821433351 11.881639525785499 -0.5650156034218592 0.5032780172027461 1.2493157382393645
P 1.1645692242738348 5.933109928857887 9.53736451768973 0.08699816055811468 0.4911781486154186 0.26132846797499515
P 8.58844508779939 3.5429407088447498 10.369735130911243 -1.5649698162401176 -0.8142922824386428 0.09960967867453813
P 0.15596680512590239 2.3989502253068755 0.4065466217301868 2.209536894134059 -0.7997053857634033 0.2905680815664028
P 7.763476138025264 1.023813236668915 7.835318870342895 -1.5261749548601071 -0.16561812435486317 -0.0740732249663305
Ni 4.578876559587262 0.32837432544870754 2.452061383964079 1.0935307979248392 0.059553691193916784 0.9482763248279926
Ni 0.49001258325375824 0.5976875721627419 12.59947000050474 -0.4005261933548005 0.5259060390149072 -0.4530826272952777
Ni 6.2508505125893565 8.531721278761294 7.618697224739259 0.5958675558057093 -0.7899758171804653 0.5299568120455131
Ni 7.690304187992978 3.765129845965494 6.403052438489952 1.8750667118680675 0.5936759474710293 0.5072318596441716
Ni 7.844101732085956 1.300452032408128 10.963014564158556 2.5568268538725385 1.3730019982471322 -0.8648692240552459
Ni 3.1867252129118566 8.11388094757985 4.554065114396814 -0.033479105594052025 0.028355154103925355 -0.4504755286897338
Ni 2.5644341178827466 0.24321064102003587 10.511078684726622 -1.1565588208206017 -0.06216387512325423 -2.4103716755993716
Ni 7.469980782440989 0.27827339936736 3.082727850110039 0.5429786782264778 0.6009506267555715 0.2125808662576468
Ni 5.528830959974698 3.5155209523566904 6.931338509193681 0.04085662900504576 1.3069238756711363 0.48486017681719074
Ni 5.170332031375568 4.707881222983013 2.811031850691033 -0.2658502671047486 -1.062026299558655 -1.755164087272448
Ni 6.111681789154869 2.3406669988381807 2.7932619177794757 -3.110168106280263 -0.11041808214395178 3.4659715028063927
Ni 4.216256313492973 8.883889715171916 9.07518567912287 1.9097154122901887 -0.5465016037780717 1.3089517047344426
Ni 5.923010844545426 7.7116255084577965 3.5781510549131843 0.35828836773151196 0.49912619981790174 -0.8622492699338957
Ni 7.707058643125323 8.866262728858162 5.664639510136105 0.7529146506621097 -1.523175763022467 -0.9632655991479733
Ni 0.5170378442608622 6.898268649193679 11.488189225798372 0.39351839457839966 -0.1368690772466288 -2.125337379367004
Ni 1.636413666236436 7.919826299936188 8.72675891632103 0.8455257865316277 -0.8051954623436971 0.3470505900341636
Ni 1.9095994662364615 5.677968816269096 2.1843047700066616 3.677922963010156 -1.3836281105024106 0.5406703418082752
Ni 7.269642053841873 6.430359879794022 10.680218854242453 -0.5761366530356852 -0.08184618404353002 1.619778022329249
Ni 8.373737441446885 5.230898690510499 8.841623933454676 2.5555019644135277 0.1649187842949934 -0.8784299934588162
Ni 4.561453782698945 1.6505226810847264 13.182003376850824 -1.1254579856507392 1.6479151468850974 -1.3258821619411938
Ni 9.235705426211329 5.264472576501465 4.251448095068187 1.6630214063989166 2.0168949328921846 0.3118244198420178
Ni 1.6826021253713657 1.9260847362170956 6.953184276592005 -0.17332577741176602 -0.05047049794572598 1.1816931539943842
Ni 0.3397617855907357 0.15663605510653508 1.5598880405036977 0.06071197316807609 -0.15862215265300425 -0.3544810781702798
Ni 1.1932699307941732 2.3656919357006747 10.265589252163654 0.5176227159601924 -1.1062832124945012 1.5338548400028682
P 6.7323299265338825 6.263632166172314 7.813323658774139 0.45105145579786193 0.42319972369291636 0.7561897218689557
P 1.5271523413816805 8.03770154964569 5.982255711762992 0.3302471453235796 0.03985904097846684 -0.463158523474041
P 4.829246597418145 1.3521727105230454 4.510442268225086 0.2073548419720171 -0.21286857270139467 -1.3301933877220382
P 3.2735977589415612 3.604667648806021 1.8029056107942307 0.42305085681987786 0.12091975300622401 -1.321265489104789
P 3.2364594902520802 1.43826554783745 8.350195807592783 0.8839835762871937 1.863196699903359 2.011941959762283
P 2.4887095500325134 6.517297401550001 12.926242210188436 0.44687701270519814 -1.039506521189584 -0.8810216654453923
P 6.048246915817226 1.2541800330537014 0.9634470740607751 -1.009300687030165 0.049955505982520416 4.2383704874453585
P 6.266574638347912 4.450521653454261 4.8828209401812215 -0.46272889213579016 0.4531265931593357 -0.6970456074086318
