# total energy = -340877.2673851955 ev
CRYSTAL
PRIMVEC
9.17142270564969 0.00000000000000 0.00000000000000
0.00000000000000 9.17142270564969 0.00000000000000
0.00000000000000 0.00000000000000 13.42330419133015
PRIMCOORD
 96 1
Ni 8.94370536338327 1.0134330275905332 1.4486702249473495 -0.7955024034256494 2.353407856619818 1.3620773809148286
Ni 7.816198181301103 2.9325623813072785 2.815430474515636 0.9808889686566913 -2.315255256809497 0.9339115714658884
Ni 5.2606729837171775 4.35861771236932 0.8675202794891786 -0.740572327046673 -0.8623683120102632 0.0018169986040807418
Ni 2.6686913812366244 7.144272246221461 4.696854275575523 0.8432994683042703 0.4515908732410997 -0.2663038097023994
Ni 7.1230037171761085 2.037532419682897 0.21901907491179545 -0.556927427097086 -1.137930664196453 -0.20400649432507448
Ni 6.696908593882426 4.194302504789957 12.320647016110499 -0.04647911739814575 -0.25180047387990184 -0.7630229427407053
Ni 2.126036647922507 1.4428665487162586 0.5426400590379328 -0.8642477884211632 0.35245222066570914 0.7267729592697354
Ni 5.247805477787625 2.2290317238946127 2.788328920686823 0.30819299373701764 -0.048161390196575116 0.07488106557960653
Ni 3.782661543538308 8.70403774759493 2.556951353800636 -0.037846895644444496 -0.6494241488759267 -0.38256549511132176
Ni 1.6504158425051054 3.6626351357692126 6.459857584966289 -1.26363061220014 0.44270694048790854 0.6140061743879489
Ni 3.16596591544923 0.5678706426531831 4.641858757003917 -0.5647186410067306 -0.1777323911198939 -0.021921739773755795
Ni 6.561492538964515 3.772838949917104 4.8892643020529585 1.041664190962535 1.0586226731937445 0.001649105567648773
Ni 3.2157759116740303 4.05422736718337 12.529231763512636 0.884933856015605 -0.8897521033398548 1.0657366585307064
Ni 5.3586788057864485 8.715025111888302 4.385622049118409 -0.3944365355172949 0.5583348489675739 -0.11585673666101982
Ni 7.396935767855971 8.355276059795173 0.05211936043938391 1.2815684276254833 -0.7830556930218644 2.1577440778324837
Ni 7.059638358325594 1.355316148428661 9.07673042842532 -0.6334771386283672 -1.6457952723286173 0.24689043817279416
Ni 0.6434165678793479 7.282797413406028 12.350366093953776 1.3541951499532743 -0.23497260368928563 1.0204273930709458
Ni 7.607575831066241 1.4375929807123442 4.70132442695832 0.2632495962571079 0.3021161914153184 -0.7632988221099113
Ni 1.312879975986726 6.576873014690715 6.642548654898075 1.2651491057271953 -0.062021178897802856 0.634116829094895
Ni 8.281702907573603 6.274830553694335 8.453164487654966 -0.06531064828235203 0.20971331490186462 -0.6645473776706103
Ni 6.7933185884166 5.978822888778955 0.7806375587679899 1.4675028949401951 1.3647729254691205 -0.4026437539184356
Ni 6.58989643480473 2.679009231679066 7.10102165145127 -0.3177857796317753 -0.23356338204658486 -0.6276332782530804
Ni 5.801520946776041 4.651305322297887 8.386598302311642 0.11120124016687945 1.0641094073399286 -0.3695084048170475
Ni 3.4203995216485317 1.4314756418278032 12.1078608400082 0.8282132633951091 0.020707921971312722 -2.0181370328294017
P 6.88265741611422 3.323365870376503 9.767199145748984 -0.09775514196430261 1.5763549181486078 0.22754083000158878
P 0.21341533569372279 8.319314911719784 1.0742028738408602 1.2154370832140486 -3.249630398175365 -0.3701884616032077
P 8.028268986439393 6.1315362467497065 12.194185938234366 -0.9860026357341729 -0.8161987554327363 0.7850436699861706
P 8.205699328358925 8.462902704188108 8.975452242766835 0.15084456559011442 0.3139450657294464 -0.9741652767796125
P 2.439561730033498 6.081625364876135 13.233780448835624 -0.8521363498696097 -0.19249386569978463 -1.5301686494005324
P 0.09581201777964309 7.023429581839586 4.68815609836698 1.6875070502451066 -0.5485332894961198 1.7576997092101085
P 6.583503953241725 0.19191293537167456 5.924912349502764 -0.7456628541957029 -0.9325445159150325 3.2786905487661144
P 3.35125616655025 3.2129235992406087 10.447518766806335 -0.586937600305931 -0.37489743704310274 0.2677433703624034
Ni 4.6864777280283425 7.064618440805813 6.469106047531763 0.14618366977933533 -0.7282605995588555 -0.9314571963881249
Ni 3.495641872786123 5.065624338953262 5.71005893474293 -0.1384356504028003 0.9735903781127492 -2.5570004033359255
Ni 8.398244174748807 8.437296092245623 3.467347116875033 1.2510918563031808 2.4542619492244184 -0.42100940090981687
Ni 6.505556032432559 7.688513635648061 2.5852075897367417 -1.870018865031515 -0.2823060986679267 -1.4314454870960058
Ni 9.276802261355746 5.09373474926978 10.478419123882489 -0.8149936793810415 -0.48706309800578057 -0.8220325885056938
Ni 2.6612350146502197 0.7725813811425315 9.2875300743891 0.7599108794742848 0.7179209081957442 1.4839813522111927
Ni 6.119567540236475 8.134776717273237 7.940528737703654 1.739416080409572 -0.40151503963063107 1.2236306747684347
Ni 8.62903385344534 5.290535135753257 6.042688090162015 -0.2602059243347777 -0.5869563693590085 -0.7533167711965348
Ni 0.9590831771710588 7.401998393139729 9.947863331282745 0.01622623205087528 1.3172070027646992 0.061064985632120636
Ni 1.0090490875803224 9.05507394820333 5.447364628193845 -0.3580117170313576 -0.9316875672313761 -0.4152347032095688
Ni 0.5399766779103905 4.055282080784153 4.058307733105008 -0.20998199518221902 1.2243729522510978 -0.7014247103129339
Ni 1.2262467179606789 2.93557977934778 11.07135343025932 3.6090546792835325 0.21957169575318317 -0.14915252259967215
Ni 7.705765081587823 8.024261074756417 11.054265235642113 -0.37003830917858854 0.3798352406643523 -0.3431317145957316
Ni 8.536292427957369 1.1767852357952682 7.335835750391485 1.0264388893723484 0.6863624166631728 -1.2744014775633987
Ni 8.17774483222687 4.036590721493757 0.8392099321596421 -0.3909881719573782 1.0331934344873626 0.4893436665098412
Ni 2.3439955063799505 5.629914458217352 11.044345424941184 0.07170806716826358 -0.23754422107120382 -0.6598792827709796
Ni 3.588869383672717 7.532122537208494 8.759685354314497 -0.17031373005831957 0.3967371586260135 -0.41399851680962246
Ni 6.93273338359487 5.722206483997166 10.37033482550104 0.0697897670996282 -0.2545338136506649 -0.3807965761363571
Ni 8.422896958739281 7.95510854823552 6.632132670233648 -1.1408869186112998 0.45819423749023025 0.19665828149011935
Ni 8.318837997743778 6.053414068910847 3.0391838377815543 -0.5284421751731995 -1.0843663578167517 -0.5938844639374095
Ni 5.592797710892409 8.749940717785526 12.360929738522312 -2.0517770894813507 0.8172935311588119 -1.3341248615659604
Ni 6.111487516912216 1.7348846447938937 11.27611277728853 -0.17615039134475471 0.73123690857836 0.7795145126378253
Ni 3.1306375955343104 8.48048432134203 0.09653472588174478 -0.3662071083579564 -1.4994709632063596 -0.0766705533798615
Ni 2.7729612849522853 3.0465631644179885 4.227415009000971 0.11690189009608255 -0.28401742493207865 0.5336651141350357
P 6.715783381625132 4.575989599779371 2.497137169786845 -1.6316097248568546 1.1680197702723496 0.8180100976098623
P 5.200416737133318 7.5195576882252535 0.7554565008348632 -0.5577599503007105 1.0963225017373637 0.621590157382794
P 4.9185880915815074 6.596527373355739 4.1345525207344735 -0.685639165343903 -0.5253740777708371 0.14014491978442314
P 6.614136504777507 5.6168176667224134 6.702833332892042 -0.27528852969951295 -0.16564254983489538 0.6164296962277771
P 1.3395504729526104 5.6872541924094815 8.736987000483388 -0.49954091875781714 -0.5679752002708154 -0.17598635496306464
P 2.301761105235556 5.075538646800621 3.361101688727993 0.9786935036672694 0.8910319984935429 -0.4707407066966731
P 3.0536801883676192 8.458087707314968 6.613393619545651 -0.876234271359078 0.3767941398451833 0.17681167907783743
P 3.8945070423343746 3.3101498503875626 6.6630596244353875 0.6438255717422267 -2.216469873808467 1.0748887573436197
Ni 4.7588677667325125 2.6257416091282213 8.864119426494975 -0.7306805218542577 -0.11934520943025251 0.4671879563484083
Ni 8.506054247594053 3.8621961204599558 8.085782060518953 0.656371012507405 -0.9851546859115807 0.6780047887270969
Ni 0.9617428897295549 3.184299589257622 1.9575071716513204 0.0275740529635267 -0.5430684097268066 -0.4288227263066486
Ni 6.950975343177108 6.886656156374581 5.056598741957345 -0.610071358109917 0.38175971138057474 -1.0258495925277817
Ni 4.643793927175789 4.414976104341589 3.539859135499989 0.796153663856403 1.5455407609812286 -0.3159703236895913
Ni 0.9320091376100923 5.595310680689057 1.5325786533143304 0.5784758426918231 -0.8370272621423134 -0.2668918209953855
Ni 0.2228729066948301 0.9286799112006644 10.031382891330828 0.5385792636072015 -1.5853820613478826 -0.7721292759173476
Ni 5.231718802520032 6.359491955858049 12.340701248801558 -0.03893035851661037 -0.6142136624130649 0.4111106537388661
Ni 4.8078615063445325 0.9635404885621937 0.8962149094263048 -0.016215433417597878 -0.77840045363804 -0.09804284840805051
Ni 8.33580512958246 2.5385122086321665 11.202404805154513 -2.6161751139238683 0.5667742379841787 1.0581269645042486
Ni 0.5602895447192079 4.7552358833767725 12.78169718241865 0.9673089159794115 0.3286206654637502 -1.0551082322825829
Ni 3.4407050513192563 6.274087668462479 1.5842183483509236 1.1094904065778892 -0.17198469000283928 1.1146891771700094
Ni 2.3484803320389314 1.4193968782431852 6.89172520165417 1.2360503885890262 0.3268625451220629 -0.4866288386818393
Ni 3.253360401552364 5.280593313638051 7.9200718795597735 0.5043681649431313 -0.5219434548227334 1.1421161630327104
Ni 9.164415648625365 0.3767638753294113 12.475994406656422 0.24320707578393597 1.868787049506943 0.10801590046036236
Ni 4.667355311875017 4.926759829131922 10.568637491008937 -0.26279836765230224 -0.5653328775519618 -0.8959901138297666
Ni 4.981907593318945 2.025123484884121 5.098600188967305 0.12233000309018932 0.44982041160423825 1.2551703972479287
Ni 4.86963103765995 0.3181768276615743 10.045597679242597 0.38277863956339236 -1.4292250824059194 -0.8303814746910215
Ni 1.5500254505558029 7.46775749329289 2.6281087533052823 -0.7751341241819425 1.4303957056752528 0.6537939958088482
Ni 0.7152113812557717 1.4943090581666183 3.7538944593625194 0.6348148836031842 0.3306299825842951 -0.00792182595023797
Ni 1.1668984422157553 8.789166892312034 7.913534489519442 -0.189765411025028 -0.7651821551755531 0.027529829989152585
Ni 3.26285282395941 3.582055016669398 1.7370023262758134 -0.5269841025704344 -0.005094126693455743 -0.250291236324227
Ni 3.5008970979448066 7.725355240294539 11.212391567240534 -0.9512811730925875 0.40706322314237 0.2043309675440287
Ni 4.813501931253067 0.7634677384895056 7.419274601920553 -0.581118936741625 0.1024144951131849 -0.8367932917546362
P 5.072814734283817 2.5814069522048766 12.973569763530817 -0.04000507963802788 1.2579551590819174 0.14956184222294888
P 8.83198826450382 3.0040444491725142 5.56510093173585 -1.0021087972674163 -0.48366307118529595 1.9640932157101205
P 6.892856038062661 0.7424037321684784 2.315372413539225 -0.5537888814681043 0.6335349884494961 0.06996305945269887
P 2.8644462255419336 1.5876557975472143 2.600308337073168 0.20000457225453294 -0.598408577060008 0.03767154640884479
P 1.1919089116882333 2.2425320579846337 8.510132779231167 -1.1370914561246093 0.5247760391755221 -0.08263602693467705
P 1.8231412446228847 -0.05689400305301509 11.447903611441792 0.20964235245461313 0.33248683328737577 -0.574428669205643
P 5.266221694399556 7.103211787171852 10.205604152477196 0.5291512854250822 0.9165417127288732 -0.6564250056737921
P 0.29520975114783016 2.61124158997311 13.267257975666734 0.1047148611115874 -0.7520044801430146 -0.749881777373057
