# total energy = -340886.8501273617 ev
CRYSTAL
PRIMVEC
9.17475721744249 0.00000000000000 0.00000000000000

0.00000000000000 9.17475721744249 0.00000000000000

0.00000000000000 0.00000000000000 13.42818458640163

PRIMCOORD
 96 1
Ni 6.255624538782344 2.482964476380719 11.506893020412269 1.0799623152117854 0.6802853572311574 -0.7008436409984834
Ni 4.8245459479909885 0.8253345294247791 6.171513119390128 -0.2183913022918368 -3.272407286860564 -0.08284634317327023
Ni 2.911416451706822 1.603921837181395 4.83240045742538 0.35650222236536666 1.0510867698280155 -0.04576075117488248
Ni 3.5712924966195456 4.740477649956489 4.778540046685281 -1.7113581458310914 0.2438933032176832 0.5761639067291948
Ni 3.745897296346115 2.8467894636728794 2.7226311476211866 -0.02573082910720085 0.17386596618595218 -0.0900541737756191
Ni 5.009481524055749 4.959781865597506 2.6301651945401985 1.3685452480273592 -0.1085568605654969 -0.033966329643115696
Ni 5.448814761137708 3.1591991129550725 0.6764190491892714 -1.1335587603810027 -0.32767192839723563 -0.8091814435746386
Ni 5.850522319922224 8.04289471907423 12.548718784993794 -0.7616255481725464 0.7879680427218172 0.5100464462748312
Ni 2.765345146129253 5.650475919142542 11.637844326517955 -0.33184534304863494 -0.0557379169922524 -0.08055960402162254
Ni 0.8246299080901671 0.30819109603148215 0.41598898547015345 -0.7959227787925196 0.3221887937954774 -0.6996110541429628
Ni 7.789689776461973 -0.12303073842117478 7.124471270570805 0.6774774554687171 0.4544463404120238 0.4060206408104685
Ni 8.870274301825637 2.9699789253894813 1.685344135308315 -0.805256911709252 -1.374897158387316 -0.6650844811210029
Ni 0.8091465882426259 9.661661313018675 4.703047393982316 -0.21250501871438887 -1.2590735889570768 0.04154799864511554
Ni 2.243787737161974 6.98960509566982 0.7506465029073018 -0.9929425573871158 -0.7668423164867955 -1.5485114135737783
Ni 7.842894192079354 4.292180675323541 4.064241178430743 -0.16131229789065765 -0.030150298331135174 -1.3021920174131056
Ni 8.036509088229309 4.212773153825277 12.760386850416092 -1.184943799721198 -0.23810626422226086 0.10187584900089551
Ni 8.733377753209162 7.423607798957383 9.71545199560587 -0.7599162787909235 -0.14158448044442712 -1.0514930041274988
Ni 7.047433588795591 1.4816131521330582 13.746164024722296 0.04918726035792819 -1.4429786845465857 0.39637514730090445
Ni 2.375473023824548 6.7515843758281715 9.498976357535957 -2.438501343956052 -0.23833226419013798 0.19900904111048306
Ni 0.3405559686874354 5.09843079279355 1.641259428110261 -0.04747824808662146 2.3837751560577654 -1.0002077235899614
Ni 6.555290450645578 2.160627740066623 7.046318855824818 0.22643576986286806 0.9884935204768267 1.036165886852125
Ni 3.65213128020374 4.696154399077447 0.6459533512242646 -0.32584901625588397 -0.5977714576966414 -0.8123104761219235
Ni 6.199997987327234 6.0210168285302235 4.606511518713387 0.037641464501857756 0.7492701119309869 1.4451713213225306
Ni 5.700074655274213 3.44546987965511 8.87808385495092 -0.17388113569460376 -0.35464460033133766 0.15675990263328488
P 0.25506007846979 6.048467701357815 12.884141477161497 1.0627618921730988 -1.6385072233076365 -0.0659469963147703
P 4.140696263138927 6.469653269170731 13.078904135407283 1.085252359966131 1.3449196381886195 -1.2440208083890123
P 2.7565282046896424 9.068118760934656 1.2813043533042896 -0.024315951037545223 0.21626602841871786 1.5054498064976138
P 6.162216338161452 7.76415642783925 6.250497684592484 1.5274831321485693 0.5164649482066653 -0.611274891499715
P 4.78277327954713 1.4415011146991579 12.626964782260782 0.36883349023720996 -0.26212396729309695 1.985598179661432
P 4.021846461464923 6.079349933288856 8.46530144703867 1.996501713947813 0.4845094783459914 -0.6176257734184073
P 4.928807886096854 1.2520515582095393 3.914893567142368 0.3461147084834555 0.5404266012285854 -0.47618836007480575
P 0.26991309251410417 6.151408474461284 3.551620900219265 0.5065610588293921 -0.8252611227453207 1.3756018977638245
Ni 1.0747585546933693 7.988139769530425 2.555396430161464 -0.5591696861640434 0.26819896984258323 0.06797713937092163
Ni 1.8968901764630308 6.954575873592365 4.674968967778586 1.2718100626871387 -0.31962977481904953 0.22663220214439037
Ni 6.230834345473469 6.084093282637741 9.201838091215503 -0.2886731785365351 0.04658993194439719 -0.26818919965057036
Ni 8.514064362811185 2.651275392831978 10.307715586569511 0.5278333379446071 1.5208653697217358 -0.6012478462810161
Ni 2.376739140285179 5.47265995447959 6.964098353842284 0.15048435403721824 -0.3820990969978645 0.08970758906947776
Ni 0.5692863296302794 0.24001806443207727 8.931434149203982 0.25770578362074326 -0.4517273988189639 0.23700968872397243
Ni 1.6680992621242436 1.5699568869114269 11.652709267746319 -1.1778046175732555 -0.38700450471928194 -1.4661103854680428
Ni 4.442142077852613 7.281050425295914 1.6899636254382255 0.7402028595223961 0.6759620472654553 -0.028940337183434032
Ni 5.733608391967009 8.335156602069862 8.410716230498643 -0.8620525805420572 0.37959227141561075 -0.5729289447316649
Ni 6.9144546614015026 1.1972232106100447 5.039638032711167 0.11061065777073208 -1.1801633476134192 -1.6709931117504833
Ni 0.9285312782474622 7.568752454081881 6.682347989896977 -0.6165456529803511 0.7221837972371562 1.4681274158980715
Ni 4.9930495343384305 4.888347207898432 6.68759870330581 0.6852226466317748 0.6533185988343264 1.0965289613212148
Ni 0.8641978824362748 7.76609230155804 11.728793692273275 0.2390837976441818 0.24589644969064106 0.23797359529913856
Ni 4.36995509008273 0.8532863439824464 10.666570608015848 -0.3744971162808905 -1.0287156012216672 -1.1305734525004336
Ni 8.177708597860537 7.999672439030519 5.068307313263192 -0.5846477758304899 -1.1658752131255212 -0.1640435807788917
Ni 7.7679364277072205 6.5269037526079545 7.294015274357635 -0.8854740447897912 1.7542896550872948 -0.10167735983684424
Ni 2.675001314333366 5.473192090383334 2.7010117503180657 -1.2164405847778985 0.5279801479351165 -0.1040890546021304
Ni 3.5071150716766972 4.138907185531514 9.319441960894192 1.5202976701437236 1.087830147995636 -1.4272507322883679
Ni 1.0352704007328233 3.8389293319316025 3.8307656331876214 0.8783027238523325 -0.3131716778985316 0.3866255241133083
Ni 1.5173580052534783 1.5221839274150135 2.469080316671496 0.5365462923375728 -0.030069051471238534 0.38973064540119334
Ni 1.3067881582394227 3.634442348782752 8.259918090134718 -1.2969868190630824 0.28183250146561784 -0.23110977829976972
Ni 5.425061315365437 3.516638469402312 4.681709661717901 0.9650815693107896 -1.9122967998641196 -0.10285801040850674
Ni 4.118227283341209 7.20793678707296 6.509083622162423 -0.4880902537187143 0.11511883005373078 -0.8379873120627375
Ni 8.376296212283405 7.680592741437611 0.38718116608801617 0.9151900837969851 0.7639390267970714 0.17858342626627954
P 0.5712956014047589 5.8683947464824335 8.262992551192381 -0.3227063568618442 0.3044864914197079 -0.2771548934842904
P 8.576315088792203 1.7934723159975856 8.087606979648424 0.43108401153699955 1.4309338375669096 -0.5851046608622504
P 2.0010695417562467 3.5622461862559076 10.481906604757134 -2.4566936985943624 -0.6239470876507448 1.7941206710413038
P 4.253252181537621 6.658111951908552 3.9325246975945016 -1.0336364355620522 0.3701799769627754 -0.6377734520108759
P 6.972989610813279 4.454023388117229 10.250109122562197 1.9051738156660931 -0.9850621261977744 1.7059038075847395
P 6.607182876017522 8.140330638001043 10.455989751293439 0.4316455404674243 -0.05330436785009529 -0.5501086044030397
P 2.6098421903956806 8.907679785956015 6.045811609217578 -0.26209671359958736 -0.21989925429593096 -1.0053710129584557
P 6.899481458040999 4.245949074996591 1.6852643149227535 1.5573426387121632 0.5587937908818633 0.3415499719309085
Ni 2.8113198532612924 1.8928441086431886 0.15643969841930044 0.8215996147333334 0.30711261618864527 1.848512872638939
Ni 1.4931091226053084 1.4482720853364446 6.915031753614356 -0.2425735559649951 -0.5028604700493534 0.7899038262919493
Ni 6.9389329129737 1.061858846406072 9.298628107252256 -1.4567209738333429 0.016745337779138905 -0.12028109098096058
Ni 2.5114704462588366 1.799610228404557 9.165621655587284 0.6956312435596084 -0.6343986220013719 0.5372623445679909
Ni 6.785815394050012 2.25231108637883 2.7904307666122747 -0.9978366522546234 0.17183376624727179 -0.2670473727366433
Ni 4.5075305707143265 7.360742364259972 10.413181252788672 -0.4015402364416117 0.2511147606667869 0.735020029769876
Ni 7.655875946184426 6.594971274502307 11.726900022436507 -0.416572705294702 -0.7730546159450944 -0.9916513493795179
Ni 8.014370399682191 4.348476984036811 8.024481899329011 -0.21279195382718838 -1.6440528357162139 1.0787693233449487
Ni 3.133115278914684 8.72320294773931 12.580866215909769 0.9226995048001527 -0.19151556094691535 -0.848759205867261
Ni 0.34756640048140686 5.208821468549425 10.430140791031253 0.047531984142692336 -0.8402694232286948 0.22284625273939687
Ni 8.677797075538857 2.6110716078284666 5.87156737743958 1.085438507835008 0.7347631765640636 0.5242312224156456
Ni 3.8401862736352723 3.2369184791724948 11.691530416875795 -0.31702961819204106 0.2827593841552614 0.22163911980517315
Ni 1.224123598019971 3.9017397180872484 12.601880996729152 0.35883498426360133 0.040883368477923135 0.5920520387143611
Ni 3.0690571258123294 8.708257268649689 8.173735928096383 0.3718524795691919 0.4477414175880224 0.4325667667301131
Ni 5.874367513264106 8.379993639338727 3.505132406697405 -0.9816602996050771 0.49336975695009866 1.1111626520739897
Ni 3.2952148849032827 8.736020083213957 3.5329420125221755 0.2514163510676057 -0.04455001869623296 -0.15027815156368313
Ni 4.048489955679938 2.7505737874218927 7.003214012670209 -1.7662725384807838 1.396833553449091 0.3628682737927105
Ni 5.406188840296469 5.165048703088049 11.671334941853035 0.10255744844895243 -0.12742850065901926 0.056478908923334986
Ni 8.13527534691548 -0.01906239253806385 2.9833401239519217 0.5685940648017369 2.10972075587567 -0.8295528081421392
Ni 5.009756766764581 0.7975038216589984 1.6131543951113432 -0.6605182019065592 -0.6001538418858889 -0.42678358438943276
Ni 6.536518897903181 6.068542069588688 0.40350489367319364 -0.8582221510523734 -0.6882156678218276 1.1980353427978334
Ni 8.201929956237823 0.41601834469242893 11.126002985172475 0.4079924198248586 -1.6236022811713455 0.9458538314294291
Ni -0.0072875094541965234 5.28496277656954 5.956191665745922 0.968335814582029 -0.5496231801261889 -1.174146451995378
Ni 7.635095121667549 6.979916552318905 2.826941711938946 0.17473808437826036 -2.9859660829783414 -0.3103002698880075
P 8.747506878929245 1.970123086526479 3.7355600976780514 0.04969428190133377 0.5922749533584445 -0.13485333236818067
P 1.9395344468181932 3.6029729324062014 1.4580725607222849 -0.04874297373165799 -1.0001339329292322 0.6229782959795722
P 4.635527605078542 1.3188804879141438 8.474339500121042 1.0633429614875491 -0.04927982007173449 0.125574478169416
P 8.60372008783499 2.0171161916811995 12.46338253554727 1.665095515319126 0.8097416869534828 0.4105133864744995
P 6.672415398010896 8.295301457830872 1.4360769983837591 -1.561967539078684 1.0093479953283329 -0.7415627159844003
P 2.0078038133656895 3.2963433800094974 5.983021407527247 -0.18995927220338898 1.8279671872771035 -0.4805903457972433
P 6.976310872833195 4.20070834842144 6.085505277734053 0.5879292747952392 0.43621721899850674 -0.03966106603504783
P 2.21363031103086 8.828648429493157 10.329617566387034 0.6870962095054037 0.6684389994155326 0.44413158874957703
