# total energy = -381166.9898931325 ev
CRYSTAL
PRIMVEC
9.20730409372684 0.00000000000000 0.00000000000000

0.00000000000000 9.20730409372684 0.00000000000000

0.00000000000000 0.00000000000000 13.47582022972606

PRIMCOORD
 96 1
Ni 7.769288851138522 0.5275812816945036 9.172518810761233 -0.41974570370604486 0.6459428751955456 -1.1447551433174543
Ni 0.030493670135130647 2.366231092840333 5.38536868584322 0.8525017036288286 0.8732847018124509 0.11427216578271933
Ni 0.8332140552286104 2.406743230463624 3.194712593810223 1.5899750800352037 -0.4299046465169177 0.21336839515594866
Ni 3.174853359801206 1.881098244801433 3.9575248404231598 -0.8003358202585507 2.6026863354088143 4.295637696597944
Ni 4.643243409869376 6.317637679751976 2.8994978847581057 -0.42276340748644614 -0.8730695004778513 -0.8346003978683756
Ni 6.5348379812368425 0.1371446346196437 4.4390567118655895 1.3447214061348842 -0.01908658431780584 0.01298715628828731
Ni 3.342582816865633 4.482005102128681 2.995176505059511 -0.7744638375877952 -0.4323502798439328 -2.4142005624271583
Ni 0.5611860998530229 1.6453268111378896 10.895416237413317 -1.1748900150296215 0.5841646655464843 -0.5155054125068735
Ni 8.888491896805945 6.867635984508167 2.0866632762148116 0.8367081882399977 1.9145403444826574 -1.7607269260722063
Ni 3.093911950290673 0.3523331401793544 8.009272626384488 1.5167060961377232 -2.928971667871169 -0.922785636756056
Ni 4.912557052024202 0.6327268519741513 10.150944940378924 -0.2241778270666268 0.3373927552294254 -0.34784840334511063
Ni 9.127973873983624 6.402436949640727 11.804939507507395 -0.13671198284347424 -0.7350945917615533 1.0661644900967444
Ni 3.9765149049340773 5.545586824300129 9.163059226626194 -0.28353482886870524 -0.7502214201006627 -0.6440009209778264
Ni 4.247080740433624 0.11780377182612475 12.249506815559776 0.6834372725965778 0.20700774304524353 -0.8219819377734165
Ni 7.23165595566144 3.9725097276917745 8.519831444434006 -1.3775891033971823 0.01823092118572989 -0.1640654351557626
Ni 6.700155124651883 5.485067215073335 3.070465550641194 1.2723168271202283 -1.1475134227888817 0.1500629502290835
Ni 4.024761177921813 4.800798796007953 6.918998009171295 1.645694742195011 -0.6385365554291454 -0.7569278855865609
Ni 4.921156673965146 3.02973704137378 9.237836346105182 -1.0978764764880447 0.3207160659046928 -0.4145582459678344
Ni 3.5832893654760136 8.594355363052848 0.7527514255263528 0.08709894780203709 -0.32588552592077424 1.5736107797445673
Ni 2.303253133444128 0.2175962155570949 10.437521356813276 2.254546368965214 -0.2808657666769743 -1.441557635829343
Ni 2.344824111028027 1.4945387934432022 12.830112961020763 -0.10646989612948114 0.3326249015271368 0.1886122712571913
Ni 4.699233025525563 8.313845639227585 3.5968038462949834 0.25720827515903444 0.7853110647149444 -0.24088485540866256
Ni 7.838251558138168 7.506926723507692 13.402282453821702 0.16637994222155217 0.9121137588645065 0.36849101929612665
Ni 5.697360023523381 3.2353545544199878 2.668845712121505 -1.0848049880160673 1.6871203563296493 -0.937539912247095
P 1.0422668133991935 7.121453734022085 0.1642141083952058 0.3117040922140696 -0.7406111507044084 0.9620623228684914
Ni 6.768666673755271 2.4711943585006764 4.835663173354396 0.1104723324206549 0.7373399361523043 -0.8675917651927317
P 8.475415409912472 8.762600429141573 10.816447953151117 0.6861058205676764 0.4348208528716125 1.4852707604465774
Ni 1.8644974756798895 3.7256987365258842 7.052354758923161 -0.03548250917732599 -0.17679368135570842 0.7430567840314235
P 5.979849317709784 8.613405275039801 0.11053736750514734 -0.6222707283895863 0.2082765824553381 0.40768003079076237
P 8.948901018384674 4.312019855582958 10.887344193991876 0.5459758131815887 0.3323222826850535 -0.5287082843503926
P 2.3014853310751113 5.95368215972674 7.20058867048678 -1.8883904255601671 0.5034155712218749 0.2922362132974451
Ni 6.572486647314487 8.223963937527913 6.849624656413012 0.3376850896588636 0.8986797448467877 0.09481431416842381
Ni 5.7928765952742935 6.506387411860487 12.574180293776827 -1.8879893334670066 1.6200626434492036 0.9067792340254706
Ni 2.83398055091724 9.211171072975453 3.1028476388278103 -1.7523441013251497 -2.615279855803109 -2.551609314227341
Ni 2.275870611332386 4.024724348705792 10.32390690830956 -1.2663631806399547 0.2850255544816188 -0.12680269414956225
Ni 1.2915453620385027 7.9191561384326805 8.63662609574115 0.57578235502006 -0.7868650394656256 0.08282654567892832
Ni 8.853375239329758 4.377778420788761 7.0884298967463 0.41369846907070046 -0.6906214490498428 -2.466230177329888
Ni 0.4007607970559952 5.348329543290726 8.90700502296939 1.4311966043099933 -0.11081326069984142 1.3809166251085185
Ni 8.277329471542592 3.6454018382957223 2.622555991234893 -1.8454494032222668 -0.37580400801777214 -0.4786154814590595
Ni 1.0390350496933356 8.582487148190026 11.994625622433245 -1.10476908984282 0.12393977077947041 1.5552800997561795
Ni 0.28028322414673335 6.1604597930776155 5.746776544850191 0.93856963906319 -0.17789822727379684 0.2209060982938905
Ni 6.067309498456063 6.130213799420227 7.8492874327189135 -0.25703498280596376 0.13187162403203742 2.1129333492756968
Ni 1.0136781344627581 7.464490259347296 3.906330388692928 2.2552742482701738 1.3092455818257775 0.7635248220777883
Ni 5.592617733159166 0.9731936187514838 7.9692770185158945 0.6787442379962827 0.023032199229115174 -0.6379768262709336
Ni 0.4212046948693483 0.5145161173109926 7.433033505213211 -0.9588993517594776 -0.555739834546888 2.3042177680484124
Ni 2.1547485271427536 7.914377547653933 6.181412854802461 -2.0389809661579466 1.2033241020005985 -0.5778436084244629
Ni 7.1694145805856575 2.874547932364562 0.39902982390300007 -0.4149349125809628 0.8846813736851667 -0.9145154263274637
Ni 3.9524654268722514 5.125798212786794 11.508606111018636 0.8642968964915437 -0.5240733566815425 0.4133513701439268
Ni 6.74605353511827 0.7604560975179822 11.848763512381389 -0.6062751242922784 -0.1077958140297563 0.3823433517981867
Ni 5.726878640164352 6.9303745540002355 5.135877448481389 -0.9968830300921026 -0.05694813525026966 -0.9099028672561167
Ni 5.125742968962762 4.257770420383769 4.63973818923456 0.04832182703383936 1.117070275807676 1.2003485643120424
Ni 1.1442745344738372 0.13201708701909592 0.9924378048529472 2.248660085387766 -2.5103567353354572 0.5014851869683815
Ni 3.537335711185595 3.707136811651213 13.507487871577382 -0.38636969934876036 -1.7294695107198215 -0.12496615516145575
Ni 1.2457114027001528 0.47090848408112274 4.537564736687822 0.8336249213289838 0.9829646202387975 1.337940635767625
Ni 0.147169547220607 3.3312670402431275 12.72293994239915 -0.4675378834886593 -1.1583799331897406 0.7774954253252674
Ni 2.3611394537254062 6.955179030990495 2.1733399153902417 -0.04101423762883259 -0.8194648277785177 -1.104649276435504
P 4.8156777992805075 1.2945285285362176 3.017545650140371 2.614881077702793 -1.3209844675292604 -1.1898813462321314
Ni 1.568887773285945 5.089051862501668 12.640656107964645 1.8472396623534704 0.46680743308053796 0.5937700498467323
P 5.839907504133331 3.2513476414771825 6.736036909090911 1.6880369546066478 0.6301789274930695 -0.2338472318355908
Ni 4.099303511148667 7.284736063251955 7.016953595753209 0.7707529643951113 -0.9517917941804188 -0.14994236549081916
P 0.3200633811016027 1.9818169433153359 1.1401082294114422 -0.6422376584298164 2.216496613281344 0.5795161110308794
P 1.908149303968985 1.2920517637587936 6.404074008292868 2.9847064995396275 1.7396271679791138 -1.4939271505699947
P 5.986165528257414 4.854026220462554 10.050697655830092 -1.164471133689143 0.21171903247798377 0.969563259231227
Ni 8.722788046622684 8.736129430126354 5.600443020833264 -0.7346883574620702 0.17776658679193902 0.8709282857651324
Ni 6.92754791167061 2.53175079694349 10.415313339552508 2.1479404614785005 0.5671609318996361 -0.20753199097982966
Ni 6.921701273627249 4.721081957930125 12.206074121106006 1.2955644847942591 -1.592271332268548 -1.8743951397223395
Ni 8.466511946939352 0.7739475600769382 13.271675005045815 -0.1264093153658855 -0.003199994994536425 -0.4377657944325493
Ni 3.0455275677428575 7.190250709549637 12.294651147828128 -0.9396813840701299 0.4313951150195151 3.001771425441714
Ni 6.675783390949872 7.657042608009992 2.3012118741461545 -0.5050137689469302 1.6674501315942316 -1.0580850555227197
Ni 7.699230474962246 1.567663201853241 6.784778535034133 -2.038091878684774 -0.16110455275522576 1.2750964467478945
Ni 2.9485654492631146 2.0597199425041217 1.7916106157131872 -0.4450358457314013 0.36841877129729456 -2.0210320949890095
Ni 7.005349630515338 1.5345813585622228 2.1859530011470927 1.4913413921206897 -2.672789005763171 1.2902099053505651
Ni 7.051597918533926 5.35174545307669 6.010673530058703 0.08459803575705431 -0.681000123909995 -0.8217999036695977
Ni 1.9028366895579305 6.594400030847085 10.4417392227781 -0.06292106500425292 -0.6659445151284531 -0.3685563253164233
Ni 4.1868649722390066 7.2959045230103765 10.491734883526842 1.1467107243819283 1.8970568429859136 -1.0987848472349269
Ni 3.020548151976497 6.120997288110928 4.800330144234084 0.20185782341318786 0.7559755489756207 -0.1480034965968935
Ni 2.8425985874661945 3.842088266456796 4.984516736477572 -1.3143759610738073 -0.6346948130855522 1.342535711337475
Ni 8.231615207156311 5.221904051994044 0.7280997897825806 -0.19612323492225578 -0.7740149229758347 -0.5648911620288529
Ni 3.9739736890286164 5.770723821837557 0.5507394927286172 0.2042731177228998 1.0185538301973167 0.9199679648016028
Ni 5.1373902085294585 2.862578437157681 11.723734769102311 -0.6707162254854836 -0.26090192196053774 1.3495777057859208
Ni 6.449523102323796 7.855883545308305 10.860055586380987 -1.7341383769504004 1.170211892827662 0.18055777638383097
Ni 2.2810451161833605 2.1364444067802304 8.778297041009795 -1.6714934484256698 1.815187776124248 1.4696253405998367
Ni 5.153530612450737 1.439644846963644 0.7855257448635945 -0.68536508574691 -0.3223057789893159 -0.9206937872240337
Ni 4.514488470659355 0.05369239330686747 5.709516427001571 -0.4915036502756374 0.5888250471366311 0.5871908539673177
Ni 8.469495113437068 7.129537746938733 7.803888058129613 -0.46868279572637994 0.35686166258731444 -1.7201538897458506
Ni 8.971394462069606 0.23853730778673382 2.8761978812423106 -1.3612579703373267 -0.7109833005356465 -0.04902116709370912
Ni 0.6294877224250892 5.268852095117034 3.225276239455794 0.9156248573415585 -0.17528367246908524 2.8982274447097764
Ni 8.083994502039445 6.81232770934837 9.985192291484434 -0.09438031195479875 -1.068183320298986 -1.9539790100942545
P 8.972628240806316 2.659833602961124 8.312883475959032 0.7650582280031791 -1.9235155513980744 0.8231685018823501
Ni 8.106893067100609 7.222154017927978 4.170510038134403 -3.2248549910028976 -0.8461037705222847 0.16067260742412975
P 6.007462022421658 4.827232965807151 0.8499566168318355 -0.12361581178114842 -0.10309712300250631 0.4880558009363529
Ni 4.032476898678249 2.3330111399892353 6.961096565274697 -2.3774337872207703 -0.12211660152780257 -1.069404594300597
P 3.2212581719878837 2.231196772298703 10.992374672971458 -0.015494753201489445 -0.5568070994691379 -0.5209160419994835
P 8.427675538645026 4.364326549637028 4.709933754240516 0.45631733218249154 -0.4483147735929892 -0.22197876253277898
P 4.995321507727783 8.154513243415986 8.65570823329212 0.9678689022479395 0.646943291435602 0.6143075076784517
Ni 1.2440264660671843 4.077574273696175 1.5473343953399543 1.1921593436330307 -1.0500220760089272 -2.547477551447155
