# total energy = -340864.0763245474 ev
CRYSTAL
PRIMVEC
9.32486469818521 0.00000000000000 0.00000000000000
0.00000000000000 9.32486469818521 0.00000000000000
0.00000000000000 0.00000000000000 13.64788205756097
PRIMCOORD
 96 1
Ni 7.299196152435917 0.9336427258258125 10.552910839378132 -1.9228164684485207 -0.4853702836843899 -0.28803091696684585
Ni 2.9992307443686093 5.906126681187309 14.052131489424243 -2.100803141671066 -1.3065528654849627 -0.5960004818391478
Ni 3.3979432975113135 3.3236427777620023 8.77906798917027 0.6544959069718793 0.6033198983186964 0.5207604902582257
Ni 5.309512530323767 2.609787106465717 0.6752339478151481 0.9844877417515432 0.24181096676735775 1.0630305724534532
Ni 2.78558877549606 5.679411252388989 9.270801659884665 -1.756873356654071 -1.5841983254524263 -2.2221679526345084
Ni 3.533377628439903 2.076917728820836 3.184883200178969 0.45895502691565476 0.9659246340373753 -0.40551387637737907
Ni 5.99982291894347 9.044279255779971 8.387865681836564 0.84810974520872 1.3434931901547378 0.8336457472645901
Ni 2.8181885015306474 3.1345065526019513 1.2763743878712501 -0.10821721783789105 1.1944661373893366 -1.6907736368115205
Ni 0.9812741333157076 2.2007612532674483 2.4366383613646763 -0.418484320495118 0.5740406897386049 0.8539854872632067
Ni 8.608873361119503 9.017563519198422 3.4943903702732526 0.06600356058431858 -0.4213621562635453 1.5182040208394887
Ni 1.4309470705485205 4.909093526991038 3.1182272042863954 -0.9510888545761231 -0.5107784393448493 -1.6878405223251254
Ni 9.298652232466901 6.554866824194257 11.054552178545544 -0.031310637187823495 -0.25826242745516165 0.017249016888434807
Ni 4.686676860693274 1.238043600160216 12.438078583540207 0.8151973107514153 0.00832266093308244 0.7653767876848625
Ni 0.26572786409892163 0.5272408894771243 9.42414905537631 0.4035554670994276 0.019707248620940254 0.21068467767619845
Ni 3.519241133969527 2.5868199653835693 6.318846113184863 -0.21723867674463232 0.7972515249062722 0.6942544178167398
Ni 0.2973885762857737 5.348555737676976 5.210242821099966 -1.0520727878903688 1.3795626821837854 0.1078426081072917
Ni 4.777193319680041 4.886312883197417 10.44378195099633 -0.1799617946710449 -0.09835883698657254 -0.3534922318944492
Ni 7.962147388828652 8.025202122079762 9.775417630804089 0.11520804733342739 0.4340747187342073 -0.14849766262449265
Ni 6.7788780423089285 2.1160262102250296 6.922451114908855 2.2806942310051754 1.4167883993044632 -0.46478268934102535
Ni 7.972591236986186 4.69986221899216 2.906535064565399 -0.6978974138859658 1.813884226821476 -0.13651040835562941
Ni 3.9534068216612877 1.0079898698972558 8.253693005064862 0.3005123372633082 0.6453924020087143 0.6354298914793637
Ni 4.740593226806542 6.252713242186608 12.479868895953423 1.618799974686696 0.191268992153748 0.46108235767130273
Ni 6.156620514272871 4.0847475371067015 8.341994808750368 -0.36471226897998477 0.19635926219246183 -1.2091527928672334
Ni 3.046974050231621 8.539086075752554 13.267214756280369 0.4461463051867607 -0.47987069402239935 -1.0620898058067387
P 9.117665938815497 0.941531561130521 7.16755331138309 -0.1261889718249633 -0.3133727381657442 0.3110088659192579
P 4.3664796660206004 -0.2938600475868356 2.792124572972502 0.1493093598925106 2.197134663814964 1.2452361688533522
P 3.21505473151693 5.908178151361111 3.020453203316584 0.8601905876326541 0.5427146259318137 -0.2974388405443071
P 5.4718024708003 1.9338276841981974 9.67424658172375 -0.5311312919695885 -0.570803670858546 -0.5343446567005636
P 8.505059645460733 7.164134816084383 7.9326677624311275 0.8870812413759109 -0.6522274226526766 -0.9633450462356571
P 5.797948928976997 7.812296817496895 10.237153212658853 -0.22259634151211985 -0.13641090666328767 1.2988392988907889
P 6.1680527980596 4.265230288079081 12.631865118589687 0.10765054670114364 0.4101840281595388 0.02918639175596909
P 2.7542292564301794 4.509056843099789 10.91167287585894 -0.026075356930813157 -1.748125178147796 0.9002414329069528
Ni -0.2926273005096695 6.835284147224038 2.354955346449008 -0.17902488467907232 -0.44221097468809645 0.31745025066922744
Ni 6.331079402825817 6.622695888031668 8.469957125814107 -0.01566650289266334 -1.0068542823722015 1.503528678215501
Ni 1.4428176229632887 7.585674637342839 9.481524946191762 -0.46794720311193605 0.9863993569519593 -0.03052233695857324
Ni 2.6801059091049684 0.5667251629177004 1.4387323998580963 0.7017126738669979 1.0153322379362255 -1.86709372096492
Ni 3.9805981263285806 3.652661294182021 12.672099111130144 -0.5099783120410571 1.2181179724803215 -0.8638945188468026
Ni 5.17640941550177 2.8317002300844565 4.809813560416367 1.1941102967118145 1.0697779184796157 -0.26306910481518564
Ni 0.6668872616671049 2.0860654208231044 13.77071267595507 0.07883722201387712 0.038594829554062564 -1.28407371054584
Ni 6.810200261917104 6.509370810658 6.363351826119039 2.444631882333822 -1.5516399319004308 -1.930527206829217
Ni 8.924603945731945 4.494174359475303 7.460778335702488 0.14449934009837695 0.2722212036280989 -0.4425976686035539
Ni 6.34175637259401 0.8396797969470583 4.41870636669981 -1.9819361574288128 -0.6809325038968531 0.06721789260739391
Ni 2.1897019640577744 1.8631358869818906 10.731752414211472 0.8809730715956441 -0.32024761090870657 1.1444514960341063
Ni 4.070508469127635 7.318368073696533 8.85411822801946 0.5209371250454061 2.068967485217708 -0.7855185527400601
Ni 2.893803827164077 6.866951386815988 11.288081285780214 -0.9518501582221801 0.13908665372323786 0.5463787050469622
Ni 3.423101781733658 5.295226838022568 5.312314652083891 -0.8002021228941638 -1.083602997288166 -0.1395319687907726
Ni 1.9342659528262365 9.672588620828742 3.4283209083530974 -0.9069815798442636 -1.9560502908009862 1.2307328330308547
Ni 1.4998671435238167 0.9455505776982863 5.520622798504557 -0.09997117577901493 0.12390248978363178 1.2473557862995164
Ni 1.6947754597637905 2.034293773527901 7.668157725626289 -1.2370855147217596 -0.46281605253295777 1.1723541359816454
Ni 1.0418950769515352 4.797558823587233 12.109696955360507 0.11463777665225419 -0.7025822209561448 0.07679808009666128
Ni 1.4343786206574243 7.271212234292382 4.172921590149564 0.06607529436251847 -0.09338838035517466 1.0669826151226656
Ni 0.4186313960438717 8.926991111025096 0.288524360162067 1.4514016185029583 1.1628811634942038 0.26300714122899865
Ni 4.126215209210766 -0.1512921953720734 10.82827035594305 -0.16850778719783235 -1.0767522929149198 -1.7301300271219557
Ni 7.799344580808667 8.108557085187078 12.188704666672251 -0.24927076547951263 0.45238225879414345 -0.24910544354624198
Ni 7.122387398047526 2.449408763196589 3.1058754888672264 -0.38405519228297086 0.6718621661644687 -0.8879693004078191
Ni 6.621222559452302 0.3891937315362661 2.0383929839297332 -1.6950522095822165 0.31397540474674956 -0.0005746415565473974
P 2.6016744744147755 8.208379758871363 5.924832359226606 -0.22235980002128156 -0.003834029034109526 -0.45035160151735987
P 5.525569639082746 8.845351922972231 13.684730898538845 0.7149885650402977 0.4295166670498797 -0.254088241472814
P 2.424893694619664 0.20617834738568386 9.37986154426971 -1.1621458279900758 -1.001998496941797 0.20143153450904663
P 8.831924118198259 1.3291661753346982 11.842976925686619 1.3759924483340238 0.5480332099312497 0.6597975216904508
P 8.808714530641026 0.7015571076043464 1.7535752573771481 -0.776458756530637 2.257843551659247 -0.9122808805699901
P 0.8992125289043286 4.452930484117472 0.6057105561114656 -0.5290425277613598 -0.21378568519902538 0.8874363107224846
P 5.255586839346073 0.9540175545974297 6.60326846548577 -1.49817255610991 -1.0618010709217263 -2.270014639804142
P 8.536838783425798 4.403023809707542 9.513296624265287 -3.4705930607388034 1.3658026522852156 1.4705946464916417
Ni 8.213443160254881 2.2811042851650476 8.784772941226322 -0.07256835828602987 0.9118530490039521 -0.3795495911031334
Ni 7.90895836214064 5.708961747756154 13.198238734118513 -0.5552703511096373 0.6256743547544966 0.9021587045343236
Ni 6.011245877865772 5.195693235135502 4.520628999852914 -1.7810754078215714 0.06920535535106791 -1.0710444438968652
Ni 0.8973755306123339 6.807598624742147 -0.2438125677240682 -0.6598497150846249 -2.666523484469433 1.8041374318473575
Ni 8.056841387078434 3.4199220029642663 0.9165166798203424 0.1718695045812137 0.09109341367341085 1.1358760956602696
Ni 5.285622227663408 8.092714140526676 6.356200587590457 -1.921626819015794 0.824961846337347 -0.28855516490143207
Ni 1.570801387215209 3.4808879665838695 4.96164659792517 0.8503435196352452 -1.8832263648607244 0.5504577602123423
Ni 6.3157959500309975 7.5613926903765725 3.9954722175750828 1.3712145673294063 0.31482206901776105 -1.426201722198563
Ni 0.38249661390524753 8.14394494568515 6.1977758034186525 -0.36093300444321064 1.3108669194792844 0.7960101963000034
Ni 5.065779223947323 5.097977980811576 1.0420508021874555 1.0663043581087184 -0.8547316214006118 0.24574655437633805
Ni 7.466941138601877 8.890652114355534 5.738634398847305 0.7078714943795422 -0.022426447324316215 2.57073883596794
Ni 2.0349278643088944 7.579548201414714 2.0523961328388123 -0.4344596128774518 0.37662316148495784 -1.4045682030891875
Ni 7.696808371576309 3.9759636687086752 5.308698469659345 -0.22626916237801675 -0.8748800713240288 1.0870205076101473
Ni 4.2833484996595175 7.381460106405348 1.4932007979454054 2.2595096265077603 0.33463139043420437 -0.12326691308216191
Ni 8.309405340066649 3.5329300349474373 12.364284403929247 0.04663878290446161 -1.1993532902783086 -1.767985921627465
Ni 3.760680523697084 0.7579287105210776 4.943999291998266 1.2705072847153152 -2.567580235734301 0.6495521898133588
Ni 0.9396852379740999 3.497075931228047 9.744559789444347 2.11799173763521 0.024299753087629116 0.059017359074472545
Ni 7.744383829879647 8.112370954737463 0.8800881644522875 -1.6712224541524703 -1.8288033100251535 -0.09463048029239186
Ni 6.672117669491426 3.4699592254761646 10.472265681873118 1.015710704321567 0.06415108075661209 1.4810497803866947
Ni 8.602224732783501 1.5521609832268966 5.144664779535081 -0.6478398351079424 0.32334527599742374 0.029350171027342997
Ni 4.12338045042515 7.409481324006588 4.405044507828737 -1.7923409534330614 0.3107666680014648 -0.4662590167762357
Ni 1.3070009725932181 6.440571960920246 7.382767452397926 0.6475058488072912 -1.4988551839992315 0.09896021801599732
Ni 6.825548988762908 5.947258658172025 10.857517793216358 1.2058430117677104 0.17931002001965893 0.3633457276497613
Ni 7.14634297475887 1.238500518517108 13.293992036967131 0.13454094333408442 -0.7402558242475187 0.34163996054155354
P 8.365513049320114 7.217734136807154 4.78833187023734 0.92640086491114 -1.9348525736774485 -1.1383626095275492
P -0.30080054417938235 3.157175298022455 3.840009010345094 1.4858009219184347 0.891668346525961 0.4108877390947827
P 1.184406979979739 8.28656874708647 12.10123557338002 0.7053682683417143 0.17522093755194984 -3.7112043507711054
P 4.6775198438265795 5.982142975991073 6.9012156011506836 0.7827646441440068 0.12472370013334651 0.933473198376889
P 5.178470210539997 3.603192888400131 2.703836756583636 0.0804773287204614 -0.5618654878286516 0.37369133255014353
P 2.7211726120387 1.811476138059804 12.950146986109184 -0.09685448452690416 -0.5228716230639575 0.9042042742094428
P 2.0135739247725084 4.1546373959823395 7.106752397863833 -0.10850852382606473 1.0259840612231168 0.0327882501746145
P 6.632151300560007 6.39340679665167 1.932294676486502 0.8107320758912101 0.2908167072420992 0.20127264033367917
