# total energy = -340869.7878273511 ev
CRYSTAL
PRIMVEC
9.25061549785411 0.00000000000000 0.00000000000000

0.00000000000000 9.25061549785411 0.00000000000000

0.00000000000000 0.00000000000000 13.53921084765065

PRIMCOORD
 96 1
Ni 5.911985156694629 6.033760260087932 3.5388516640783805 -1.2787340435004817 -0.07196312060186316 0.925990773956915
Ni 5.215460057180911 8.984262598093107 8.702747864997928 -0.24542413803991284 0.9724308105870091 -0.3390516309890871
Ni 3.5961583024870074 6.630822740968654 7.466130200605282 -0.0817831920160785 -1.2851114077817352 -0.5927788895780565
Ni 1.50739705811621 3.3092042074353363 7.504689541495156 2.3440636964007564 -0.7175316431771256 -0.8232512914041435
Ni 4.099373288387097 3.744926702120179 7.397242716561737 -0.6927575215562392 -1.2650786575005761 0.6864251515803081
Ni 2.900030979442896 1.4999873150428251 8.932034547633654 -0.5439976064092953 -1.2380854167411839 -2.5380644856633707
Ni 8.76895452064863 4.030724470225316 3.50209249297887 0.08166286438813032 0.019657883440243565 -0.7553533420105895
Ni 8.286146392700958 6.4833124250533105 3.374445098820295 0.6290131893197425 0.3154183078408632 0.6993066355286666
Ni 8.52352643890086 7.0090711611030105 0.8693839522201836 3.93117970972061 0.24053569959935994 -1.2143806169250764
Ni 4.672689439093814 2.5563798615488107 4.581655056308708 1.0883032309773129 -1.5131170932348845 -0.01635041633356539
Ni 0.5190233628515344 6.527151092250275 10.691793023869048 -0.4149847919822917 0.6687205352116935 -0.7631913499977695
Ni 3.7807265843848454 2.505630984519363 10.4835866439994 1.8233101481210665 1.2122975091438024 0.7144221510138664
Ni 5.258475419591945 5.162435528720686 11.095031056910324 -1.4650024971158446 0.38955118240053555 -0.43281127864075136
Ni 6.3405014218486775 6.559130470283597 12.583640114799262 0.3626682419667625 1.1427319422398383 2.1289487508673464
Ni 2.6709394847957446 8.439743613662852 12.53365348849297 0.2022964536125032 -0.5336306613526746 0.441998087346342
Ni 7.36160286994647 4.744326206085438 9.784137424903287 0.05192908476912347 -0.43632469111064853 -1.0369834976574142
Ni 6.24691294410407 7.20887520684837 10.330959812611036 0.7952537777499531 0.5083073520965374 -0.8217130003827462
Ni 7.989821424074583 2.832196215451474 1.4058983789957573 -1.610383725598543 0.4515597628928481 -1.04556095491378
Ni 4.718378229405233 4.7363984285400065 5.485086824204172 1.1156327720302013 1.8007991115027437 0.21151308711476474
Ni 3.941243265794794 1.3689708466928312 12.695190512800538 0.8541461812107871 0.10695197797222226 0.4089316438096764
Ni 8.446385555643738 6.956823684350856 6.136972153212366 -0.26597110895332904 -0.30289240745971063 0.19319371998028662
Ni 8.701240014659648 8.615459056458032 10.266147224727074 -1.420956928859856 0.7614663968868628 -0.11156659392609818
Ni 2.0781322870782644 8.630158284602361 5.832760109749078 -1.2032819359087534 1.4360122805310815 -1.0424272943808046
Ni 6.869960404127284 0.466083014993017 5.430997549891578 -2.8530205091558347 0.9639312577564302 0.35166649153962015
P 1.6437326304202566 7.000690103394539 8.63644592800683 0.3091347888249966 0.4883681899704493 0.8523626069478031
P 7.437994453342238 8.70867750957975 12.760544261695479 0.03573422017681588 0.5811415624494444 0.18484174847116552
P 5.217236175370786 4.476317371725766 9.025305729264133 -0.9245918367268592 1.9091777946191633 1.296752077344457
P 1.3852519301000181 1.013460439635102 7.227880596541588 -0.7533278269401285 1.1542615401459928 0.07084186251322637
P 2.5752696185473765 5.040151641470911 6.257376315377858 0.08844209209349284 -0.17219037825574215 -0.083895610373391
P 7.985085108901583 5.617177289022107 11.655919930657259 1.627544296538229 0.6344446447479589 -1.353125056817547
P 1.6595234312021134 7.645004728618392 1.1038084267447459 -2.3638218528642905 -0.5691653639241746 -3.1241600496839808
P 6.9861666369460815 2.9432498553965196 4.144569020888514 -1.1207397542394633 0.8048828161992848 0.7766641876732236
Ni 5.139123977478578 8.459650938374367 12.361313595320109 0.26051342827286744 0.031566719062687564 0.1592106781666226
Ni 0.602268727324793 1.486555421231896 9.487845758492973 -0.6944917306385264 0.6553554267586972 -1.14950525640793
Ni 5.566789185999976 3.0541184830301193 11.850709217700894 0.3644142781235918 -0.1919595904628694 0.8737647267726629
Ni 6.5544311575728855 7.902514114303542 1.2924867571413414 -1.4583312557432562 1.690457391122682 -0.80276191320154
Ni 4.008772759472331 7.273823778781244 0.5342804031148716 0.02730640112443684 -2.1400962828437335 1.2616902006443176
Ni 3.2529604647559633 4.248382204025147 3.92096869164506 -1.5859312489831332 -0.7682808487055349 -0.8421784673259496
Ni 0.9263196409443624 5.051178375233051 8.817329689722236 -1.7110182459931695 -0.18253264072201467 0.04089570977309731
Ni 5.901901985720861 2.5653807105006248 8.981560493284448 0.39886783181577107 -1.748713189440782 -0.24314716908027806
Ni 5.875306465950597 5.898849282582013 7.472588055336281 0.8779533109327138 0.1587648488784556 0.5166760357762069
Ni 9.032754324922921 0.6533441510839415 0.9217498368516632 -0.104346164918259 -0.3320150358572798 -0.4976429304041559
Ni 8.999600118711923 2.34244087520903 6.151133920591947 0.08039685319151316 -2.381022275902977 -2.4716696031779044
Ni 1.2686294195804693 5.651922601111535 12.62067032893504 0.4473932902199843 0.34002093688089186 1.5108051572722563
Ni 0.3715842766760976 8.286026134698519 12.426747824570528 -0.8618268376844963 -0.08367320994993976 0.6221434587831026
Ni 5.428510984425754 8.436533650059275 3.4818243942600366 -0.22862197888090952 -1.2782241937435985 0.06805607223797311
Ni 2.313144175691666 4.432450952682084 1.183030698505626 0.2599524135630749 0.9450588463319596 0.08987933876065167
Ni 2.685601710477785 3.5609874620812545 12.159578946104817 -0.13417276136138828 0.5964643088494438 1.8212211268025214
Ni 6.4070596008911265 2.8210862261491836 6.264755531419854 0.4451759708536914 -0.03623841350674404 0.8720441445371304
Ni 4.386558648828075 9.088998067602294 5.4644662770320345 -0.2749859108574296 -0.7735390117806806 0.42373631292267666
Ni 6.90273533509982 5.766028944195427 1.5702910683304847 -0.8610827604296203 -3.275599568545617 -0.5842065745280132
Ni 2.8572191305744514 1.9787529239854182 5.825435472338958 -0.6209633224320724 -0.5400049403101345 0.5382712454484794
Ni 1.7759054257167837 8.720296282738515 10.245364791782423 0.42256491832239484 -2.193105230940597 -1.4777852507028097
Ni 1.6972104390435223 0.9291873317717645 3.642304998269253 1.0260000020627167 1.0369811836645688 1.7766772787538758
Ni 6.2078568451579645 0.9987982139530612 11.205876558004993 -0.022430046868742014 -1.41161971061933 -1.3979532688758312
Ni 5.234571828953211 3.7912815367528 2.6342968714524444 1.2130235886765497 1.0028284490422599 -1.0109994148888266
P 3.4543833682264684 6.062964453449573 12.31744625121487 -0.15214374401751218 -0.009371413912570957 -0.9686466609542286
P 7.47034385599845 8.64235984654218 3.0746326481231754 0.6698515634923431 1.4066011743588163 0.5091437319549038
P 7.245156121122794 8.213445804918525 8.692755350056768 0.5969723588341139 0.07252593508386863 -0.5756851673205633
P 1.9538872693271687 1.9081984790157502 -0.06008644838809231 -0.620958437336066 0.9478641769912386 1.0232774609252313
P 7.9475368602937575 5.2097616779883955 7.57837069452825 1.2455272177312098 0.09181563655141606 -0.8183996197387969
P 0.9038572962117876 7.482859938867724 4.525928423039825 0.2292480425006826 -2.1224559440541513 0.21173188799379022
P 7.863818789364756 2.098927670884717 10.11082568902251 -0.9413793405978432 -0.02933423018774303 0.2804549043918008
P 1.368119790060183 2.9985870377498105 4.44060352018592 -0.6548016111377561 0.17270974109432188 -0.6482082741909546
Ni 0.34628754333218087 8.581000513451343 2.805175167364887 -0.3271589933165592 -1.041152027212807 -1.5213811330158895
Ni 8.828297219544712 9.101874924478889 5.049936017561695 2.5490117287034937 -0.4229665246361877 0.38778817696284185
Ni 1.1158092503266457 2.56389136139349 1.9022318319716394 -0.37179462974806293 0.06587423409530589 0.3844352013302089
Ni 8.626125016212853 3.235421297630948 8.069546004261037 -2.3244757469665 0.851473005253998 2.5347845293605182
Ni 2.7443893724395316 8.654820425718022 7.88852625849672 0.9836318215091513 0.5922055335730897 1.8083473561636467
Ni 2.2875384717876353 0.40635086518134245 1.4311895619703305 -0.5934188371549006 0.10821978894105232 -1.3011100972028367
Ni 1.7392267349727517 1.2584722436821216 11.483484756144003 -0.33255959550684017 1.5799819733782339 0.9077768220520496
Ni 8.423675294413828 1.5804769211371061 3.3710066450120837 1.0802623629507073 -1.1356398112797472 0.2488020533732102
Ni 3.8512532775077966 7.358670424810063 9.901780278320457 -0.2806608497550199 -0.608695303697997 0.4183629644259053
Ni 3.1576606231304853 6.874409950217544 4.8136771459691525 1.0627359240311696 -1.8933336284980555 0.6787321538114246
Ni 7.0889317253383775 4.445050291091508 13.050648191349506 0.31616315642668774 -1.9482783601650508 1.6296734270660902
Ni 7.2492633944368805 5.042103521356658 5.286235591862756 -0.41523521743020103 -0.5748328466225971 0.3737481539300079
Ni 4.5604794722022355 4.753475064886407 0.12111830968767014 0.7136708746701387 -0.24012509442450258 0.7465935935400884
Ni 1.426759442172773 5.507381732794888 3.4931841501827785 -0.8726254709618972 1.2642970421395452 -0.2800820944334144
Ni 0.29339252348996764 4.624058953030415 5.6970295277034575 1.2540026021920725 0.8673418539654546 0.7473047606745
Ni 2.795332512395997 5.105581245413544 10.356169590168575 0.5396218459391028 0.5761677633839367 -0.28021939134222706
Ni 3.708895554466205 2.2145511149224615 1.6078217407687223 0.5096584668077933 1.4365234158395452 0.11240477355667738
Ni 0.1904840505563018 3.428176374310241 12.612763827805425 1.008556609775289 0.8485303776859062 0.45232132364922106
Ni 6.042761109039746 1.4777858376693884 2.851209005637151 0.06966738258915098 -0.4839862588526697 -1.0606417605063023
Ni 2.7965350924203913 7.857509869544471 2.7501386300176947 1.6706845793711291 -0.9287251421689424 1.9272608773731197
Ni 9.361160428353912 8.570880340015286 7.743318420797313 -0.02435400336433225 -0.49645790895711917 0.26736130443263634
Ni 7.641147221924758 1.0455323238241458 8.045418548725454 -0.5624938654412699 -0.34650628749491935 -0.20922403397027192
Ni 7.99295738275358 1.7408085902356087 12.564320204176587 -0.9928877928897805 -0.7370751125266919 -0.5667652391231142
Ni 4.730172764259871 0.073679302909979 1.225731539987203 -0.09675909659962045 1.0231095678887994 -0.008359684818604959
P 4.945702856478081 1.2220525701741132 6.947266873403149 0.7768541921968427 1.1704052397853908 1.0264584297563741
P 3.936506950621794 0.7192714381443622 3.4149276426876427 -0.7970664054786595 0.5563486717754805 -0.6505328085590733
P 3.9824455075536633 5.746510145337947 2.455241031374119 -0.3349648625142231 0.14493745607706007 -0.8359062611639926
P 3.8895785778236918 0.10966697267076286 10.814688376808151 0.20928008401918793 1.2545924132572714 -0.8020309485727865
P 5.8484056758664495 6.9476285724720235 5.556072347859507 -0.6596450552729864 0.6566751740113852 -0.6811528474377753
P -0.09959675255879481 4.682180570670959 1.2720724986964662 0.44540582747631036 0.5172684179445672 -0.0698671573047829
P 5.732486212130393 2.715730965396653 0.47609403116532256 -0.22820957393383925 -0.15406461518930883 0.57166344775568
P 1.179592244697415 3.56215303964336 10.490573633941134 0.2858899593644431 -0.6108997675484834 0.08337033399754028
