# total energy = -340859.7728127599 ev
CRYSTAL
PRIMVEC
9.40611417861412 0.00000000000000 0.00000000000000
0.00000000000000 9.40611417861412 0.00000000000000
0.00000000000000 0.00000000000000 13.76679888499351
PRIMCOORD
 96 1
Ni 2.8365078267821153 9.215236017552812 10.244026946727589 -1.297937870122442 0.4313596337958893 -1.429315071016564
Ni 2.750752282755147 8.833836895121584 5.363462313340614 0.11637018596232862 0.03381386322565144 -1.0262293444647035
Ni 6.860791548386373 3.817819512830324 0.05576602982041096 -0.06471620923146273 -0.33195590048457024 0.30524368130070656
Ni 2.6319906836672344 6.433960893910585 5.216886834282563 0.5406464305488753 0.7625231202861513 -0.15050158042839887
Ni 2.1924899932361614 1.9010227295788549 7.808418057921542 0.2896936493812494 -0.456398321932072 1.7036386656996467
Ni 4.530295046214851 3.0370085590930573 4.4970623037993995 0.7734184270424165 -0.2020257164496198 -0.38797972414835763
Ni 3.7812767587944824 1.4826011412827427 0.7862354598511587 0.31121841082690277 0.8229471299001634 -0.48522115970103524
Ni 1.2720452727905098 3.313595349935769 1.986315492782512 1.2359110347976843 -0.31768370683627223 -0.046771451827583965
Ni 0.4385788912301688 7.94364223824846 9.594839512765136 -0.15192879979322865 -0.8681859471333049 0.4582191771908947
Ni 5.144156877331228 8.419036660829024 4.169702248604031 -2.9078708813368115 1.3181469980804654 0.6142545429533293
Ni 1.6422417130964646 4.122511773186316 7.798451339214624 0.0395196553611771 -0.16582869770377248 0.5680592753441894
Ni 5.847630759335498 0.6855684028324222 9.235430004332619 0.2938140993075262 -0.030368327879212214 -0.16888034004590272
Ni 0.48358808874288634 5.046276851978082 10.501286994528488 0.2782123882145273 0.9906661026481133 -1.2784077705093144
Ni 6.636643844737953 6.198111984079258 1.9235108676351975 -0.8487260386364803 -0.13541537551923777 0.8681800335960338
Ni 3.476048349923678 7.412789365784929 11.678348384557264 1.1814990357057071 0.05094023849329291 1.8872221162836786
Ni 1.4251674073978389 8.415321245682522 12.071844710583214 -1.2470104871449557 0.7433920558836552 -0.6003155642747339
Ni 5.391377779345136 8.807368089495622 13.7182298170266 0.1548457163297075 -0.35112964519954365 -1.4626028865354166
Ni 4.299450189188434 5.5781832092426455 3.238501636462115 2.9417035136155403 1.7374378736372786 0.9288526688857422
Ni 4.512762049169083 7.442127036270847 9.760866836185123 1.47053165446419 0.2300610253202812 -0.4019685822282819
Ni 4.867476025345567 6.206746797002013 7.851907227364197 1.93099591893552 -0.17833377214931867 -2.3421803633351144
Ni 2.1588161040602762 2.9450637918600187 13.048970675770175 1.7225398734795236 0.4532399788087485 -0.3989922732087774
Ni 6.8283216418402395 1.5936497266488046 4.08696324543145 -2.0400045223264542 -0.5168580698800259 -0.16766009448555644
Ni 0.3176811635858751 1.9531514150014124 0.12152699669062518 -1.11545022370575 -1.406888623692248 0.5770869327640964
Ni 8.451280820632077 9.278962441901031 2.879312231104099 -1.7395970860721264 -0.7328291927661443 -1.2116830154882552
P 4.430007055602201 3.8733532116276503 0.11783415621843173 0.012373691074004496 -1.0976365925630969 0.9307514285703519
P 2.3661456753493444 6.825471589208873 9.870656883458523 -0.44186490420258734 0.8176213468118758 -0.4558779306522278
P 1.4693761445840567 0.9593107847123438 2.1071323278438694 -0.480847713223688 0.6815539395309359 -1.0688093839187593
P 5.1315714964045975 6.701865841259067 5.441465337965692 -0.6105675810200453 -0.3160808811255266 0.3443804994011682
P 8.772875868376078 3.7581471237432242 1.1270396742082849 -0.9499269730575383 -0.052039642205058766 -2.0734242354374812
P 2.531279417911312 4.434126933663385 10.107570565428036 -2.876972134875426 -2.596561710568315 -1.9314006105731059
P 3.955035908164909 7.034983379014368 0.7050099004686337 0.8737855527082693 -1.6148828990204769 -1.0770878218774675
P 8.313650556268515 5.640338812503609 8.975967044563847 -2.210667665304393 -1.6380721926527466 2.6793903131297725
Ni 3.579139362596221 0.1958832708035556 12.440023539372906 0.01130848303428375 1.5712217106871005 -0.06789640673165727
Ni 6.308803137102113 5.337048063177563 9.524587126319089 0.33369062378748987 1.5207213879447035 -0.13321579676475767
Ni 8.229550488357457 6.603863536420087 11.45937310315963 0.4972089281905308 -0.46922864092752087 -0.16803881798121384
Ni 6.003941566688812 3.9537472705065024 2.21539482215577 -1.0266790304076125 -2.149696524937659 0.29498215147369844
Ni 4.779622917830827 2.057408785846528 7.598598688178603 0.6708764052124316 -1.3926192582574275 -1.986955722130591
Ni 6.898321944423184 4.498295445383466 11.7463009760582 0.08746481578188808 0.6024423808097495 -0.9504257670708278
Ni 6.026967734482825 0.19411021825895944 6.437011296776434 -0.21508820606053283 0.13726991222947327 -0.42299352121938116
Ni 3.416883891008505 8.590519530540075 1.784989844247904 -0.12170162547757105 1.533346532907882 0.6173709770951238
Ni 8.168824614469324 0.49054579148685346 8.414653411567581 -0.8152875564723765 -0.5181701038232301 0.8937193155177188
Ni 9.039285243551664 6.97722043112914 2.6059997086474564 0.5277988851622458 0.7945523808075542 0.06588477561826718
Ni 2.3427808874407137 5.570705348378168 12.19838892863876 -1.247507481386032 -1.7705392841769376 0.9262774519593984
Ni 7.103309393252812 7.537486222992949 4.386927992742805 2.2727024710489503 0.38470233894866646 -0.9961600358831489
Ni 3.987976120425789 3.9389796710634464 8.321052227607204 -0.7332079162618018 1.7930693469586538 1.1343858842679884
Ni 5.980868368323323 8.531072888196054 2.0881479673623917 0.444795190475505 1.2199295717677634 0.5306862340123699
Ni 8.131811554718734 5.991911146505583 0.045017663015582986 0.902083371211698 -1.1390323819010644 -0.35216837087670316
Ni 7.637473217948162 3.707278857636189 4.949343081723007 0.36675783865510386 -1.365521887820003 1.4568125051058847
Ni 8.549010348156504 2.403591416357501 2.8115242466033252 -0.29703672000988196 0.09894324873513283 -0.5302481180336868
Ni 7.174918141380191 5.976174717290148 6.01489310556241 0.12202558447589307 -1.036185941456783 0.9492392029618942
Ni 1.536159556078131 8.168852832812208 7.152099848712095 0.03937027426750639 0.09530230954843587 0.622360202779599
Ni 7.0767935570553755 1.475903987904745 0.6099761653011365 0.18481989409429458 -0.708257159853735 0.6444099834907869
Ni 9.310087274102987 3.573034794418805 12.066062772126115 -0.8427477095658583 -0.6885877064492658 1.1620098166328439
Ni 0.20791180976392493 1.4037308729196705 6.619379862561019 -2.025991238766498 -0.9248394339612911 0.4471225530571009
Ni 3.548823456223629 9.357061408891918 7.755154995115015 0.9989185724648925 -0.6175180441959495 0.14535088946539484
Ni 0.20391327057714595 6.350763812971841 7.800846135914116 2.3384224389545794 0.07885933350106418 -3.272892711137415
P 0.1921104783598552 2.973733628230996 5.084753503112964 0.6097576835242402 0.07031041548978859 -0.11439763561699008
P 6.0689472225811425 7.243610994076137 11.737104618112037 0.11243151302955474 0.2883661888190776 -0.368153690561366
P 3.908174646747518 4.201438478235158 6.14209857345289 -0.0005252763758507083 0.6045730539995071 1.8165530319028909
P 5.548205922984672 1.564867016906288 2.1881086251975783 -0.31181027877463074 -0.11588064792041979 -0.039645125195447856
P 5.523204471188721 0.9656505057471334 11.324196894015618 -1.0787094166412905 -0.76865905798056 0.5774959952770571
P 7.728082316951319 7.831643635338609 1.0462270432433076 0.4817236880707381 1.9165789721792408 -0.49935785621273354
P 7.896771570716773 0.16263547860523112 5.2448888365386 1.0409913332652267 -1.1040957179248791 0.30080390036179805
P 2.5774728452137623 4.766379108903551 2.8653253391475233 -2.034296416198084 -1.3007221177357986 0.27729553282721275
Ni 2.0155515772340444 4.232356375922627 5.058031673012469 -0.38511911477111094 -0.9713452908323142 -0.29900978457585276
Ni 0.22614838415895466 8.151827765938368 5.203244206109182 0.01838518737540705 -0.937116194446115 -0.6067690332095614
Ni 8.11154137841314 8.04935755680929 7.126053377617977 -1.2008365596920545 -0.10291251779552599 -0.6719722093797716
Ni 0.44192840853059695 1.0093325005328349 4.1300808733594545 1.1844583754443472 -0.019045189556909137 1.0557021571128398
Ni 8.827045680600637 3.9268363775086788 7.431551741969045 -1.6228810867346048 -0.28370786411145976 -0.9556044830582898
Ni 5.830718565833196 3.216345534240384 9.928133885469183 -0.3233663590433463 -1.4508215776297724 -0.2484068748173206
Ni 1.811749298805579 5.924723272096826 1.2092444100889133 -0.08293813155612813 0.7797286855311604 -0.28535054192120535
Ni 3.324845062632517 1.386668181588649 3.161297190940677 0.20246871752430937 -0.3330090243394329 0.17869552636411162
Ni 4.900905355549784 5.740429274716067 12.910215440136938 0.6255481135892775 0.5718377685500151 1.2303253131797907
Ni 8.09564504525469 3.365818096501276 9.71494054252865 1.8840504034239167 1.1811912746573012 1.8816111978548045
Ni 3.930909224998388 1.9247919804021683 9.74270833253874 -1.8369151404990105 -0.24495002661697174 1.1240513351111996
Ni 4.208859902413866 5.035149418767167 10.840143202615131 3.4817853299101977 0.23642527697541219 -0.268350407818783
Ni 0.9060919306430026 8.757948364990007 0.7117286879095093 -0.4458747966929289 -0.47699285825397203 -0.21363116189903208
Ni 1.1233910424732776 2.3330173408025656 10.19881645836896 0.5648921904701174 1.1662562506140237 -1.2092942035411045
Ni 2.6804792028576503 6.118338728743872 7.672291831233741 -0.7635996411797817 0.9330314828537802 0.4632379705617248
Ni 6.115902545141482 3.884668767124463 6.895802987014998 0.34631705430224874 0.09741909878112254 0.38852762623202763
Ni 8.934943217677894 0.5337207967120576 10.74418860885816 0.6700433677881751 0.5739265327582438 -0.06180829155604839
Ni 7.302737828534131 8.337259903148814 10.130285390838885 -1.3528460921245473 -0.7193661252827029 -0.5326765249695214
Ni 8.621324554856004 4.823699969416916 2.9264500322817617 -0.08754451997988794 -0.14183850543676216 0.7976739571556714
Ni 1.4535550603399678 8.471400499108954 3.0960563821909726 0.4377765930658268 -0.6684904214787585 0.8225879467885318
Ni 2.1087755760111953 1.7459535293124735 5.528719275999845 2.856172681631571 0.9937732808185271 -1.0340218439259288
Ni 7.274754638506684 1.9147180319922874 12.012977484879762 0.5640966911520157 0.8860643700756224 -0.17268737249681873
Ni 7.829988159222698 8.844296494217557 12.5207251781892 -0.5421425554784275 -0.3767568588493447 1.4260428280231956
Ni 4.6640876159460785 2.817479257563452 12.029456997124498 -0.1385328381022969 0.44199320225033556 0.4732714435383268
P 5.624668226088239 8.240405144253817 8.10287646592464 0.8398189659548375 -0.1349201810503741 -0.24707144383534865
P 0.7008213577730968 6.720725100420421 13.029642051505501 -0.8476718863403531 -0.8136317660365084 0.5998087998416445
P 6.530749810005517 5.02609133070114 3.975094446898869 -1.1773222786201982 2.3622606790247573 -0.9365618646045419
P 0.4808076413573021 5.916925603346321 4.825276434172748 -0.4009401409637675 0.962169280760001 -0.3738743950952271
P 1.3941178241102417 1.1577609841069885 11.899235928991057 0.5173506932457284 0.3130503218293189 1.1716673943272657
P 4.299450189188434 0.8776073947236358 5.091981161337196 0.4687650710275411 0.46762710076835595 1.161820326329857
P 0.8048492194294157 0.2922244558580494 8.478820042064804 2.1776608713610686 1.36434457968245 0.7389566458201209
P 7.270606542102616 2.283738708011375 8.204365617332755 -2.106608178388617 1.638641177782339 -2.0570702195594897
