# total energy = -381162.1472677752 ev
CRYSTAL
PRIMVEC
9.27178608250903 0.00000000000000 0.00000000000000
0.00000000000000 9.27178608250903 0.00000000000000
0.00000000000000 0.00000000000000 13.57019613825513
PRIMCOORD
 96 1
Ni 9.160301882774725 7.717964334607358 8.048726949687374 0.6007691068723847 -2.105177102369045 3.9219767030651034
Ni 7.145579907828555 6.056441769284925 8.076600719445128 0.41647603181583753 -0.0224434166051807 1.239568943265246
Ni 1.2294202582372071 8.514744522180871 11.87185882987888 0.17313268756435343 -1.3304083319463218 -0.2633442128534432
Ni 5.45436908426033 4.642911659708964 1.3164517303408223 1.7364071183799192 0.6249930124167559 -0.14207478981728436
Ni 5.509545481768359 7.08793721528824 6.833936642320259 0.5182333529609979 0.5413367717476807 0.2818011340070502
Ni 6.925523342804936 4.135133036633058 4.65858005059265 -2.113778213774495 -3.606969771730046 -0.21406182167854748
Ni 7.801568027487529 8.19163205759386 11.237804973971334 -0.31136213549361863 0.41420523350378985 0.9403303305080386
Ni 5.869624556482157 3.6078743915164257 7.39657085911428 -0.753968802958237 0.6123100176324486 0.4517320268046543
Ni 2.6210782250268405 0.391530826625533 10.322020488018508 -0.7766965835730559 0.2729915061352202 -1.249102593787294
Ni 3.6914131818957463 0.8286816210982775 4.679016920931618 0.33539038008741595 1.3922852719567764 -0.654827322169369
Ni 4.757242050848521 1.5945060973022627 7.741701960703822 1.024509019339487 1.0258045982224593 -0.2827493568529324
Ni 7.9779730247968486 4.1316190298013415 6.881799455161117 -0.5336255191463519 1.9076793556967662 1.9319438846710857
Ni 0.012024579050270998 7.8892420343495555 4.396824555951721 -1.645904801323288 -0.607324134382083 -2.299763846042117
Ni 4.058687162418019 2.3243439911422907 10.129065352992528 -0.4455976317721423 3.0999865377615707 -1.7785073899840786
Ni 8.95631332260431 6.266336457032658 10.198002007859266 -0.2895093012845853 0.37461178748188384 -0.6705421618014645
Ni 6.695008203358689 0.13477931480011132 13.29301127459034 -0.5913416429108977 -0.9882276684099498 -0.1464675195683413
Ni 8.939651923457623 6.765269796421341 12.891509569477135 0.6212661983844721 0.27323678937680684 0.1845923514645208
Ni 1.737560480960703 6.065287052972148 7.9157259634105435 1.4747552056272344 1.037185329255575 0.5703313592078179
Ni 8.502292513803576 4.7842693065594775 0.821185382250144 -0.6345989109376361 -1.64466938625429 -1.6000903140923346
Ni 6.179914141258446 4.200341506415274 9.908210487208459 -0.10389313654124042 0.11935600806352992 0.8920177594455798
Ni 2.945961600708463 6.164115018194477 5.790985904916983 2.313292733766487 0.942150671546229 0.5092578889352649
Ni 0.25145268622034045 1.1052339587543405 8.034628272145666 0.9858221442922507 -0.6850940914737105 -0.09336421198545856
Ni 8.54781698225668 6.201990263333159 6.1442863770063285 0.5547864694946832 1.988331262321879 0.5262623939130614
Ni 5.730093451441268 0.8483619137130551 3.302008375762331 -0.6146494643989027 -0.5106545121724753 0.6433188073091373
P 2.2297161449035166 8.454459370677393 8.083860527754451 0.6755105615503334 0.29340992189057213 1.0798224471998112
Ni 3.2374294602383564 9.187931804564998 2.265761139518239 -1.558367994652884 1.7174562883090292 1.383350688471308
P 2.6694398599456575 8.07654138001578 4.578937264621474 -0.2592160496176826 -0.6008300420173073 -1.1462931772285354
Ni 2.5801247469907183 3.1836252870340056 11.7265894165843 -1.8260450305537261 0.12575394117007374 -1.0147565679384136
P 5.087957379820775 5.15372215675313 6.182391562433734 -0.8001262753509059 -0.035972047219234825 -0.9602604937730623
P 7.228043171050939 0.35468289535744224 5.180856038001197 -1.5403579312287086 -0.32744207177461676 0.03986829694984747
P 5.16757420479161 3.6825122674935105 12.046900874670357 1.868197752662376 1.2969978748066762 -0.8900367244598092
Ni 1.399678061537482 0.6332054875035836 4.1434692992779025 -0.2606232143778544 -1.638185064081527 -1.9306542193253846
Ni 8.951538352898941 3.1917010124968677 5.325514440609207 2.2983232569408485 -1.3586431584222987 -2.069725189319339
Ni 5.023759534694646 7.819740727725428 3.446137359399125 -0.9970010437272057 0.3281380694003768 1.2257227814107727
Ni 6.820566727145234 6.425709183761865 0.5394603152763648 -0.4821132101996729 1.2967114539145086 0.10854940436632918
Ni 3.6175634077146928 3.6717569959241416 5.0644923442278795 0.9019152210649499 0.29071566288786066 -0.5277916860733943
Ni 7.599489455199261 1.9802587469950108 7.183966955545365 -1.3183832824609876 -1.5841520455955234 0.054943446115415046
Ni 1.458016138015472 5.0781292868349714 13.370741291143618 1.2862763746241137 -1.4168367360438954 3.343728403003054
Ni 8.829345487370743 5.096292715287036 4.096435384090753 1.4713443801734725 0.8839144136121552 -0.5934445481865135
Ni 1.1793062557954501 3.87221300569117 2.179984140038189 0.6090771125174478 3.5408376559876635 0.6951797578444866
Ni 0.133116883599777 2.144981294151395 1.5676837480582744 -0.8192503977748664 -1.7442572105519574 -1.2735890089644324
Ni 1.7356875802218994 0.48409940923020617 0.37040135388464124 1.736044849944494 1.2961848919870773 0.5757327327290471
Ni 6.983564722136185 1.4246006218637433 11.387917968186464 0.7660229059092936 0.13993717464899125 -1.0909635514182954
Ni 2.5656051303720706 2.1966251412560363 2.3068110441270524 0.014487394982897632 -1.255807259500979 -0.1290611511664358
Ni 5.969324069573038 7.167572583830747 10.076956062238938 0.13189347840890833 0.3088031165171908 -0.6222329331731155
Ni 7.258389726091063 3.3218676138437373 2.2687466545573227 -0.1899045077060536 0.029852564585058267 0.7674758363057363
Ni 3.3914430947545506 3.904738430402675 7.324445637098659 -1.026780074761851 -0.7051008736129405 0.7720470006161865
Ni 4.805566598623995 8.44260075659358 1.021075813081197 1.6392081060294026 -1.8222919912691973 -1.2008599567308222
Ni 4.656874969177472 2.969956982451158 2.674250989615783 0.5124524846131626 -0.46667836370184146 0.6103433808243811
Ni 0.4357563178830607 1.5441324848571072 11.01718097565457 0.9455296153207909 2.5644463180910093 2.344644508604891
Ni 3.027720208207337 6.993865676199606 2.401409220651152 -0.4462077545523154 -1.0777334258812665 0.27179260073111255
Ni 8.562957808526317 2.956012216554321 9.620237163760025 0.4625370878399582 1.2294053724686826 -0.6147314825897477
Ni 3.6601301764862204 3.7376052189290183 0.10770013708847474 -0.5448550693135842 -0.8983269894930594 0.406403478071184
Ni 7.660757416001319 8.645856845682978 6.985367157302637 -2.2009802628132995 0.37290251810026104 -2.060174569516426
Ni 7.035088036024962 5.756573671787922 11.876160011328043 0.6265593284626112 0.16961773243255948 -0.6894834787906577
Ni 6.782654394863209 2.4963819773230127 0.12784494617361916 -1.086513743177058 0.22984196733093964 -0.0764466102945135
P 0.9596854647061068 2.652287056149681 13.059807317251751 -0.7778669497320733 -0.3286402058477759 0.5222913250804553
Ni 1.135181827003531 4.860223776125226 6.0205933365299185 0.3178444007838526 -0.0075173914229677 -1.055830198050272
P 7.268310536935223 5.474822643813802 2.6442066947939016 -0.7647666649046894 1.0910262863354308 -0.5355718442394454
Ni 2.6041201287334133 1.307136367111732 7.0238923546284004 -0.9927697792546771 -0.048845560747793296 0.015481897685683014
P 6.626396988174784 2.2121831978882787 9.174103863169693 -1.5150526196947005 -0.8657475128951413 -0.027498205420268772
P 2.031401917664527 2.551845800191947 4.425973196261877 -0.971574633234301 0.9074176389404179 -0.08588461577896177
P 5.625229553639923 7.9567128198756745 12.182507232767009 -0.6565131945122242 -0.9413042643855338 -0.34667289497977066
Ni 0.20216758143229163 6.208582503062315 2.1779758712261845 0.7947925218428183 1.7112897544870014 -0.11172677365304629
Ni 3.6102201533328477 7.280243325305721 9.819298696937372 -1.392220223046796 0.2923938219212319 0.37090245695109675
Ni 7.048736104775058 7.855372200691881 2.502452215509621 1.1475507037847203 -0.41197968660738077 0.10754384591995025
Ni 5.6461930614143565 2.2164945783018615 5.345069564115203 0.4405037621890027 -0.7764387019259789 0.17702122398548226
Ni 4.346492666542826 1.890387326889932 12.478419059247935 1.2170195972098203 -1.9768412594044082 1.0549135997732735
Ni 7.93574931210124 1.715354553884291 3.816522951247845 0.6501278598111706 0.6163407360583967 -0.6302923131424822
Ni 1.8971000998349516 7.309968670694856 0.31097476974954447 0.06528725124358434 0.9408797752536054 0.06608686432674425
Ni 0.13156293229371993 9.14457693399744 9.833058954296078 0.010095950783421322 -2.7113995190465174 -0.10693860823578356
Ni 4.937569013566326 0.46971145197042474 10.415111999344312 2.1514893551720236 -2.717381447661565 2.0389287727637724
Ni 7.835002087210929 3.5510476161296483 12.015200638898225 -1.864542415297976 -0.9067198415424448 -0.09872856162116544
Ni 4.735323549133013 5.433591012202609 3.6268518827648597 -0.5981974894904666 -0.41982489368341247 -0.1701617778614876
Ni 2.8411904207654737 5.014673184575696 9.948174665695916 -1.472061203734839 -0.9904323893707522 0.8321750762563346
Ni 1.8850096911052474 5.5175470329445355 3.891158972867763 0.15563221678674488 -0.4267244490167232 -1.2203527753481112
Ni 3.863608788435675 8.535921281029525 6.331853677283202 -1.0738119793396732 0.09194470593011263 -0.04254250134790092
Ni 4.02946249346401 6.093501097270069 -0.037553514170184765 -0.9483154055960443 1.7264692904409171 1.9221500385091157
Ni 3.5660586373975867 9.096595442297886 12.593644177720634 0.1527402399509305 -1.916454530786235 -0.4880154346167208
Ni 0.4727349813314344 8.563217418529716 1.9442156067374556 -0.4266712271812846 0.5139879474210826 0.35087330621436347
Ni 0.9468254977520426 3.2823327190404714 7.539532524914364 0.6007958463452621 -1.498828187416038 0.7168850107320621
Ni 4.735138113416301 5.731020630024835 11.55751840187099 -0.27927193982729326 -0.2859555224950559 -2.2646880853849063
Ni 7.3967525861166585 0.8645968107113006 1.7784824349249844 0.969697470816246 -0.7379246050111807 -0.8795579364156723
Ni 9.189767618160461 1.0620459803318234 5.698057577021886 0.46531439347477926 -1.6678298835311534 1.09729900671802
Ni 6.656020343919728 6.194850988239698 4.831206795173936 -0.4233419056977355 3.375099461115168 -0.2589486548889089
Ni 8.973021080680173 0.4822858479207506 13.196554105006191 -1.5645679528160088 0.37000282795496275 -0.4474570535783842
Ni 0.9818450328533408 8.109966167953344 6.295282045233013 2.858029789444968 0.7674596383558202 -0.6988368949810996
Ni 4.587169683264959 5.3881870769653695 8.578562224087737 1.3748621913843224 1.5575169595064982 -0.2627731708413217
P 1.9462591083356355 2.7851146600313856 9.38995103742392 0.44862073486918225 -0.6525328697082374 0.915377774327759
Ni 4.622356110511299 8.814232476458614 8.429805692140365 0.12598302646174434 -1.9900407888138176 -0.028944450948492087
P 3.3340507404317976 4.922706340871757 1.7744519896222215 -0.9866973478083524 0.357222645471159 1.9757781082472168
Ni 0.3266978641696614 4.56493594083104 11.609248476583902 1.350226138003197 -0.01049010089804645 -2.0266255299163873
P 5.084193034771496 1.2630119383198133 1.147428928913858 0.14244065779713533 0.9141469872444515 -0.10697126124593191
P 0.030883391440008998 4.993190456794466 8.368455212444369 -1.8407707667996749 1.1612014617989357 1.24950265743919
P 2.095395783502271 6.195954330754143 11.766472930534986 0.5303923569210349 1.6109838210763867 -1.376078580289927
Ni 7.065035904274153 0.07006132248860188 9.108939897959488 0.05099808831442185 -0.023695543844726934 0.3705494444870521
