# total energy = -340888.05451246345 ev
CRYSTAL
PRIMVEC
9.09174337416432 0.00000000000000 0.00000000000000
0.00000000000000 9.09174337416432 0.00000000000000
0.00000000000000 0.00000000000000 13.30668543559278
PRIMCOORD
 96 1
Ni 6.581049328453399 2.2065206510874473 11.528739689767743 -1.0765944271808168 2.1627839542492366 -0.6934545476232638
Ni 4.704477135095261 0.3886465711125706 6.221088116768282 0.28335870830215715 -0.07064465890075575 -0.7321452793252423
Ni 3.1048576275090816 1.579108534600113 4.690540401721883 -0.9464719246294022 -0.34063697319833597 0.47104641086255006
Ni 3.122922921535373 4.277947087813213 4.2377797657155005 1.056360359522129 0.4732637302288431 1.0690135295097654
Ni 3.75499001061529 2.8596442177541235 2.537851053805179 0.9363911433546324 -0.7659411448287647 -0.26309610139837913
Ni 5.185630376393391 4.908814066771605 2.41674721410261 -0.09447467144081795 -0.38011729068114536 -0.09459139952434031
Ni 5.298077058082959 5.027534051369144 11.281048779951302 0.6566281228235337 -0.8435244398308827 -0.18294401722782042
Ni 5.707732829716896 8.368849739792058 12.110973115225663 0.13249794476212665 -0.4913213590615022 1.9029241003999677
Ni 2.282400341043878 6.657383605577074 0.23283681953956284 -0.2649367541515437 0.194284124830988 -1.0478484653963758
Ni 2.498065584927952 1.7114479507282938 -0.18422963209479135 3.1036812130043385 -0.4197824704812513 1.953868966878951
Ni 8.285742113876442 8.687306233933429 6.713835149179815 0.8944960457827433 0.35490402464031134 2.0161793948823985
Ni 8.745720684924331 2.6181675145139143 1.3091064866153193 0.14392495565214566 -0.09338195259727144 1.2646971057914411
Ni 7.187050389363524 0.3625059906473504 4.939295045509675 -1.792365893133726 3.07517950602022 -2.1142386983506816
Ni 0.8235928452089804 7.411080037124894 2.17069281808825 -0.29036984951266764 0.9717664375301328 0.06647921466915646
Ni 7.604370500637201 3.7582084877593798 3.5610022103884305 -0.43735313237516293 0.5919049716135355 0.23835154746384757
Ni 8.0212087495136 4.266400573765206 12.703679319842559 -0.5551435957237858 -0.9051476119593186 -1.1469284968196893
Ni 8.25885782880561 7.01177066941744 9.24817315335653 0.19217762001094646 -0.02789261264521003 -0.41949142160339364
Ni 6.885277244260021 1.1884999652737156 0.33063943022352005 -0.7658917796480681 -1.638784902449055 1.0512168676479765
Ni 2.0972469878252458 6.525171473855721 9.201094287968033 -1.2424622056526409 -0.17921386076142684 -0.013298516881119033
Ni 0.36257690624544053 5.017142188725938 1.1555287580334814 0.07789928358064004 0.5463015719521237 0.7049175539575409
Ni 6.579430998138009 1.8702625234767871 6.991771561581691 0.43200472357905606 0.8251546790744435 -0.33472317881706226
Ni 3.5441070237306267 4.273464858344184 0.2840660657649999 -1.0507391566806097 1.0386153768338824 0.8921360301909991
Ni 6.3113609456140045 6.0220253054063075 4.409250045200077 -1.4706594382913059 -1.286696749990984 1.4712191674495179
Ni 5.659292021175336 3.009657982944766 9.428744267929337 -0.4745384831762085 0.7754547407461548 -0.6289036603250717
P 0.5460764713496374 5.90308711896849 12.284039904841602 0.9564017821486045 0.26808455575190604 0.7917655620910363
P 4.356081530119176 6.6309539076734865 12.426434789109228 -1.475496197558317 -1.1538072262173935 0.7426320377891791
P 2.3972381512331506 8.70040743609341 1.0865678847625104 -0.05009820220797179 -0.3028055041728591 0.017234875821047737
P 6.495150537330903 7.7963972118245675 5.987583054092871 -1.5615199100183044 -1.3136663366012924 -1.0056985715012035
P 4.724760814497705 1.4489965955914292 12.636654078729714 -0.2472182538258581 -1.0339848200404063 -0.6277525774397641
P 3.937243097706903 6.062801774308127 8.10371813871712 1.9230041589792946 0.3306821759784692 0.2750877265426166
P 4.688902978745468 0.8181823487444378 3.5792056989135643 1.9204579955186734 1.2792991719753322 1.5645710381398021
P 0.2352143104242509 5.872429760409531 3.567455529814632 0.34632862426647454 -1.2278130882808984 -0.8024672647792567
Ni 0.750635241563597 9.145293713188787 4.588398301939411 -0.051298136053343914 0.1721682667685551 -0.10863322232938712
Ni 1.9778723977068742 6.881858748762344 4.689608498029031 0.001724696000590578 -1.803704715185313 -0.02334561670447592
Ni 6.070329737797695 5.652409571463256 8.90247870532821 -0.7605713958764192 -0.44377780495458413 1.2648182047503378
Ni 8.47371390753199 2.2851278640473436 9.891936770249643 0.7405437878015827 0.5774635993772248 -0.18416066324374092
Ni 2.6040207618692697 4.988657756826406 6.8294166639746985 -0.3682169396991336 0.6089123048048094 -0.4704545429148221
Ni 0.68599749225312 8.809681099355613 8.85772823541034 -0.08631141890373523 1.1622604991910692 -0.1348582174641871
Ni 1.2605883982553276 1.2939641880744095 11.12509446965911 -0.11850163048303464 -0.09170327934326787 -0.18686726354162655
Ni 4.449944688411793 7.304433887689365 1.3660244366516523 -1.0663089860944088 -1.5123917850330857 -1.416118112710316
Ni 5.895795540805891 7.927091022407324 8.023931726645392 -0.5891032404986822 -0.014777672529806808 0.41559182943867135
Ni 5.661074002870933 2.751879783887173 4.879415005491577 -0.5939965640352415 -0.0640592923737542 -0.3524925869853413
Ni 1.032067429281583 7.323281071643317 6.939994992406892 0.5947324137600015 0.11338770629523698 -0.27044200024048903
Ni 5.297758847065888 4.564082434363509 6.746795446328034 -0.24411493231018608 -0.0295129218574524 0.06653860715218217
Ni 0.6493041252874889 8.026900180847498 11.125067194429077 0.33879889154833265 -1.7722698937147994 0.6255455424861162
Ni 4.62779737172448 0.5655218920156826 10.506892289180147 -0.0439946604133952 0.6855643462419097 -1.177309937325024
Ni 8.090660576925194 7.420635459380371 4.406416148799476 1.4162363834557352 -0.29206574915785183 0.18372383281663845
Ni 7.466730598138951 6.059565113677348 6.97773300068285 0.3159829220950816 0.61582780097772 -0.719176120759084
Ni 2.440151179821019 5.551645779971868 2.3187036722200127 0.455840392546073 -0.5508274848469352 0.642188550359436
Ni 2.6473701941376926 5.0888033097703405 11.571519978902776 0.18466022858797876 1.4819681784359058 -1.086886038914812
Ni 0.842877342017821 3.5613267856258433 3.6681474965335945 0.8772069196849925 -0.02574497017458792 -0.32681163727946944
Ni 1.6253855082255897 1.2101655896645822 2.461975909720421 -0.5513319352871795 0.15667634178054307 0.08772578275275861
Ni 1.3781628231914116 3.2129493641364477 7.966645561003591 -2.0155751856394963 0.87490655368659 0.2064672971607412
Ni 3.6136315850889806 2.7298141227891315 7.172676343135257 1.3643366092626503 0.25247127469468134 -0.8436121144486826
Ni 4.207313333766783 6.987322971563038 6.060702490769794 0.5058354935172772 -0.3715483180652117 -0.8858049457666487
Ni 0.6735036185485757 0.4066300394487579 -0.08171022496350652 -0.9642516172103266 -1.522722220424816 1.2336914014385463
P 0.4245216811771618 5.592658634200656 7.969933135397102 -0.035455769704448616 -1.0957789705290677 0.33124010536446824
P 8.786806273099875 1.4738261466663167 7.790239374057075 -0.6508667948597242 -0.041813336491360244 1.7371787064386213
P 1.7212397583107375 3.1310236648556673 10.168463053258728 1.0897499907261683 0.05909166395583372 1.0094055880391453
P 4.061327210877926 6.278230632865235 3.71374986280288 0.15874813670790722 0.3973688786727415 0.37833654463163874
P 7.37753150418226 4.210068132000284 10.343179994291765 -1.3714230837957864 0.7209717792069261 0.3246529390652538
P 6.555110584690436 8.020290483435765 10.16963406980155 0.0431240848829838 -0.6417766596329979 -0.15975112405112488
P 2.5379965216986973 8.602189332738593 5.795460879600382 1.3447671717711551 -0.3611474344468619 -0.4835275740486963
P 7.0293722845331414 4.139288910060335 1.3345806422933593 0.7553250598758152 0.8798122185183235 1.4571308076772518
Ni 5.428870877842509 3.1730820695691166 0.37278147897574215 0.13596122072037875 0.11036743141167442 -0.4851658809830677
Ni 1.8107206963111195 1.0590880905025883 6.9356836877127455 -1.0452927888540577 0.22773571962121425 -0.6199953020918484
Ni 6.758820186075983 0.865897636167076 9.108413056310251 0.9362119374642909 -0.7915189932978691 0.8815687961981141
Ni 2.694474516407554 1.4642161739507709 9.084580869480297 0.8168610716070835 -0.15176579185280314 0.767067288013408
Ni 6.218570613036084 2.161680172910463 2.4019894963051884 0.23823764759380262 -0.46675549679668 1.257236535748338
Ni 4.145334919384685 7.046255651924597 10.28765126263853 1.255911132068695 0.32711734144534627 -0.2685198435171117
Ni 8.290306169035576 7.53665519620448 0.21295863189030104 0.9984519172411193 -0.09157112464077778 -0.3725903861764809
Ni 7.85313878204001 3.9779104656885838 8.160617905266763 0.4388837100870764 -0.5050587632522527 -0.5340137557237061
Ni 3.0820919021734836 8.71389049147388 12.17066677450519 0.4556820125913378 -0.8914112362098325 0.3605411683214307
Ni 0.5228543404981261 4.8756382953061115 10.261716155572904 -1.345865032821024 0.26960973414718087 -0.42082916657821073
Ni 8.892115936263707 2.1986017426340507 5.8233916243302115 -0.03938621510710636 1.4386348057555935 -1.4461527113991934
Ni 3.925114712084823 3.060980874126655 11.37454099511545 -0.37654088618379666 -0.8855074691308878 -0.18766841928668324
Ni 1.3703621074014982 3.517968261614075 12.707498761221746 -2.054377760328991 0.9503818012067697 -0.7087225295259278
Ni 3.400975708252064 8.278786930217603 8.013219834636446 -0.0870431548634372 0.41749316022644223 -0.06448763816042442
Ni 5.721306802530813 7.9624215370455556 3.1171978507510976 0.21034786316207 0.4837160359104185 1.728121481332359
Ni 3.024404790650173 8.298570563736078 3.218979917497112 0.8020872557320186 0.7274892686104697 -0.09664185429546582
Ni 3.3730822396699494 4.242371096104669 9.219456882001703 0.6416573604463143 0.02217730742798761 -0.07944168836709543
Ni 7.659393731360459 6.318988918280365 11.55317011330979 -0.8785793745524869 0.2728819771405494 -1.618604570846438
Ni 7.875258993598121 9.014936297109791 2.5032533336805445 0.9881371655786725 0.2974352409998813 -0.3748118193078319
Ni 4.426660733705536 0.5336162370954692 1.5719724252487108 -0.11869600588202782 1.0363324943369765 -2.5233176663714993
Ni 6.147491363565754 5.9388358538005885 0.23012293415111393 -0.13774736608652408 -0.12100434230023031 -0.569901984979883
Ni 7.808580147906716 0.3155971408594039 11.563815635592318 1.068932796870501 -2.1149344388661255 -1.3831737965738116
Ni 0.43158596575613933 5.167201412633304 5.700477618527675 -0.6076470649391406 -1.0530256387219414 -0.38578400204861946
Ni 7.462921157677442 6.250082595469463 2.1999673224844525 0.37881425559900567 -0.17359831434686232 0.8430598414896384
P 8.581169222125213 1.6675439221158326 3.567415526143914 0.02616560265177429 0.366660136734975 -0.20864347887645357
P 1.9433783234563715 3.190829152578337 1.5768155969285322 -0.7064512169932479 1.5061869417739544 -0.8927934612693398
P 4.786220999509143 1.260161086318118 8.258035935207232 0.20299270834857944 -0.27546002228037075 -0.07337208513424784
P 8.545293202886286 2.044269399354587 12.544983848931885 0.9172078855579623 1.0363625762439634 -1.0257210373697174
P 6.504605950409586 8.169631459618884 1.0698336219619107 -0.8348158563132912 -0.40995417153691976 -0.17584417295824556
P 1.9467968189540492 3.172181986977973 5.6743561307234796 -0.4121673771381547 0.19803767833614924 0.6088313150552289
P 7.237764133741306 4.2215964625616005 5.7836707068307325 -0.5967095920910304 -0.7636238095494977 -0.24145923985489384
P 2.579027559414174 8.579669084473306 10.032921525124477 -1.2067930343858055 0.47082401043909883 0.7914865973980368
