# total energy = -381162.7638905229 ev
CRYSTAL
PRIMVEC
9.28163613424067 0.00000000000000 0.00000000000000
0.00000000000000 9.28163613424067 0.00000000000000
0.00000000000000 0.00000000000000 13.58461268461701
PRIMCOORD
 96 1
Ni 3.309274478125692 0.6663407102750463 0.10905179698882139 0.31446005769265195 1.917732369057394 0.6516093294527036
Ni 4.797399168421009 8.835606925111803 1.8504008634959757 -2.733074947137422 1.2243852935462718 -1.4263485321890725
Ni 7.0559924581139075 5.1251244518342025 10.765777880532397 0.7466133910344303 -0.4873726588263993 -1.7791159701023553
Ni 5.540644729605928 8.907502477104739 8.541067202839267 -0.9504730753689952 -0.9364399943146969 0.010628683358439759
Ni 0.3159951519119448 6.354477132116213 3.3331886131256665 -0.7634191497378595 1.0761575967537145 0.5852602126035081
Ni 0.3326844614960527 9.207280754701934 10.338935863240792 0.2576888143398788 -0.9917824756407436 -0.9046832707283904
Ni 4.586093444605982 5.953955978023881 10.857487868930512 -0.7147983034063625 1.0602828345049868 0.38160287408773635
Ni 1.7336332425500502 6.089161568765052 1.5038301464697614 2.639076444002074 2.105972344576831 -0.7650561711206502
Ni 2.8043256380699564 6.4682142989276565 7.4746889117043755 -0.9955643112806789 1.2050994487334665 -0.40543545773095985
Ni 0.8979481563821138 4.951409353577064 13.104437346336407 1.6049404430957843 -0.7574608752718954 -1.571246393277449
Ni 7.463409867709821 6.049009211687665 5.1884122146561795 -0.44435836004840246 -1.22160207437418 0.08686729140720523
Ni 5.3275105235106786 6.821213477006067 6.553502323418735 0.5036161172684551 0.9105788102772189 -2.0753055116205936
Ni 1.737782133815328 9.1635178412438 6.480403871407947 1.8892931398800945 0.16817020135275554 -2.0604537913197416
Ni 0.24975211620660165 2.78159491165236 9.054606196957677 0.5297891761193972 -1.4658013388680564 0.025758854131658866
Ni 7.22310831321755 7.701233225406053 7.392759911260062 1.876021362471853 -1.1137399258828626 1.0557972879298074
Ni 8.731708292396991 8.568073050770929 2.1963060872252766 1.1846578930496632 -0.13086683691660686 1.1567220858713434
Ni 4.773452547695244 4.179038018811736 9.143028629905766 -3.5167194227832206 -1.0522627924139878 -0.16131923986919314
Ni 7.647121287874577 8.015778585784135 4.361353480931083 -0.08347189257241108 2.5061308701795677 -0.8424772295132911
Ni 5.603769135635357 6.1638973013556955 8.766177503788182 1.7246196388266877 1.808845121735672 -0.2264887345879906
Ni 7.994319443490349 8.88467893432774 12.629791191298297 -0.5096391835340836 -0.3351255564618035 -1.8030033182429142
Ni 3.723541735045488 6.566887370608125 2.657082693677916 0.0585195935024476 -0.2855940253905791 -0.08308828398074723
Ni 9.06347108744418 3.843441908121237 11.208609372058216 0.2697537159242129 0.0846851961542219 0.5002034920424805
Ni 2.0394817100521476 2.7704198219803366 12.275681001397844 0.40816468373666476 0.7374461227128655 1.5605200079988804
Ni 2.4747718723765395 8.593031369814177 2.4802378277817345 -1.129614431021274 0.4875050706392056 -1.4682194613912456
P 0.9664132157315454 2.195886557280778 0.6954061532218422 0.280687075007265 1.3803872349676098 0.5595203846352429
Ni 2.687256363955974 2.121717004482488 6.843248080728146 0.45217297099681475 0.6923417741750592 0.23467949792889903
P 5.69290068556928 0.4720083141038985 13.543545973686603 0.2864057226585971 0.576534402694736 -0.12391945906449625
Ni 5.144959307838451 6.903439489800467 0.40181408597880397 -0.4472598499659136 -2.3088889482718367 -0.24799267009803744
P 8.156998676614569 5.966346962004074 8.183221154472875 -1.7505083336679916 1.9009754613140293 1.266090386594542
P 7.91804295933363 1.0882439690828605 10.412850171050726 -1.1613215323165678 2.295411739721008 1.654567104983976
P 4.860217280464411 1.7921261122453105 3.2676017890812967 0.6921401996872145 0.17547007744827844 -0.07228759382081744
Ni 9.127597910155153 5.1301272536059805 1.4048795538746803 -2.1987274622233812 -0.011637841349244473 2.5057827428115296
Ni 5.724337586498803 4.7377182493254 12.608231807336356 1.090722896162399 0.43099299448509 1.659627550226019
Ni 8.928989464306346 6.784207594512414 11.062071831997631 0.5253568513796566 0.28740562467802117 0.6484754118094121
Ni 8.887973915086517 1.4279704077667572 4.445591752397323 -0.8518982657168748 -0.15325446058318767 -0.3203643389922289
Ni 8.85588729964118 9.267936245571263 6.46608509164297 -2.0402606042013187 0.5536950362027173 -0.11952235843806511
Ni 1.0262240777303167 0.13899713902275004 0.6330549074662328 0.46935925296811426 -1.5788614866205455 -1.0380577045581991
Ni 8.91524336147888 4.36861543289071 7.342972287913133 0.7716325387865872 -2.104767268525136 -1.852561845897332
Ni 5.459764554022859 4.92375936011115 3.4526516211486316 0.37018974715478825 -0.2172124514923872 1.2654476108042207
Ni 3.478228097145499 0.5989810937660947 8.262894717383714 -0.874526544639352 -0.18689863100019424 0.8451213520043575
Ni 7.221539716743654 8.420272280058882 10.082730225564957 0.019262704884353922 -0.6470080832352664 -0.1706646856398351
Ni 0.440419194344957 2.17645081162196 6.4422303591130134 -1.004720009638018 0.9958494466212654 1.2171365824036586
Ni 6.15601719244245 2.8176355040082304 1.7932232016134444 -0.13410822667204 0.12796380433719895 -0.5065677436976115
Ni 0.7191003134500333 7.830804863131511 8.044372521625169 -1.0444047298221497 -1.7817076420889315 1.0932649458579624
Ni 2.1681808739992245 4.897093220054902 3.7952284502297697 1.3599464506147547 0.6554544142304067 0.2440794510865603
Ni 1.7074033393829913 2.6060049229352966 4.409347892214361 -0.31191903643835317 0.18751389598668997 -0.6119390074462752
Ni 2.0952364971450432 3.8260945305489678 1.7187798405549177 -4.46723672112659 -0.26267546892119276 -1.2502138245736016
Ni 7.5269612289925005 1.1203862743438389 8.273042329957157 0.3735941448506469 -0.1219636208897061 0.5921412559940575
Ni 6.719830167631054 8.180017133746311 1.1759971960796611 3.2712865429925597 0.701592860459682 -1.6319136292505185
Ni 5.9758884837506185 6.973218828799033 2.917065029017827 1.4142800310603125 0.7623552272497194 0.20438341804851898
Ni 2.8907191054015153 1.7501359912517596 2.2885182121277583 0.14417666665163556 -0.8026546981997145 0.03252445499026657
Ni 3.9735333174593475 3.4584118044131316 4.935507126720686 0.928540536961962 0.6737264730667171 -0.4268393773280326
Ni 6.795726104714225 3.821490839122619 8.566823742573375 2.692191835769815 -0.37568882259614655 0.5750495906190936
Ni 4.089563048348025 4.006863672120674 1.9511576624450233 2.658860825717853 0.02758279471427508 -0.6072611423546316
Ni 5.282457462656855 8.946271870427033 3.922421204663749 0.18490859715335897 0.38887009717311094 2.8411247861595132
Ni 0.17553058624704618 7.226236224529405 5.618853650365401 1.4592010599427192 -0.3824762778316252 0.22142006181583157
P 1.0102689455490803 0.6507243578056278 8.2939492149125 0.2064906941995089 1.428554795811772 0.5920767213047092
Ni 6.563183997867978 0.08737546441403388 6.141915602958475 -1.7070762306262859 1.378225965650233 -1.2956660433691298
P 5.497615065387072 3.465642198810562 10.927312687945186 -0.3444470909730455 -0.6343919371331526 0.13932370943470843
Ni 9.132684246650394 7.197388900027204 0.204932952578472 0.19729642929475052 -0.33989161039187915 -0.42126291168151964
P 8.08839810538041 5.261471683796019 12.805589088660422 -1.0640340740173029 1.2375871369485267 -0.7914614005870563
P 4.066145480870853 5.941741345126553 4.836339343844604 -0.38734826121194577 -0.23129798305117585 0.11583359673256825
P 7.283058399755425 2.1701764257263716 6.445966217578952 0.3454775891200889 0.7807530130306167 -1.3136506528720087
Ni 3.5283767761305023 1.2009787192127608 4.850861391436671 -0.02907840542319508 -2.0130274795169787 0.13207782650557254
Ni 2.4389911658269954 6.2887445863875815 11.879621529701975 -1.3033842379489942 0.7532275539168383 -0.14010095392036517
Ni 2.152754795066581 4.238756064451105 6.195547679911843 0.12296455135039466 0.8961904027660308 1.75390810337816
Ni 5.118812939394853 2.3898077769797745 7.189479089878949 0.17847441149224103 0.10136959878843832 -1.157785494138851
Ni 8.857771471737045 3.033897621415334 2.507026485432395 0.4406048065432412 -1.1744097329590937 0.6180713455962581
Ni 8.086513933284545 1.1722056477980816 0.6454171183750106 -1.765779143784133 -0.42010103016293454 3.0214794453936027
Ni 8.003471136527406 3.4751187491055258 0.39329632867646497 0.19733242473900853 -0.3133632250840474 -1.1867062909382595
Ni 6.646876509140933 4.293025789793567 6.373125795047301 -0.7902738080368583 -0.2534920026497118 -0.4344536993401808
Ni 6.692300835432364 5.211694270248625 1.362115344443715 0.04587927903061777 0.33558372704514466 -0.07823378410192333
Ni 2.1585650991651577 0.684165163934643 11.48373840908897 0.26287910029156664 -0.8334649987123518 0.4690838878195405
Ni 2.126747651162087 6.502714139717451 9.661648391537852 1.7091719368130498 1.4216297865571643 0.15473361623187543
Ni 2.8414614634667728 7.918804053480727 4.5743057669619045 0.033582206830819576 -0.9947454149238093 1.1620848928451535
Ni 6.453345118151426 3.0661791512154157 4.326617886588408 0.9982248888319776 -1.3752275451435414 0.1332260811774028
Ni 3.160545543819622 2.0182360453849864 9.94029516858995 -0.9687711023472347 1.174318715907184 0.2557414608055209
Ni 2.869918959259484 4.232593058186801 10.719236973437356 -0.330051998593638 0.9342920947337586 0.29606098636017397
Ni 4.544836572851709 0.9341688124752244 11.655814370439067 0.7439379010847962 -0.10433099540960743 -0.2821690588694302
Ni 4.529002101937696 2.7639783666378244 13.311751966697138 -0.09987578785173122 -0.41345524271164275 0.5597281297706748
Ni 0.29136725910816763 4.661506736620263 5.119415317567373 -1.7363022173709388 -0.18207909812436385 -0.8132057342426833
Ni 6.734699348407284 2.4591137525453903 12.32273796745116 0.2511962646369996 -1.9246416945827174 -0.6866251834062561
Ni 3.8545891528854406 8.506591494302919 6.644424300925527 1.7655788548478693 -0.2432664682669617 -0.9950596037301185
Ni 5.37547801804973 1.8508695861109568 9.333647443537233 1.0983241055484245 -0.5512360331392635 1.6859142518366903
Ni 4.29994060856903 4.9822800747142315 6.989459835367229 0.22171239624526978 -2.7756495872748395 -0.32899913184909146
Ni 9.131635421789149 1.7841624686086026 12.447743040294029 1.1147236299523706 -0.07139773501669638 -2.913416750855705
Ni 0.48201298948386057 5.219101015728921 9.347028778072247 -0.6700027443582267 -1.1947664422385746 0.26919321543505254
Ni 3.2591072358688082 7.8333387497431906 13.393734800629904 -1.5118271707788673 -1.0600046411429356 0.5243314954389358
P 0.9639257372995667 9.118474062025918 4.073658037000866 -0.07262235145241687 -0.9720212338534163 0.10528796000623802
Ni 7.19515202576561 1.0417244097504825 2.861313026415713 -0.7187488034136783 -0.9624541589902716 0.6485435460431862
P 1.233445881731647 8.108873394264533 12.076679942348765 -0.44151240595917507 -0.6668870815473805 1.1492088082134337
Ni 3.5905637369299703 4.891301479228204 13.146358783223999 -1.1953436548982832 0.008862078376320222 1.4591298403851516
P 2.421783012793829 3.8586081012475555 8.661494572836421 -0.46581087349522354 0.2117306024422095 -1.2250072434009869
P 7.994718553835779 4.718765148735473 3.5226667137000796 -0.8427934752021292 0.43540706439238563 -0.5808973076491222
P 4.785815686767616 8.262753636517424 10.67266914959809 1.235598388653272 -0.8181147415085266 -0.758249689721778
Ni 6.438336712836091 7.040195113743654 11.85599790990693 -0.04847300789972297 1.0326154504967056 1.0348523102470242
