# total energy = -340862.8197173986 ev
CRYSTAL
PRIMVEC
9.36639095513504 0.00000000000000 0.00000000000000
0.00000000000000 9.36639095513504 0.00000000000000
0.00000000000000 0.00000000000000 13.70865993214884
PRIMCOORD
 96 1
Ni 2.8818980390245064 7.489253909769819 10.579630954700416 0.6775898126768652 2.72735295705198 -0.8507114444976251
Ni 6.517781193486663 6.1849090209436675 8.6321100400922 0.19549691419216655 1.777241378787462 0.41641792488439255
Ni 2.723924487092539 2.2723801395834555 8.494255496197104 0.0101946811448147 -0.6576511647714093 -0.3492581392084437
Ni 4.892777906084032 7.3530010187491675 7.209357108528378 -1.2534125340165574 -1.3402625990325823 -0.959851945480734
Ni 0.14683410302216707 7.525867132496137 7.490479970362011 -0.32944804646105197 -1.2449726307793205 -0.9655646795947952
Ni 1.9489867548120199 4.122570201298215 7.027237000395734 2.4383887296375875 -0.9052507131960862 -1.7569857138622194
Ni 4.662645677282394 4.944864406872226 7.543587407777774 -0.9604381570015073 -0.33857057758761044 -1.236842031252386
Ni 5.757183405947509 4.997025838789049 10.895259601267677 -0.4835838812079285 0.4537593416473282 0.0043644476162828065
Ni 4.916812065591766 1.0039459941527236 9.68841697029172 0.05229418141802607 0.4453641756050975 0.45871462877007446
Ni 1.701910724549162 5.75846660152528 3.992413894230635 4.211690407051011 -2.146392914485723 -2.8764627993391754
Ni 3.640229159922636 3.781165246482598 12.748766302063377 -0.3373043092806772 -0.8316832242215806 -0.12012939589444474
Ni 2.5445206323726945 6.286215906849997 1.2223683608278741 -1.7444556997160088 0.3829881844710372 -0.3779279963393104
Ni 3.0140109851884103 8.859538191789442 2.297009064924681 -1.7496321017106256 0.5811294782645862 1.2478160137653864
Ni 6.357840699428187 3.983404362652113 8.724890700199664 0.7770387974038231 -2.2038938369156686 0.7652559458362821
Ni 7.901871535956168 9.2092043035364 1.7142818538858002 0.7377813945650971 0.8041371962825119 0.186064308024357
Ni 1.816517885787129 4.519808213333473 9.179195323159616 -0.5068662487746367 0.0073538692619099155 1.7950195287064894
Ni 5.907691944189818 2.8776269646926567 1.1527226866845959 0.5116721548037123 -0.2821875708121914 -0.3017320686030223
Ni 4.0195679986066555 6.717772375797311 3.3154261332938693 -0.4709435667360986 1.236861828746728 -0.5717081849506864
Ni 9.310960776214504 3.432360842714872 5.600467760337399 0.066472272690621 -0.01618072352492052 -2.0324850740209577
Ni 0.895861587661906 1.4002192679068837 4.723222811583355 -0.28028264047999474 -1.3232362396779147 -0.7913724404176758
Ni 0.15022099003619527 6.863653916846783 -0.04303107389338572 -2.0472745736253066 -1.3494208684930826 -0.24515237243576488
Ni 1.1216721636198703 9.166409262698195 11.58443491027594 0.7299801533531235 -0.13794276992678178 0.7142565719702796
Ni 8.752311746721425 3.1407288900910295 7.727050656391091 1.6047789778172556 1.123126509304085 1.602280379765118
Ni 5.142298564418409 0.5552640157572654 2.8155530810973337 1.0985030543284502 0.30063600732536605 -1.6358841838624922
P 7.369186142533019 4.644971297317042 4.394091575637158 -1.5903399195737902 -2.382511973074626 -0.21423639958319876
P 0.9324851134184093 0.515009140179582 2.4127514327613766 0.7205038384315721 -1.345979189801385 1.9025777728041426
P 7.707640684158871 6.366204886661393 1.3529311692682664 -0.02609669708705183 -0.7558493078104015 -0.8868763244539564
P 5.8430732121384334 4.120921716468379 12.917245198229121 0.11008255318140396 0.7572672712038507 0.5631692942417398
P 8.46895968381108 1.0531008145333096 13.002513076052427 1.4566440978488204 -1.4134269390313978 0.7894104315952986
P 7.45205060440555 1.9909950187996208 2.416658154480268 0.21639998289342083 -0.5454153126924284 -0.34824075368752283
P 7.732901840897904 9.178529372753927 8.30692673798564 0.683881559222848 -1.8890386006671274 -0.4869545974523743
P 4.285817031407444 7.525558041590542 1.3090346408392164 2.8294141825908046 -1.214567536124902 -0.10337634480582197
Ni 6.233192766953942 4.981880384414923 2.3858689537266358 1.0902608689243158 -0.5259145236553393 0.9109143392397667
Ni 5.868137674664815 6.094148691391862 4.993338290621397 -0.006330055983085873 -0.7166374134976303 0.5291733969122693
Ni 1.258730564273284 8.886756924263905 0.35481856347930596 -0.9348698216140997 1.809586884997703 1.0155559239112573
Ni 0.2740596663212479 6.182670453475878 2.187285539995105 -0.05672547771650231 1.425599826948506 0.3858328530086839
Ni 3.9355795698046907 3.5432870122589426 10.083829472705757 0.651328307877175 -0.35045061685464807 0.05095617933289289
Ni 0.4628767440751034 1.6765559038993436 10.135963742088451 -0.3230459995894501 1.3759258567621464 0.10454259719978125
Ni 4.259375709392507 4.78132721863956 1.161776240301188 0.5032008841079075 -1.564834576213834 1.1679117839395756
Ni 7.4762533589526985 5.084882587106483 6.593660200892763 -0.08212514873652954 0.4457765805521678 0.275808406758725
Ni 9.30197840717011 8.066364096078853 9.500019506858186 -0.8701114462907918 1.012469828786766 2.6309273325323783
Ni 8.779736539799618 3.0443580922831313 12.474414404340475 -0.004644183640230712 0.7233819313103155 -0.9518848681148574
Ni 4.215175709892509 4.579828047365256 3.817834667555386 -1.0056893155298228 -0.15801331542441174 -0.45708274959360634
Ni 5.243212061899437 8.284207619785345 4.652171242139176 -0.5022626885643543 0.8426201828490584 1.1035370172079317
Ni 1.3209515002085417 4.6721993961825845 12.935738200774745 -0.8946102027631044 0.7711728255413494 0.025290913356304828
Ni 9.040599897730202 5.854406545343561 4.576348433079549 -1.9393419769073696 -0.3592687293669103 1.2969847621805533
Ni 8.592137092885983 4.177813175879903 0.9925218069541335 -0.2212107740185029 0.5398691860632185 0.6327837121057682
Ni 3.5386225495017913 8.813858302499023 13.549434447275967 0.46061724510942603 0.1480142952301709 -1.2621380868150134
Ni 2.9339189750751493 5.470843464283085 11.236906208973124 0.2424167186721567 -2.4905713251784136 0.8406419760767652
Ni 2.938527239485829 1.347561417262895 11.069235632357463 0.674750029235225 0.9181833620973542 1.048710299176039
Ni 5.762709576683893 7.452556389523796 11.51639838211997 0.013610391694583012 0.1329885112453 0.34460289982461945
Ni 5.053093055785654 8.109271533610002 9.347427883239993 -0.1694261852470437 -0.22787764451571718 0.1796298652529229
Ni 8.364908445318717 8.463012025476159 11.826090610021602 -1.163653265773538 -1.0795589091257793 0.5581211902948711
Ni 6.387138770722103 7.3626858671244575 2.7469002444083883 -0.6347264376544359 1.1048997018834132 -1.3304800657245215
Ni 5.281661097277164 2.173883171000711 12.051241792047634 -0.16117448676121277 -0.014363467810523651 -0.24787337091135378
Ni 7.28921589550378 7.737229113576225 6.616580696501249 -0.7746255599766401 0.14219563166586477 0.8181779906462942
P 3.7168837045100442 5.776665499391033 9.293347277791161 0.7979025282267097 0.273540950880787 -0.24008524232550263
P 2.15925286813591 2.0365999769614103 6.3674534265921725 0.05991133164365166 0.5156367958784152 -1.473938880373526
P 5.803275416445387 0.9222204854353521 4.851015041542691 0.2089898064722788 0.7824342573877815 1.167438186737267
P 1.8036109988807938 3.3853509258912897 11.235193096044844 0.529418680153856 -0.2528901073996548 -0.892698073342056
P 8.0104935732949 3.153120625488041 10.294655696216148 -0.07506541367627073 0.3143867812525553 -1.1743110025977002
P 7.546697986254983 6.648676508810348 10.582304122714254 0.8798458999697362 0.3736319400671178 -0.6756270325235396
P 0.7674071538533106 4.254758078590748 2.7633504370597652 -1.1596819398306157 -1.0587771964937378 -1.6634101571969029
P 4.017488659787203 2.7192412915532302 2.473549613891792 -1.1210639703481016 -0.18136098901141667 -0.5477658152024759
Ni 7.991311204365889 0.48865398896256734 5.152578178627193 -1.3864411544711734 1.081645616451479 0.2235347941659892
Ni 6.67312278952554 7.724902942916764 0.04632523363573559 -0.14577203616321346 -3.3141990260853693 0.7064023660331835
Ni 3.3621503751895534 1.2695206467958515 4.259184635014503 0.4369520402820023 -0.5881208219807549 -0.27176920369234486
Ni 8.803630203441172 5.1767013188501725 9.42005675294181 -0.5737157022990184 -0.18676930451118157 -0.4312243937696057
Ni 3.2609933515404816 9.125496866466792 6.1311843383558235 -0.06675072316298827 -0.7176871949183833 -0.4795937862119289
Ni 4.205134938656231 6.11726494457389 13.08882343320278 0.35325106241792065 1.7531447428495741 -0.5695176050572708
Ni 1.6146534252607592 6.543164113309718 5.946720759175309 2.1156358358085243 0.9355730183287112 2.8820994287996617
Ni 2.098970775153926 3.5074886655564654 1.0702862688843575 0.7627815161538606 0.8201153168783231 2.0701784748066734
Ni 4.197716756921966 2.7676842662118415 5.982746709180998 -0.32326222936531424 0.4032862725984409 0.706649449046983
Ni 2.201017605955467 3.21533219503222 3.7744467341619052 0.24016263253065734 -0.14180868064009125 0.5509228727742189
Ni 1.2054264326448703 0.3483033018450194 7.041768956154209 -1.9436197783471172 -0.32122334455841456 1.0400824482977118
Ni 9.372010913264933 8.108166299462725 5.2075495278676005 1.8949102289565563 1.1862229235439377 0.13284967167459058
Ni 6.5219024055612556 0.3985530533426959 13.470143263599928 -1.6137948081626208 3.1854847167353912 -0.2347188358072667
Ni 6.725040695274318 2.8091492795168826 6.337143785061766 -0.42016710751417957 -0.4085524060933867 -1.3146230440876068
Ni 3.8306478905509356 1.7530980517938082 0.5308036854554551 -0.2719296405296091 -0.2944471049058348 0.002413237427182941
Ni 5.524606549074352 2.877523934390792 4.003285464355587 3.0551274724653514 -0.9120538521608486 -0.5125879817497623
Ni 7.202839036976768 1.769573533701097 8.366175718031652 -1.261349529475447 -1.0698409105070672 1.8525651883314418
Ni 7.750520022516785 5.36659553157807 12.297024323702534 0.08060845498168699 -0.024984180749163424 1.0073026827635296
Ni 0.36983195173922234 1.982171878403563 1.1803376175016846 -2.3991925190541004 0.4679960540720005 -0.8630943915430104
Ni 7.355070991177542 1.2424143110143318 11.165813427408198 -0.16640899568727469 0.43633548974392594 -0.9052620260499957
Ni 1.6518941961893432 2.1417751823832094 13.033316326392676 0.26402864051497754 -1.3719928402563273 -1.4406562070609963
Ni 2.0596319326237316 0.08508616983637948 9.463005402593707 0.2638224380414424 -1.462923760209945 -2.1719905604491694
Ni 0.8225124424861424 6.442906263204194 11.105659653983992 -1.8317050570529811 0.2048089356217118 0.32007843232069394
Ni 5.35791288704819 0.21249906095703264 6.963176505252635 1.5437996099204057 1.3267715065246828 0.14268362704587687
P 0.25836815134723956 5.174874872589843 6.920021794997012 -2.0487107918512004 1.3028052255170723 1.3586920093823633
P 7.545396057895055 7.501570714038203 4.501595265881101 -1.061126927672837 0.9227946356171204 -0.9044284744051069
P 2.323211543967114 7.920913409018999 7.754645917786915 0.4051552074863797 0.8008107030124402 0.42404150286792136
P 5.004415921350078 2.191651214876849 7.910445530349535 0.07359345711643456 1.4050862803761868 0.5687750704642914
P 3.7166776439063147 5.886074313580368 5.401705448536268 -0.4701686362432871 -0.04717125836916392 1.8052198662782588
P 1.773638547429217 7.829001013364522 4.045411744870778 0.9554373613528061 1.4033528426248474 -0.9669793005541346
P 4.784933279204828 0.0005469972389912774 11.860663832770996 0.5359683083469157 0.6505014411005056 -1.047194376752145
P 1.9748941925354768 7.261079256703613 12.79085137045782 1.6422846880721973 -0.3695405436065636 -1.1846910602804435
