# total energy = -381170.86505107046 ev
CRYSTAL
PRIMVEC
9.19185631559344 0.00000000000000 0.00000000000000

0.00000000000000 9.19185631559344 0.00000000000000

0.00000000000000 0.00000000000000 13.45321084494376

PRIMCOORD
 96 1
Ni 3.8223874681974657 0.9500151123329145 7.645849464392219 2.6177368019840337 -0.62201413229409 1.7130717860880884
Ni 4.482059416712242 1.56119082719763 1.7953175172893816 -1.9121029386857589 1.6716937373619338 0.32477738045826
Ni 6.864303612855683 6.2699398030982385 6.582063989520088 0.9185898535071535 1.08990528535711 2.1389287448981937
Ni 0.3946973888002798 6.201175526385556 6.788100366868362 -1.2303543666455132 -0.6509956071281047 -0.986520970131488
Ni 1.8524715603547186 1.4210517865932255 2.3663790522313843 0.09525551547090046 0.11049804345226776 0.43266498287087424
Ni 4.1114621558511395 7.0239845398778336 0.22978078045002515 3.1571030802689046 3.1045990968329176 -1.1243004750075283
Ni 5.75641836918467 6.330743932286099 4.650600373987482 -0.3848159817083953 -0.32543583997786535 -0.906298180623994
Ni 2.6236499172108334 6.787468886343009 6.437320748112932 0.00803675426154745 -0.541045722869823 -1.0228809968177608
Ni 2.850523313524483 8.938032345346608 12.515279441276526 1.268941482890092 1.1273446611504907 1.9170078321865436
Ni 4.26383555714323 2.2439894860732026 9.630615735215452 -0.01117144323578721 -1.877205098367309 2.212331683270377
Ni 3.478180026670958 7.61137173073073 4.2865431188583765 0.7941368905366905 -0.6428606367257961 -0.5667742379841787
Ni 3.7818054227909035 0.5191073249653391 3.6540404590894013 -0.7908453642696122 0.37301024732271887 -0.37473751442647074
Ni 6.916347903023736 0.543847206100506 6.847172750336043 -0.3298784491302512 0.04936980868237949 -0.5770172558684257
Ni 0.5154747033697165 8.725001884566884 6.784373069153218 -0.14791813597193879 0.5901728194137771 -0.3725492485259004
Ni 6.043581150735385 6.4908568765526695 9.161743743105365 -0.6721717269850875 -0.19788392636710436 -0.8277378664205873
Ni 8.622301274526677 3.8966392830998906 7.796808239005245 -0.5020734553716838 3.8074494838487842 0.5929529532620756
Ni 8.121639247526762 8.043820992393815 5.180333484794268 0.7844307189925199 -0.3148243830106062 0.6023457073308852
Ni 7.585873521453764 0.8963567322048631 0.10437812380842938 0.617623202315246 -0.0242609294298937 -0.2758873396257765
Ni 0.587865167378636 0.9241859962304366 11.848525167510163 0.8976057950563187 -0.4182778609112667 -0.6643244630265269
Ni 7.169960409210022 4.456708277135505 3.227680802201365 -0.034399303415476236 -0.272863208087472 -0.7377076039043683
Ni 5.723493140046209 5.403175332950427 11.365406717376151 -0.3086185113102104 0.46697969699234415 -1.028901749090544
Ni 3.7955380560496583 8.725323599536132 9.743124975075215 1.1919613686896116 1.7535777166219346 -0.33105652859875245
Ni 8.737585535792611 2.3363676415286836 2.593724909957016 -0.13002017264559543 1.3695531204665832 0.3536868644037586
Ni 6.540355022535532 7.641980612090605 12.652125958967085 -0.8624719274676631 -0.26801822129034486 -1.5393518585616972
P 5.1482851587434135 4.234384849672646 4.2964041422586385 -1.0252253286802215 0.12894776551702308 1.42099318141443
Ni 0.5669288763656062 0.015507580703377325 9.224328334851608 -1.3871775184165658 1.2718365450497 0.36226817831486646
P 1.3643931845805308 6.954549257657863 2.4076265880314764 0.2189248061978036 -0.5796495512849501 0.032447836116060245
Ni 4.871297762077198 3.8615631595956006 2.293597934331235 -1.101388346296045 1.8728504209430392 -1.7528531797510842
P 3.355312483987036 8.93272864428215 5.928211405206192 -0.4141946919808286 -0.910616862604006 0.30407562913453434
P 2.0725154074640484 5.037688744172234 7.907488299468428 0.453344879817729 0.6090249191232737 -2.0487293037939622
P 0.5800879377934736 6.2078855814584415 11.17173430588889 0.04513957265111581 -0.044569559080258725 -0.06633549000244059
Ni 0.5269167260474262 4.576018571445171 2.6657936589966877 0.6143918398621419 0.6649957780619387 1.1321353976709148
Ni 1.1521072641582089 3.821937067240518 5.820276033023507 0.5310420746898918 1.1729668298649798 0.6379660276376561
Ni 2.8151162831946808 2.9374598900715423 8.173390317479987 -2.9640237743792954 0.6580322022599119 -0.058628608276486124
Ni 4.825678579437839 7.897670477792608 7.413848850654382 0.3499096567495135 1.1272919535356842 0.10370364623825366
Ni 2.6836543549037066 5.582545216090552 11.145527404493949 0.21424642688552778 -1.8590207141487984 3.9629233206807943
Ni 1.792834796912414 8.034573984992004 10.881710099483119 -1.5759890501687568 -1.5724566115354661 -0.9802855307447377
Ni 0.6740792640233264 2.027365009494165 0.4099531126420173 0.19914376691613445 0.8064733006148561 -0.03573910527282232
Ni 3.23730743326689 5.440963054052665 4.309938231422087 -0.12394902675085104 -1.9206117474877178 1.0529737024380834
Ni 5.083307926811593 9.10702462276442 0.5154581580284409 1.1746689001577513 -1.1871978858626973 -1.3590632766788528
Ni 3.2370408694352273 8.46291448690498 1.9120779906713512 -1.6947305645767392 -0.7202184459806693 -0.8061012619874183
Ni 3.0274205873295315 6.4823727932207875 9.351811108565798 1.573448028914458 0.01597606371328216 -3.5364559819802
Ni 7.530317942192776 0.7475782658977118 11.067767977241097 -0.3723474169277394 -0.5618613740635937 0.9242784192514986
Ni 2.211459506754103 1.5454176018482166 6.3439149431271105 -2.113150350382509 0.3207839430281508 -2.145951970293562
Ni 4.612482665245359 5.74987376752454 6.820562326451106 0.1409897842832217 -1.4980136619345428 -0.22616040471429438
Ni 2.2863547515950247 8.189208582925094 8.13062244865379 -0.10784543632076911 1.2839040177371954 -0.3031484893345747
Ni 3.8982018986648095 3.4622689234775805 6.235348090419073 -0.4069462379485314 0.45633301591177533 -0.9564305785040109
Ni 6.1797860768587 9.224855028215547 9.331402430102333 -1.8802528840546973 -0.8694113348999736 -0.3351936906955776
Ni 6.068610575342875 8.777845866229926 4.594056670178089 -0.343412479060944 0.4952091241516826 -0.22599354011912692
Ni 7.804207683297947 7.360369711723484 10.401726991520837 0.44281672659289545 0.17562742896174913 1.063396440433304
Ni 7.996970101015051 8.073712908965081 8.205502986524689 -1.0278972190854299 -0.6486846996067409 -1.0983302761960116
Ni 1.3140493878213595 4.314197737614929 9.6661183608504 -1.01748039462748 -0.7438715666232351 1.1453655232079434
Ni 8.814677634280683 2.6907688516522184 10.358407611318787 1.12882638790234 -0.7258460765800919 -0.7660211061370807
Ni 1.387850801766838 8.773378624085511 4.53585751305551 -0.17927428168571707 1.621007009640344 -0.304480834992753
Ni 6.230056338767758 4.026639706244853 13.122947543790811 1.247381240220813 0.5592897566816756 0.4814606642173386
Ni 6.276530364039689 2.442423279105334 8.388413572697795 -1.283707071235041 0.08738999667989467 -0.6572346460592811
P 2.887125285168635 1.548671518965753 0.2708858424780217 -0.5871026651288856 0.4673108550795178 0.34931290370577905
Ni 8.930504215066206 7.945826612760893 12.678641706732499 0.4240430455298181 -0.17082178004298967 -1.0250988304046862
P 1.0004048683734068 2.2196310669730006 4.500273999085435 0.004880982241385143 -0.8861157921388482 -1.3168231370627193
Ni 3.062303681852273 3.0768635821748083 3.6746366514206543 -0.271503608735784 -0.348165163254581 0.5809340744243284
P 6.300337271764037 0.37062667480114864 2.4587765105850203 1.2128567240813821 0.6219390560817805 -0.23345796681697215
P 6.455275200953846 5.675814981603663 1.3620033019518316 0.2948854779948341 -0.05339667045358546 0.13549533682755374
P 6.496022699773165 4.482270829406319 8.02623972891723 0.48457786969008154 2.681158974994421 0.41068025106966694
Ni 8.782928962744043 6.154186757162828 0.9942812537301787 1.7099363257829003 0.76850299201867 0.21897828514355838
Ni 4.169389234028298 4.9631887491506745 13.386253781593352 -0.46042569792391025 -2.2549654587805037 -1.053146994791154
Ni 8.110232153902857 4.817075001974524 5.455667266518549 1.6712988159163602 0.0620476612603641 -1.5936880101104167
Ni 7.449337688504937 7.940725132534246 1.2247008681905678 -0.5335560993609972 1.3720056957721338 0.49882460941708284
Ni 7.804391520423232 6.738062658922789 3.1871732108305433 0.5196361468457954 -0.039306510909106494 0.8431634569470382
Ni 0.41959445067756496 6.478401911314642 8.92681092721924 0.30778187434152804 0.659913992663657 2.3351805349785137
Ni 2.380130069202668 4.131730198913759 1.1505924462458639 -0.6326338167914652 -1.0693092063733132 0.2496849701987958
Ni 8.131318272172994 1.5083652292471177 4.8751748870494485 0.2549187077939094 -0.09398281940606396 0.7684739385529475
Ni 5.228392186086151 1.9184323209068115 12.727571795998234 -1.6232703517532239 -0.7337704736334911 0.23138051546265312
Ni 8.025768186690874 5.647513256166108 12.169505707442594 -0.4976185049241237 -0.6421697813063586 0.8034951918231387
Ni 6.239671020420139 3.71203923374542 6.057402025814277 0.3209202114956989 -1.4882378134947016 -0.23061946892691254
Ni 6.457885688132888 2.5536815073275374 1.390645126071163 2.043660888132119 -0.6729394583890475 -0.3480342941036716
Ni 9.138157439931359 2.0209858612467917 7.2899453857694825 0.9708220713389926 -3.7278645850356056 -1.0815911090644597
Ni 3.662228564649575 6.025326124194629 2.1005441347705553 -1.191973709984786 -0.4666745070470995 1.1057563934567538
Ni 6.158589656313392 2.9351343504366927 10.935954000855203 1.251443840325961 0.21439452242761786 -0.8245952070265476
Ni 2.067248473824646 6.560071554222298 13.448501951400324 -2.7447562401300925 -0.4932268036143312 0.08762448128820394
Ni 7.721131686381864 4.579750465088447 9.935814777127833 -0.5249817274284249 1.9508708034825755 -0.37999207795719075
Ni 4.5210236954163 4.413148070299333 8.870428080894472 -0.13429334609965257 0.9332700812271475 0.694670679418552
Ni 0.9608063515871169 6.501749226225779 4.592468317415631 -0.09983105065672485 -0.9100694747409681 -1.54611514542746
Ni 5.44595423200414 7.614956554673778 2.5691192299233068 -0.4215603883172804 -1.1412257900079572 -0.41940477542685833
Ni 8.372236824858382 4.019359756083585 0.7974551163586602 -0.3256793234472391 -1.3476982293750208 -0.20342491078999161
Ni 6.121022539761497 2.2890295817679145 3.6508251477681744 0.3574694713746424 -0.9169026956127176 1.332880447635898
Ni 4.659351940336652 1.356956972862771 5.324673203711423 1.4961244153316298 2.0503539838815787 3.083683686836489
Ni 2.4949271620865985 2.720467739241936 11.601416818816443 -0.5116721548037123 -2.856471700929229 -0.17357723130093974
Ni 0.8400547742152201 8.675016570202018 1.170571865021788 0.2385358955605118 -0.12320520660629103 -0.30901728941052586
P 4.146519895642901 3.8111550198425803 11.283369400217925 2.1865702580355566 1.330370793840167 -0.15082296832355963
Ni 1.0650144260546581 4.173020017252667 12.331400952638797 -2.2434026936435685 1.1758585495904783 0.8517591690358491
P 2.2643954069797863 1.0964505744783144 9.901899585069714 0.3967857524757618 0.6013203513901644 0.3956233567365444
Ni 8.630279805764026 0.15701253114864586 2.9267725187931255 -0.864579203618653 -1.5735606432329223 0.5224296504305325
P 5.2296790459631435 -0.05103594353586741 11.575425006858087 0.9976659310047142 0.6382141390927202 -0.16925777798997949
P 7.860792750460529 1.242380484529182 8.880558425683276 1.7677856326912005 -1.2529409936967777 0.09273634859347255
P 8.191920180523041 2.894726950299151 12.361240475629357 -0.26843242600962797 -0.4461715019977413 0.8364328230914241
Ni 4.271317728142311 7.246795135722696 11.329123703144367 0.6748117357110958 -0.6627180377713554 0.7168940095931267
