# total energy = -340896.22958416364 ev
CRYSTAL
PRIMVEC
9.03397866370598 0.00000000000000 0.00000000000000
0.00000000000000 9.03397866370598 0.00000000000000
0.00000000000000 0.00000000000000 13.22214094289695
PRIMCOORD
 96 1
Ni 6.26039342641857 2.035292086845015 11.359590893261148 0.7420555964604187 0.04427516776829149 -0.059927529593567765
Ni 4.672138724780547 0.4281184277237548 6.126994088351305 -0.28895420011206363 -0.30661227951345904 0.11369752422617192
Ni 2.785554955733048 1.4415790289716925 4.868709059933706 0.17822758558875756 -0.049782727850082004 -0.11571378332525233
Ni 3.507089773433662 4.2538926286095 4.844645251773979 -0.5750220798152679 0.31288242879288697 -0.3165663054023774
Ni 4.99512151913671 4.459316262556266 2.5010867213225842 0.49229940670405536 1.0308940969302245 0.1164447479540059
Ni 7.066919912537812 6.120972038375981 2.6137395280842175 0.9137327825251683 -0.7823033882368721 -0.5665970889763662
Ni 5.018555659004686 4.568220871695994 11.414832767539746 0.6972908906502184 0.01431255996793019 -0.184104870305141
Ni 5.683456466361298 7.888957739502588 12.36866459461707 -0.34628208729925525 -0.07010472723688571 1.1507586691990568
Ni 1.7097436426343784 6.617822780264553 0.31343839621795266 0.4613134998455023 -0.5389297049680847 1.2562165791242559
Ni 2.9174239378659887 1.7105928366002956 0.3066891109845814 -0.5748120206869907 -0.4727736779663019 0.41722525127703625
Ni 0.48820793479077246 0.23227442443080587 4.7746472772408115 0.20600552703297423 -0.4858266544955181 0.7703495583091056
Ni 8.528762154972831 2.37015456274566 1.2939873108995743 1.13978777200985 -0.976793715541395 0.04206890414559206
Ni 6.872472562299446 0.8377000352489358 4.870163530449798 -0.10037638163723359 -0.5261693199786228 -0.29438411287838334
Ni 0.760902185203575 7.559425310834828 2.5539887952057305 0.2883227371756518 -0.4348162248859221 -0.24479087533128813
Ni 7.706633988224448 3.877482886227427 3.847417806242606 0.34295328003633835 -0.19934971227935344 -0.674150447978013
Ni 7.582498091568372 3.9129141493585764 12.594935037029272 0.5172221380876642 -0.8658660407508765 -0.9365623788251741
Ni 7.881016872523424 8.720029544828188 6.855838297943662 -0.17802421132869986 -0.375931791844888 -0.16532321882226367
Ni 6.838712585165049 0.7134150779499061 0.4152621731184668 0.17277196179082505 -0.012604576137887968 -0.5247274453257738
Ni 1.939306066761265 6.473766961322861 9.2419459630767 0.1867752180484525 -1.0590592465105308 -0.9171703474518076
Ni 0.09906931689829904 4.9242318909393274 1.3283092014880151 -0.9202528430318733 -0.361529500376629 -0.09411754521171532
Ni 6.3244443329968085 2.0169892466859864 6.947031792506996 0.6693481414933634 0.3695891374563119 0.9643212941059972
Ni 3.4442945898475776 4.295485064982731 0.3549513335816089 -0.36602044626844704 -0.7516555814440281 0.9310602180600223
Ni 5.84814589187911 5.502740763231383 4.633209505228086 -0.4598518276983113 0.9594539387113669 0.7609737735211604
Ni 5.428842820239847 2.8941524096085076 9.11693015692828 -0.3544682226544734 0.05264282300669643 0.49734339688586604
P 0.20412183766497152 5.412563591233644 12.358140009826709 0.5207080397537355 0.5418728467568087 0.060720714918824456
P 4.077748118530162 6.119065868941847 12.731585703908596 -0.21311771259772327 0.9131134037736145 -0.32908886334942034
P 2.4778215168499553 8.687958921647265 1.3766500196967817 0.6051453815632094 -0.8406311774434876 0.41267079913713445
P 6.173486554587448 7.728405876074032 5.872746318353468 0.5707180531232752 -0.272075422078854 -1.6870933597464557
P 4.748764929237052 0.921754880111546 12.710443484350762 0.6544521982181374 0.5402008583710245 -0.8839504090564131
P 3.955699070875437 6.191346729806796 8.044627641024954 -0.03290343559624011 -0.7432257055091199 0.47077284548618925
P 4.808127201046023 0.9960954880427629 3.9334411549900397 -0.4818797540326282 0.3579407545841061 -0.5062383853826508
P 0.13602370878108377 5.718363758747519 3.560378501590652 -0.5417818297048992 -0.4206389049442756 -0.7832737225699413
Ni 1.3327466916588515 1.0131064692961935 2.608160143048573 0.08683489550737303 1.1496831767466908 0.11969102280544547
Ni 1.8805942413942727 6.260149509002828 4.6922068043112795 0.10392836065455005 1.4645039602128713 0.6850946056943427
Ni 5.921799917454904 5.6123500226832554 9.079617116104572 -0.32179387234990386 0.46767723728000105 0.11467428631714444
Ni 8.439985249621019 2.1699796702265326 10.130764764880356 0.6202058754407577 0.8886367587884889 -0.13833897692393593
Ni 2.245277879863997 5.201972521664485 6.873569287272451 0.15599319967058942 -0.20103481329126022 0.6423122204214937
Ni 0.45719067348672093 0.06058456908119082 9.398178681450947 0.4478182935725449 -0.32827819452266693 -0.7842000910389527
Ni 1.568370915265851 0.9439152290306462 11.465764530742398 -0.6305661356291592 0.8548241811144182 -0.15049309578796663
Ni 4.083322083178791 7.030964678661734 1.7218663381967672 0.11296733092836674 -0.49424496046620037 -1.2018482887860207
Ni 5.610163799919936 7.8807097172591565 7.915950363446893 -0.6468211640354409 -0.20252579601448992 1.020459531860462
Ni 5.356552925396537 2.861042878916089 4.973177985698269 -0.02166411523699495 0.20609371587140635 -0.7159460438575606
Ni 0.7686488216479811 7.376622758703564 7.0351835465562385 -0.09532982035226163 -0.17313114490245668 -0.14466054826658958
Ni 5.037734795064714 4.416522307061045 6.923853314226631 0.15918908090006778 0.8484699567616161 0.2838233066434015
Ni 8.185859438331054 7.114257959148527 9.073310495810881 -0.5869651111097568 0.2960332184460321 0.7231595308868642
Ni 4.603182367952381 0.2623367942221183 10.562599771301754 -0.2997826581861353 0.28249533186059733 -0.6308325019166684
Ni 7.996019417056708 7.347162955268919 4.571581511646221 0.033960930326477 -0.12400353413787031 0.8430127903017869
Ni 7.32556271300819 6.143331134819019 6.984833571560025 -0.42284928233203306 -0.31690440546808646 -0.4282264874835464
Ni 2.077778887075968 5.118688275156053 2.516940449947993 1.6399041036551627 0.897840279664628 -0.03808240869401828
Ni 2.4392193273141562 5.188638369603911 11.537759014493309 -0.667897782200082 -0.3328203053673946 -0.7183435975554596
Ni 1.3952437539590288 3.233983573607606 3.8057684558057012 -1.2123304192642668 -0.17924008601367197 0.7386895082016633
Ni 3.708095791961986 2.5887678050992293 2.584663668729907 -0.8342540702725503 -0.2754001155767128 0.5822301675279328
Ni 1.2404917046381216 3.354957577837394 8.226419290977644 -1.023083085526238 0.011273516031290261 -0.054795350573324984
Ni 3.534336252169906 2.694989322665792 7.498210170064053 0.37115313950932205 -0.3429972459003964 -1.5296354026048817
Ni 3.9585447740590967 7.029745091583023 5.942902387507952 0.8576086858380907 -0.913070723461137 -0.5230749973240152
Ni 1.0238659375239345 7.24548552881785 11.322013156871465 -2.383020280169612 -0.16228648887846892 0.6841571814817379
P 0.21233824098414053 5.515505774655227 8.023076182247374 0.8005759612938148 -0.37536537781845675 -0.4481556223073056
P 8.435477294418968 1.4147752151751292 7.876270420292648 0.646655584991854 1.4813279737487457 0.9724691200241123
P 1.9096204138675987 3.2660903327019732 10.344328013330225 -0.4805913742385078 -0.9662105407089101 0.9822079445784311
P 3.8178044251758267 6.208339643103504 3.7366169650449415 0.7842137178857075 -0.9282769988879304 -0.2113526502775005
P 6.970120834401588 4.081795340835812 10.268737102793871 -0.5347763449213435 -0.4824873057096401 1.2043363453151967
P 6.287115934409886 7.748551647818669 10.2189165189296 1.0337878735382517 0.06914159199266802 -0.8526587980319832
P 2.2818022543768066 8.389810533805006 5.908591337693545 -0.1737160708716492 0.8646853901792141 -1.637493694441457
P 7.1410888748801735 3.921695176325297 1.5475195898112342 -2.404124666248395 1.7297765004372794 0.43018052588612365
Ni 5.413349547351035 2.854439040734327 0.34019794352054805 -0.1785731418536344 0.4864537465565557 0.4238712958386442
Ni 1.5374205054016694 1.0461617961184468 7.142520760450363 -1.1507766669211859 0.17702353797832737 -0.6375423098366763
Ni 6.778546289281964 0.6974023513053463 9.075914991772306 -0.602347249992782 -0.6651644424293189 0.8782068217044167
Ni 2.6002770935309183 1.4099420367520885 9.254189713949124 0.08498498678282784 -0.3777516186624462 1.1097441744599081
Ni 6.29604150503038 2.2309138542702875 2.650735476267462 0.3125481853819198 -0.7439561559172413 0.06494400897155267
Ni 4.316588438433615 6.909819028843091 10.561713538024557 -1.1775606198832493 -1.1971359709120157 -0.5641702247024284
Ni 8.183122142887724 7.105124607025735 0.3138422150506815 0.07034923914752401 0.5234976866837308 0.22697930107116393
Ni 7.675656476425184 3.9039885787380832 8.222796665654952 0.282228708462772 -0.591812154789413 -1.035687918774442
Ni 2.985196843528887 8.240171716236325 12.422597445431187 1.7203503220273726 0.14609650938216773 0.5057727586001418
Ni 9.199932543311855 4.697334490428883 10.116576901864683 -0.02504485878376977 0.28089893390775494 0.9941144662080299
Ni 8.675121638396535 2.603420918000485 6.0042530379541414 -0.008868506134223436 -0.9657775669365497 -0.30886533721369386
Ni 3.7750014357022446 2.544844602308905 11.304969653295936 -0.4367327251823446 0.01015997125213734 0.09339506522339398
Ni 1.0662081941011143 3.240289290503461 12.661838873973858 -0.07657310857004877 0.131073039390142 -0.7573166363845474
Ni 3.0343055498983236 8.315442823938707 7.973387494467173 0.519359239035325 -0.4126052360065216 0.5738717682609084
Ni 5.729602027828384 7.972070340422165 3.559677464869852 -0.9430932379651565 -0.02754679927001707 0.40691615604154435
Ni 3.0081702505004615 8.380126109002202 3.578175438961474 0.5244289402487484 -0.3037930648971091 0.5540205378629361
Ni 3.405692400311779 4.36019545198131 9.291753899371265 1.0613503565375528 0.6889008668143103 -0.31456547292226467
Ni 7.264267169830002 6.159890417154408 11.433436439178191 0.2825063876041909 -0.9685101353763643 -0.8684633691644076
Ni 0.6735960115289042 0.11081168197169747 0.39824667487585574 -1.34500525592389 -0.1333777762639187 -0.6775733576166332
Ni 4.648225784059447 0.4815462791475012 1.7281865094579996 0.02281442679135426 -0.7035471559725754 -0.14905790600333682
Ni 6.0522144290717526 5.537539647877275 0.3639437556419727 -0.49787381546803927 0.6995182373188404 0.37449583072930986
Ni 8.037205324403702 8.649221222436053 11.322648245550232 -0.4200688913734185 0.15467602352106263 0.11808614021217083
Ni 9.078967573060428 4.957991868073725 5.5875969219745985 0.24290137161805908 0.13485410369912904 0.9471972328312009
Ni 7.876662494953508 -0.09327040618848641 2.578410348908545 -0.30487961309306844 -0.48178462321566057 -0.5088339140239689
P 8.402024472548838 1.6801844654377638 3.5638692308292743 0.5014977853738718 1.4108077562409962 0.45111110539120375
P 1.7472888567019609 3.1585227523596475 1.6038319905255916 0.25090624420040664 -0.13233776503517852 -0.4670817697878472
P 4.554489224587542 0.8959574515043784 8.364749374434245 1.1374773787091186 1.0529567331572187 -0.5063599985621795
P 8.454267969409482 1.5302746285182582 12.235874146691325 0.1714720120324789 0.37550498872011456 0.9890866739761353
P 6.325907837491263 7.787325482943324 1.3509456410667307 0.14495982467456328 -0.3678132765028117 0.2512595137747673
P 1.8369239899980518 3.0386870294033232 6.04390678257114 0.5024107841064444 0.9974522723320112 -0.12578710840085436
P 7.0100148828429845 4.153001158275822 5.970497577808924 -0.54986152138924 -0.664670790622352 0.3097279423243053
P 2.447169228271681 8.264265336524641 10.258397714559907 0.844098824277114 2.1630279519392426 -0.8506985889818186
