# total energy = -381168.5016678225 ev
CRYSTAL
PRIMVEC
9.22331992350043 0.00000000000000 0.00000000000000

0.00000000000000 9.22331992350043 0.00000000000000

0.00000000000000 0.00000000000000 13.49926101551295

PRIMCOORD
 96 1
Ni 5.253787585496899 8.612514933525775 5.730368524485146 -0.7739727568839897 1.7787655287414719 -0.6589991941588715
Ni 7.169637186431284 3.398775003827878 11.199999324224944 1.013515496442461 0.6689344509947125 -0.2823418370018686
Ni 0.6265290652324387 6.055469343763471 4.731733833837016 0.4716539625395619 -1.0526780255745354 -0.6050872746317644
Ni -0.2174711302374918 0.5331392600672579 8.759576160584086 1.0708413267471235 -1.3415250106847734 0.12925449812416448
Ni 3.3543093777092716 5.776971193866911 2.168467114678943 -0.932263237229188 0.7274882401692052 -2.1474318972731985
Ni 7.405661947347097 9.535621700680846 4.828146120993291 -0.07972502393546914 -1.4798953550672773 0.7775175368124545
Ni 0.1694148656106976 4.000707319063823 7.640756997598577 0.6366403668476971 0.26738315880950725 0.27823758502550794
Ni 2.2000938792424565 3.1710235610262303 9.966639438460648 -0.13959624636980475 0.3530823980505403 -1.028251774211371
Ni 0.47979987769710386 1.7399147703572406 12.508536647319158 -0.9453234128472557 -1.1275765746556385 -0.9483979380075215
Ni 6.010118278916927 1.2978318154742452 1.4132376856767863 0.4163495335403023 -0.8434452498535152 -0.030711313040927755
Ni 7.830441953754983 0.3025811609644496 13.37103144421888 -1.005101818457469 0.8729987951409158 -1.9875468187473704
Ni 8.232357349677901 4.299173956939388 5.553838789762668 -0.3822158250813869 0.49608175656462306 -1.0330054868462726
Ni 8.431332033821583 7.644628947369287 10.17483836501902 -0.37088317367738705 0.09174493121448071 -0.8019458450581479
Ni 2.8412990913904577 7.416360998643008 6.149169974815438 0.42762844888823126 0.23304581898021803 0.1420933017600456
Ni 7.8061938452576145 6.947069249516102 5.29310106501732 -0.5141180452410437 1.4703781596054613 0.2951245905888337
Ni 0.643244488218282 1.2566404679849907 4.84973145698279 -1.0159601013282116 0.18263548484846612 -0.723173157733619
Ni 1.9953730666872636 3.960290730461513 0.9013996833404807 -0.33925089148408666 0.7104999331413248 1.0802268817270815
Ni 4.394939689357868 3.858760422991358 0.9813926160855669 -0.22388549263718863 -0.412521932264096 -0.7555950257077503
Ni 1.986758485730039 0.7973449531636956 0.41663212544684475 0.062499918306434296 -0.3125592411255133 1.0704906282759241
Ni 6.197056530352711 8.365957141075539 2.9403418694343135 -1.0331893207223044 0.11015582962150061 0.2885361387380386
Ni 3.1627133496317343 2.1960171717659116 2.5073392731727178 -0.19153278733809595 -0.8616144645633742 -0.5545527562173224
Ni 8.392437293032918 5.210447204428379 0.9620559255322257 0.9723660187873449 -1.238947250520847 0.034145535533457325
Ni 6.235001269172862 5.074624592890815 4.090897554492321 3.259414474145322 -0.4545365861329849 0.6073863550785862
Ni 5.879091793822357 3.630224997982682 8.001552065596877 -0.3300890224791605 -1.1693752558589796 0.5758093516032535
P 7.544519031191864 2.550275672821616 0.061285272621383884 0.12278226013625951 0.41531055075282663 -0.02383335497417186
Ni 5.036845873832153 4.076808933066026 5.91309448563917 0.5510699398750445 0.8728080192863483 -0.007478310654916153
P 7.910666391834145 9.069788696584945 6.977025670812644 -0.5651328457260139 -0.4450767262716657 -1.1139540987761976
Ni 8.12402945530681 9.048261467511969 1.989885191238068 -3.6624186967269696 -2.593710357162449 0.7197805871123024
P 0.55507969387994 0.7095407906405865 2.1057088778403545 4.492289036109528 2.0234522743947285 1.1979291562372725
P 5.594266446349078 6.672749263616997 5.637669545994159 0.9616465754873116 -2.959080828551723 1.655264131051001
P 4.4140965251695965 9.27653863955833 9.701554762960333 -3.80486835338517 2.3458151318742244 -1.0375244577625486
Ni 2.5655863841588666 7.287105391004313 3.8454806867363134 -0.17409479436730663 -2.1347033939629365 -1.3918340433519707
Ni 2.2434711535913068 7.985818003867831 8.384148295274612 -1.2411817962783205 1.7558783397306534 -0.11676767851106341
Ni 0.5779941102933533 8.242180185565957 12.667774501550623 -0.9619126846645046 0.24262394958695635 -0.8794885166303176
Ni 2.169933622572089 4.108564824110697 3.474480015066526 -2.9531084130183722 -0.2117462861714934 -0.30891187418091315
Ni 0.8755882220890973 7.81997348546114 1.3750485288744443 0.7607025221376448 -1.0747589166339748 1.4568790966777618
Ni 4.218165536653198 1.4506345592840257 13.512625087132177 -1.8998536890047604 0.28771415705737546 0.3938881192129926
Ni 2.9421376498544123 1.1932301424165572 10.847722914655007 0.057579341076365344 -1.2152473358007458 0.5854255345367789
Ni 4.012734528451639 1.7521356694667933 8.14124201524511 -0.45725964149110276 -1.032636019321996 -0.4334167734352342
Ni 7.065210756455167 5.505362864072112 6.995924253662057 -0.6392364097096475 -1.0689142849277395 -0.316537509046971
Ni 0.7422485283177908 4.995211806978929 10.290891712291366 -0.1730630106686826 1.126215432642054 -0.22895467962997987
Ni 2.568694643026731 0.06510003780758086 4.634148340366222 1.7368727451624284 1.9886436513559747 0.3923444288749566
Ni 1.5086215726438426 1.9491273397926998 7.95237424524803 0.3152961804407021 -0.07985897841017214 -0.8749736594790997
Ni 5.069736233246994 1.426321887546078 3.790997612675907 0.5196862833574405 -0.665918289876208 -0.7582414621916619
Ni 8.075690034753478 5.820606721178076 11.86061316882293 1.056674291218122 0.9563606444980239 -1.0716954472173028
Ni 2.410505480288664 3.057502937448589 12.38163021930552 1.1391987322755992 -0.18316204677589745 -0.4193073306170456
Ni 6.4354240145695245 3.4869222738580627 2.0788182881392974 1.0502210793936104 0.5545303876198192 -0.049507876922140544
Ni 6.375555443912842 5.026580318580128 12.982806222294686 -0.9512698602386778 -1.8954319057879807 0.6485042081648187
Ni 3.372276405230335 3.945634874850133 7.578269004038411 -0.9834932390487579 -0.40102987246409644 -0.12044924112770869
Ni 4.274999635002681 4.147422671619033 3.5351998981668418 2.1422215567168523 -1.1409475966459062 -0.4712934938763496
Ni 7.78674186320324 2.4805197030362978 8.421568227182059 -0.1179879240714097 0.5806299129203485 2.8148576249328685
Ni 1.4485869822256705 7.253514059263187 10.398561983940564 0.6401437520152653 -0.7346040252783801 0.9532346972745326
Ni 4.796569162358223 6.618885074334138 3.7192088231443656 -1.4305453438792395 2.284621848194355 -0.13273525758391333
Ni 5.597300918656279 1.8915645991566858 9.946485561747982 -2.6550247398012146 1.8348950247451883 -1.8088145256080526
Ni 3.000263013015469 8.174176646596347 12.489286655974594 -1.0383698364819793 0.5678088498962801 0.6874260820409966
Ni 3.781579680539481 8.793264337186079 2.382011877557237 -0.34053875705757486 1.1408840903978223 0.2119542884172414
P 4.543536599209945 3.476103319401078 12.282977587701161 1.1647696387661683 -0.028335870830215715 0.05981028728941313
Ni 6.315511630174586 0.4716307830998731 8.044777155164363 -1.2562024380568688 1.6393762561761511 0.540431743434908
P 0.9674432667925199 0.010286768888214408 10.808116133555957 -0.1637281064210019 1.5257975169160303 -0.27051656223216636
Ni 5.554587723353382 1.721615703313201 6.077192107222202 0.2666326537967279 0.6383277818524491 0.8763245170800391
P 1.537665807584206 5.691194317097975 6.679070004869659 -0.7125293048665278 -0.5061229428507089 1.7405910745542799
P 7.128325935780954 7.893944512524243 11.839581232038393 0.8281369016312189 0.08957054927098121 0.5290060180964696
P 6.48962024337536 3.019687325109596 4.516097221963968 0.4285401620692233 -0.6648214572676033 0.346441495695255
Ni 4.257115617362362 5.979072583518622 12.684229826910135 -0.34366907515644035 -0.367749770254728 0.9713815433868883
Ni 2.970960525112791 5.182629671059012 5.432561353995493 1.816390023962465 -1.0886562434413574 -1.6750623967238507
Ni 8.767125448071761 4.152163458141532 3.2538757229969475 -0.10423997835769791 1.1706590076674097 0.8646398816532593
Ni 6.030169776776677 8.304954102048685 10.032489332190952 1.9283047452566018 -2.9740819299462458 1.4894117791981445
Ni 0.55441930416202 8.288813291903994 3.982727378894644 -1.9641245831686884 0.5514232094494051 -0.9709133455012182
Ni 1.1213435856921394 3.3087553998209094 5.480146306966062 0.20489378202603423 1.0123541291445082 0.7521050102766208
Ni 1.2423258752166695 5.994669217778436 13.154597937490689 0.7277489500297596 0.3780580941592715 -0.3191803459864567
Ni 7.678008142748509 5.138883463906856 9.187367580998968 0.2354567424145558 -0.64977459023681 0.7553595126581766
Ni 7.776697667633199 1.831659135219671 3.229373973197305 0.3745181993268131 0.5007117991374667 -0.3793217913630435
Ni 3.3538851049854683 2.5316353429345173 5.064692921825784 -0.634380624279243 -0.5568351244935958 0.5946941043228984
Ni 3.8782861916063944 7.215283397520473 10.550293900288743 1.5894765431322304 1.7293597246148347 -1.3636724933160902
Ni 5.798120266816499 5.736951208028157 10.372454454114525 1.457162946466768 1.5715564683186998 1.2112721532030815
Ni 7.723276197714309 6.423664281464107 2.9202138180178787 1.6803766098479125 1.168088675837072 -0.17733875522590103
Ni 5.836101898916979 5.844725703194286 1.6784708566304347 -0.23662736568388928 -0.18873594131924915 -0.08812018997769985
Ni 4.49353698104173 7.927858660468262 7.916561015698987 -0.6299866089766054 1.2359915103266326 0.36027377359265694
Ni 5.9055903924199 1.646178168356951 12.090627092040862 0.8434899870485215 -0.47494266059316265 1.8065925782560694
Ni 5.264569646673553 8.295915248367658 12.893197978363403 1.4801421809707607 1.7981009958452903 -1.8494603241538732
Ni 7.348984645439021 0.8758234167512056 10.349707902126617 3.6861342951763554 -0.5361824812402507 1.7683196508177998
Ni 9.370432038000024 6.321248535266014 8.016765932073259 -0.6342525833418109 1.7501419514675085 0.9055391909707824
Ni 4.552547782930725 4.01112044743717 10.05915026122195 -1.5650618617332916 -1.1684735699803168 0.1630753033283514
Ni 8.01921564588722 2.168955950643325 6.319962804446488 0.4820666732324537 -1.0065498637579051 -1.6608719641560816
Ni 6.699266308854705 7.400736694422946 8.058518979755549 2.119140763637989 -0.1378628086184658 -0.33619719225942746
Ni 2.8083533920551202 5.81818098799633 8.837966080298802 -1.7021726226770812 -0.7975482302110845 0.39738559084328984
Ni 0.6074294140052223 8.661075713761091 6.509289895783686 1.1869137789633752 -0.7956749244477717 -0.5242916433399357
Ni 0.2927205094640551 4.035672925497267 12.402391912811636 -1.320841771303809 -0.6760224681897454 0.610976900643322
P 2.666969118507699 0.35684287534287173 6.777006906835601 0.4661888256599326 0.7791193340819356 0.5855052387347787
Ni 7.48898542097404 7.200304725706199 0.3432218762447681 -0.20622458502231578 0.48549241108455105 0.5612404526501431
P 2.8088053347391715 5.597134898894791 11.175809322644096 -2.1558777140477066 -1.781974265486757 -0.055152219692111475
Ni 4.907664052754119 5.690806937654503 8.172021156693026 1.20062830033599 0.026414999658419026 -0.701076840055212
P 9.173117551471224 3.0369441569842928 10.08585177286131 -0.5350010593376399 -0.3510759091434728 -0.19169836638168275
P 4.543923978653418 7.436744536025733 1.0300317945415867 -0.8127023122437036 -1.3932435221049877 1.246719181156782
P 1.06984978967053 5.637302457854868 2.3186061636488446 -0.7580000356048171 0.4369810937477249 -0.6027424285486717
Ni 0.07122708933850602 2.8200116686396295 1.5898753332442315 0.017683533322692124 -1.1527445892808341 -1.8450310847379257
