# total energy = -340861.1583822761 ev
CRYSTAL
PRIMVEC
9.35768708852577 0.00000000000000 0.00000000000000
0.00000000000000 9.35768708852577 0.00000000000000
0.00000000000000 0.00000000000000 13.69592094356504
PRIMCOORD
 96 1
Ni 6.9495050935819895 9.31686894045096 7.691300184922694 -0.1441023617702744 0.23341091562912059 -2.4176710374742623
Ni 1.3732218771012126 5.498455332272128 10.51534443153549 -1.0373244259366006 2.321838566453969 0.2931373849554758
Ni 6.104056772975642 8.290929549673104 2.5439078445913696 -1.035019431952508 1.8099640658314635 -1.4595808118796412
Ni 8.787027335091105 4.563893756727826 9.793692697601008 -0.41637267346875395 -1.9734319766125434 -0.24226965157133115
Ni 7.264653282157061 1.996509346559607 0.8591068008024457 1.0176536869805506 -1.4737987552512362 -0.5176957352899729
Ni 7.399057743006986 4.293400451337036 0.8584208823327458 -0.5050027132033367 0.18797489478350854 1.8853159003999014
Ni 4.622650674480154 4.293372378275521 11.62419386642505 -1.4465157511655669 -0.12715056440728423 -2.2825284560004366
Ni 9.32191273383661 2.5997339347214594 11.814155851783232 -2.038578845623521 2.613308076788719 0.8125886694839748
Ni 6.803890123500136 2.210126629319621 7.566462087668597 0.48536719836059633 0.9175470140649359 -0.24712080901604538
Ni 0.07887407363446658 1.614098102592956 2.7326926329033263 0.5145980702012557 1.4442503521701577 -1.4921584887053463
Ni 8.19613617862181 9.054310953781936 2.925585445883745 -0.21848823288101726 0.5568981165210474 -2.168345250387098
Ni 9.060056573705479 5.368598707387745 7.073149149952952 -0.4078332685391751 0.215674417581306 -0.6265071350684371
Ni 4.824655067459846 3.9606691685659743 7.5437678247393185 -1.9462690430445062 -1.5639352043280161 0.01473704909985849
Ni 7.66388964765878 6.796563054444541 1.0533836157155871 0.22840857731852274 0.2948204290848535 0.137259370706512
Ni 3.7397996782477425 5.199823461555451 5.958492334404515 -0.9473353010709621 1.2100025424620386 -1.0364762190036925
Ni 3.575450618447755 8.939641855177538 3.504416415125901 0.9669211936226896 0.34460907047220657 -0.519431487034157
Ni 8.885414058016407 6.673022868401188 8.88815960343264 0.6039315637607663 1.024306673520694 0.2500698643420403
Ni 3.655421413018767 8.487085388170362 0.7617344511665776 -0.8867441697514664 0.9821048433416634 0.14093296290335727
Ni 2.3690014421240506 0.18149795731120208 5.854472283801734 0.6684582826892422 1.442532855258419 0.2701422096118832
Ni 6.318329093837688 7.402248714332603 9.030665949835992 0.624671367411279 -1.0639926792564063 1.168030826015943
Ni 1.7538645181923762 2.7220576214324677 10.031139330744251 -1.3159322498173336 1.7879816480231014 1.166620575931978
Ni 5.461136875830612 5.158303403573753 13.378777990760945 1.0841362440838167 1.0191850360234125 2.405590966381276
Ni 7.276631121737087 2.9730307913826852 2.937829979548169 0.8390640900666839 -0.42996403899994334 1.0020733160437902
Ni 2.920721320091794 6.23092829565219 2.717709104203688 0.10004496643974382 0.07672403232561625 0.161782809769173
P 0.3692169050542798 1.7968818061215763 0.1978748456307351 0.10952513801603718 -1.0124250915917594 -0.15151562351521003
P 2.4018282087230567 7.7515898918337784 4.847136910890323 2.050029253552308 -1.1087676694792516 -0.5287213969765153
P 7.876187496527557 5.4052901987887445 12.914336325276748 -0.7549435081666804 0.8104160873126882 -1.9685206553538548
P 0.2527894970302823 -0.02320987149245058 6.668776349962581 -0.996516133670987 0.8633188488489906 1.0444687502908658
P 5.172938826310597 5.636537364180607 9.669498409224337 -2.752099567869041 0.08025004320100372 -1.1055841295449476
P 1.850445207493502 4.377338905268933 4.756552627528948 0.6605984203251913 2.359418581590272 -0.40405169000955576
P 5.800278174314422 5.857463000621871 6.067019047149282 0.12187954581633202 -0.43180983395943057 -0.5194248021659377
P 2.2358602690423317 1.3208094712514302 3.611244707648969 -0.45188089367769274 -0.1585694450381979 -0.035895685455344634
Ni 5.165106442147722 6.904335537603253 4.08165844908627 -1.0017776391802427 -0.19873624706507062 2.6465311005079064
Ni 8.21164186626564 9.174248430264111 11.952895729099895 -0.8840175148489227 1.0788847658768903 -1.1333875249104608
Ni 1.5987608533182205 1.8526255486045533 7.684945379564261 -0.36068335032624976 -0.8489713218780668 0.36286930223397507
Ni 0.6064679625356308 2.729057171437045 4.879281502094499 -0.18788619172444415 -1.1312288266962451 0.1559857434714217
Ni 5.547396036181138 7.577490122000675 13.345949352624505 -0.1410301506028539 0.03331506921236198 2.491188647047439
Ni 6.771185006834363 5.249101042202649 10.820818643112258 1.8550951538421472 1.2340999497308747 2.6159174893871078
Ni 7.872856159894362 1.5766018500951735 5.202354715935448 -0.7828363779222066 -1.0513245968704346 0.30936413122698336
Ni 1.642901063708048 4.02895221185929 6.855164634589816 -0.5495866704612986 1.605931860474776 1.6065129297892269
Ni 6.167941703298168 3.6058443863820684 9.433448878775858 -1.1496109287478589 -1.8214844077662373 0.8186798699833772
Ni 0.21464849988635645 8.617728058777185 13.680855361894315 -0.8298400003652547 1.2850039356695935 1.0221420617692074
Ni 4.585379006474497 3.605217421341552 4.13864676396311 -0.4471649762592621 -1.4383476135324778 0.3085614328200299
Ni 0.25733171838352004 3.5960936763489544 1.4598207214960786 -0.5548607743760444 -0.12568169317124162 0.23461753434271207
Ni 3.1050583996909484 2.7598252468582354 5.8041260552795055 1.406088496388456 -1.6856286022754712 -0.28920436844965675
Ni 3.9608469646222404 6.523627392701887 11.844657233120023 0.30348967472407734 0.25405713112456246 -1.143796378948611
Ni 2.5189958098023513 1.6333655804798872 1.287946209672453 -0.3949510132598682 -1.059715134926975 -0.42581633538015695
Ni 5.886144311803729 1.179358671961069 3.8611408078057017 -0.273273041931381 -0.09776825459042517 0.46456440268263216
Ni 5.452218999955797 8.87861101944244 5.624832769066002 -0.5028704973516824 0.3268656304458564 0.7929169020866602
Ni 0.6292258577376789 5.380707554588176 13.395103411801033 -0.2677433703624034 1.1999968373995784 0.3625985650710916
Ni 5.028044398140979 1.3123220489865217 1.6464691498266915 0.12995486662529876 -0.005846945699080253 -0.08508551691643411
Ni 6.168671602897575 4.883973446442487 3.4088463560393403 1.523063662924635 2.1643965501519946 -0.5630579654748561
Ni 6.8476560264030875 4.79355947298764 7.698230488042199 1.8226007807588673 2.0361486389154737 -0.5396362441168061
Ni 5.849537039587276 0.9567486518288644 12.806959672285407 0.05709623079235973 -0.3303332772794827 -0.12789181344868297
Ni 3.590806583096834 7.639718741693776 7.325975141963206 -0.8957021502757024 -1.6076951230227863 -2.153719530054123
Ni 7.447305978065276 7.305602521221274 6.557881206594608 0.09883371974046204 -1.2342081931739648 0.1008479219570134
P 7.06596151043622 2.2550903161805755 10.748558582770887 0.41950170601603887 -0.6895608689958125 0.8184124752546034
P 6.288889809994907 8.058980557743348 11.551016752740834 1.9627372159028584 0.4840261109516697 -2.5762096292745245
P 1.3859670470293333 7.13984045065833 0.9415770336170713 1.5458420942717312 -0.5180369206794756 0.26254022889490913
P 0.8899394442651218 8.506830108103062 10.29427842978665 0.17632779746288343 -0.12753134478547068 1.0078778385407092
P 4.977466098976888 3.874587804271714 1.9195245899651463 -0.38420380204569315 -1.7690375028204308 -0.8576315686562261
P 3.532517549703101 0.991737044164579 12.672219270466012 -0.4935613041356144 0.8584733478312312 1.6726003083366032
P 7.131147159275639 9.117428553756366 0.5915443230338931 0.2662701282509866 -0.3703440133444654 0.28586373411219795
P 3.4658159555418355 2.6672870784153675 8.803641908664805 -0.6702009764119619 0.7092079538027786 -3.2177615744912265
Ni 4.265944997174698 2.928067104521731 13.556345719459951 0.7764983515193208 -0.5139532375284052 0.40175698043810804
Ni 0.9354823719620163 6.7737022246836025 3.8357206506032497 -1.9787078802995022 -0.789151264396641 -0.9644668185449261
Ni 8.372668947119605 8.937321148758906 9.262811453196356 1.1988213290342384 -1.8288920130842181 0.9719258459261326
Ni 1.6285744446478772 8.549809965283574 8.089810393899873 -1.2720437759644996 0.056648087511347596 1.1369377041555646
Ni 2.629388445369194 0.5275948246698815 9.789063449757073 0.2816576664506504 0.05015348092593943 -0.29301551466563086
Ni 8.779382104671667 1.6362758211903463 9.712216251164039 0.7837354926977083 2.105538856583838 -1.0554807851306531
Ni 3.355516896846712 7.64784121415898 9.804321158690845 -0.2808778508618324 -1.6155043346545597 -1.0604615261746961
Ni 1.7756024254926877 7.637351246839287 12.19249275875524 0.199802740656372 -0.12550274439121611 -0.6860633973655152
Ni 4.375411221711522 8.987525140436123 11.338606611625995 -0.47458836257753756 -0.2590003340624507 0.2633670956715787
Ni 6.744833759758308 3.3084102996233935 12.485900232723848 -0.0477340728511694 0.1935469895546473 0.18560382344817067
Ni 4.0966176477992615 2.300344091343858 10.635047030069652 1.5555737197371984 -1.6885684016300855 2.5235542078623374
Ni 3.348124323980915 6.103747969298969 0.2957787118979669 -0.6908844729032424 0.30485441628208787 0.7306262715775546
Ni 7.703341656775488 6.88826838872911 3.789497419048958 0.45617900683241436 -2.959796366561509 -1.0303114849538773
Ni 0.2769285868589021 0.3219633921423628 4.567726665393435 1.5879269392569233 -1.6019080840273638 0.7236714375262763
Ni 1.1403839048901272 8.848891004984502 2.2911773009902703 1.300886925448437 -0.4522570460701889 0.21034297806606356
Ni 8.861392875046153 4.905056315640766 4.7829310118978015 0.8140832517516302 0.4430069882268306 -0.4308104461606387
Ni 2.3249828816674576 3.962746575118135 0.7225350996035104 1.0571509737442244 0.7250012120812934 -1.7726676433738504
Ni 2.982004813380532 5.094352969441025 9.121510376900746 2.701571477212502 -1.2201100632096857 -0.9881875592006335
Ni 8.610363558972905 6.855600702812025 11.309159841633475 0.4088488542878829 -0.1398916661230365 0.43776425177065253
Ni 2.4307528197713837 3.4660686130954765 2.9220931570311937 0.10784646476203362 -0.3822104257647482 0.7475700985207447
Ni 7.023973568095928 3.6828300787452473 5.5058834643491785 -1.4507555002785273 0.36712447796590325 0.08358604955277217
Ni 0.8574420682545656 7.183840295740579 6.244312595614152 -0.42763513375645057 0.9194300900202618 -0.5194068044438087
Ni 1.4316419181153517 1.0879153529173133 11.832179693045017 1.3874251156509978 -2.566799648814534 0.6845575022439502
Ni 6.089028327377579 0.529755514637872 9.789172934696984 -0.009215090840364775 0.3446676916242838 1.0612680812363917
P 5.261630985325816 1.900340395494045 5.99534852109974 0.20441067174202862 0.25501281016961247 -1.162645393334314
P 1.6394855078903063 6.225248179538851 7.990433627671786 -0.1651193303415737 0.1460394308919872 0.3696212762458279
P 4.9656754131403 6.61313367050106 2.0105065750313273 -0.7922399306242937 -0.7925628611813511 -2.0592070633968342
P 8.869300120706404 3.4652451366243495 7.8357922325439215 -0.12191245593679649 -2.0007154949188446 0.6372836568586508
P 1.8526255486045533 4.282620395715014 12.027539192363948 1.1387711578198774 -2.212524001786841 0.908475647891287
P 7.4454063675693805 8.551447560538655 4.81544429597655 -0.9839493527495698 3.332246370505384 1.3781575743061425
P 4.942580641200064 8.816410472810855 8.21871721353631 0.04548718579852166 1.0329715482845436 0.2730953787029361
P 8.565998764090951 5.055050683319067 2.636916704698983 -0.8804444527856836 0.46148679219857297 0.03691332808658159
