# total energy = -381165.8033231877 ev
CRYSTAL
PRIMVEC
9.31898029625011 0.00000000000000 0.00000000000000
0.00000000000000 9.31898029625011 0.00000000000000
0.00000000000000 0.00000000000000 13.63926964053420
PRIMCOORD
 96 1
Ni 7.114845916969065 0.03783506085025836 4.900289913049655 1.0835554318796823 -0.6775862131324395 0.2480147815852245
Ni 6.259577843162622 1.5707700779990514 10.92561467946225 -1.6505798382014543 0.6321319374543823 -0.9422941391026288
Ni 5.3136547270036365 1.2324258528043888 4.344721184181733 -0.5498743769050466 0.7525649806321749 -0.4328580727182868
Ni 0.5373957849851425 6.7711432779840335 12.708689771325977 1.0310195667644955 0.9851816824947742 -0.6095347688801567
Ni 7.875461105786328 2.6297883415665906 12.140532031693862 -1.3502029980747456 1.0105949803615564 0.8585239985635085
Ni 7.02326829554653 6.1346103145907085 10.476309353394674 0.5952733738651361 0.514274625423566 2.013161433991681
Ni 7.537638743499945 6.40629587223318 1.6930975393939003 -0.5771694651755738 -1.1338485237072795 -1.3265722460296832
Ni 0.9239387092496626 8.395329752237686 7.46178503788348 1.3611317291721077 -0.3940323581003407 0.3068202817592071
Ni 3.1323423222396776 8.256141459415158 0.25581812953662497 -0.7005327946262838 -0.9040937167735075 0.3637619892515735
Ni 5.60183488013994 8.229992400118158 3.4686848304218687 0.25903658661702483 -1.0546014678494933 0.35241159723576077
Ni 8.685420296377512 0.6588621725813304 8.278123070630329 -0.3884934305599826 0.6394896633710341 -0.8834151053782334
Ni 8.734270392184667 4.122623785602413 2.658907359950532 0.13975179811106256 1.1306778392887817 0.35594814963410953
Ni 7.922876078595716 3.9555717410699667 8.96968834149782 1.791237693066554 2.041038620017924 0.26185965788811677
Ni 3.714545629288912 5.437187132577781 9.28970679152942 -0.1750561298393114 0.7767924857209718 0.16075539694592314
Ni 4.753686507439308 6.852265003279969 7.228240203651831 0.565167298508375 -0.8663491510348822 1.4408724368368604
Ni 2.7955730047503584 3.4818506860793184 10.948651199270584 0.3205227189469641 0.3074206343473674 -0.7219189736115438
Ni 0.6331678795329727 2.3539465186188946 12.918884968004324 0.12303191425322037 -0.9783656880142055 0.7360849806992806
Ni 1.9300540523884258 8.051151845246899 10.434628349290007 -0.4783881959396019 -0.9890943872856192 0.7584106407796745
Ni 6.608918465353171 8.86360852261342 1.6283380800686256 1.9201142390260093 -0.509206209761723 -1.9997688147348593
Ni 1.4969917093410476 3.3516179335220864 1.704131212311808 0.6550859751473944 0.5689437348316718 -0.5731719139804065
Ni 7.0376661204267394 4.03422393653208 4.229564678285473 -0.3087542655571263 1.1725433691743161 0.5485867684418745
Ni 8.272356485493841 0.5863987120725807 11.416628034677956 1.3412470744330383 -0.8897837279087385 -0.9236626400443706
Ni 5.036657350473321 6.81935968311685 1.0716119338219825 -0.25710825924606046 1.366883286943904 0.3782398711527744
Ni 3.2562568060145263 8.696379417451379 7.6125400493088 -0.6178875117202263 0.3807155863867766 -1.5927464721327538
P 2.297986040686431 5.858097525046652 1.0458142000900195 -1.4781824861412285 0.8984313762814076 1.2237967680326536
Ni 6.166294848307674 1.9033085783391053 2.158018681093687 0.4311344051589607 0.25632073034775854 -0.05047949680679049
P 2.23973309354974 6.179499843683244 7.579492148743955 0.19079256673796172 0.2301759536315907 0.4402687633600611
Ni 1.1728589294164942 3.790085285262359 6.28209809145098 0.04110294068789695 -1.2281373043895365 0.9465917380367181
P 5.155166825555276 0.973265004960624 8.922769138451297 -1.2269995912406675 -1.185257988527507 0.16370573782349873
P 3.8753446379025096 3.36198995882414 6.704956150845394 -0.5565106512746415 0.7197417634545669 -1.551708323244521
P 8.881752577656636 2.664389716181618 7.4950649810628995 1.3169012985988224 0.5582605440862127 -0.8172621637002441
Ni 4.024914275007595 8.145021935873661 9.517714287545004 1.0945227295244633 -0.05230009495529703 1.3603593697824572
Ni 2.6389395804224907 1.5027508392931312 0.3418490937625893 0.661987073142602 0.447582523412655 -0.1389061622813156
Ni 3.6649127391193366 3.100340943185543 8.779352824173657 -0.019532413605972812 -1.2394203335025233 -0.3976033632810507
Ni 4.411940854360325 1.2444939325583504 6.65601845662149 0.621446175605762 0.6042490950011852 1.3737723007542533
Ni 2.518929749479233 1.2029778744086213 9.984613848806001 0.19705885936264772 -0.24169038202909343 -0.021899371176252607
Ni 3.3514129159509762 4.684837879468444 2.728371972532776 -0.9412345874898629 1.7994991617443978 -2.450804072582805
Ni 6.8329933515956505 2.087246615546593 8.339731782646865 -0.7732855010089779 -1.017226369635145 0.31508843530527025
Ni 8.656661922539113 0.29780479620185624 0.11536338726347004 -0.619057106548295 -0.2509342692248646 0.5757291331846214
Ni 1.201263181995703 6.249942017320462 3.0180972126368064 0.28012940273158204 -2.7161504034679416 -0.8392718352021159
Ni 8.276484793857552 7.436611675845351 3.426075655858904 -0.12463653973617889 -0.31257389641353267 2.6596020747592517
Ni 3.322850240703183 2.3385329248636415 2.6755203064967774 0.28964608397276564 -1.1409067161056414 -1.8713260138787127
Ni 5.774562183799925 4.569599366543741 6.922775205474873 0.14708792676115956 -0.4905225173092907 0.7183369126872403
Ni 7.342732266238084 3.437483019895062 0.7287042038740266 -1.0137031869732347 1.033014228597021 -0.8786073995769448
Ni 8.295374367341166 4.560233791136226 6.050843862627456 0.45487725730185535 1.2087488725605957 0.5149497971137196
Ni 3.738104012005526 5.206104372995551 13.400214038679247 0.8277448083991227 -0.6846960847043433 0.03781938484061874
Ni 5.844407942684823 3.6227629902952683 9.704367875671647 -1.8660837916431667 0.8615776977881677 0.08785048125608097
Ni 1.1718990744244804 8.125461395793687 3.9986925276626555 -0.373904219891898 2.3175566512491637 1.6293335272281682
Ni 0.2589865829083215 6.12434079807421 8.446404288691383 0.12329725209946509 -0.6489040147063986 -0.5248300323419091
Ni 6.881209756728467 6.8018493187479745 5.7716481385960146 -0.049874002012307656 -0.022960979671547553 -0.31442637624123915
Ni 1.1065916590455123 3.8479002403153153 8.683618937445896 0.7048489055031345 0.5108488875714686 0.2768695010333877
Ni 0.01116786623717971 5.5175726584138225 10.780028906523047 0.7745666817142467 -0.724890654645358 -0.28972244573665584
Ni 1.0802096252358862 1.9567902074572414 3.935829480870146 -0.4246912206367782 0.15224993057807326 -0.9232952294026229
Ni 1.5705371034864264 0.1815551738923617 1.9684603667436402 -0.9023175987096911 0.7083445773612188 -1.957267708147855
Ni 4.886575169440461 5.587176123805591 5.0703305546300514 -0.6371381324197221 0.4389510729899021 -0.5536718962742658
Ni 9.253542623883707 0.7328669924656055 5.782027619082472 0.22156815735792162 0.2131861039418135 -0.08025107164226825
P 0.8224345097932134 4.478953643171706 4.259352799469673 -3.2578245039503826 -0.5594162549572107 -0.39665565465580077
Ni 3.0619187865634703 0.07728510102203144 3.470321243398545 1.6205542383736413 1.3571406057348432 2.674221367334323
P 0.5162295845641593 0.2953772017803064 9.980944966181186 1.3738306647960146 0.8870565587855626 0.9645701768920097
Ni 0.25184824384149934 2.7214871097356896 10.517255089937496 0.48212015217820836 -0.8395387157102573 0.08992047641123224
P 8.057498070970798 4.694520300213128 12.410235442182922 0.7192224006159871 0.5720311155077439 -0.5249213065041346
P 4.422359474564903 2.5144380008758276 11.972728877332713 -0.5438451399918312 -1.6623256658834726 0.41012746388999044
P 5.652614004911629 8.133485038008484 12.81517123827014 -0.7605873367160192 1.1958601895233856 1.3635740200650128
Ni 6.485544482447612 9.029160211284562 7.274327221739257 -0.9966223202315482 0.13059404287119444 0.7742774326086019
Ni 3.862633548493704 0.3623676250384757 12.1327581381566 -0.000425260462876687 -0.42124285707686165 -0.7760298965233344
Ni 7.108853812504356 2.670139527153196 6.2141198562592805 -0.4310086782143738 -1.884487233851019 -1.8087456200433303
Ni 8.583116528393733 7.955818674680854 9.373519838395197 -1.149319108539053 -0.7277949727763465 1.2992465616315365
Ni 7.615675886248729 7.92389184747076 12.143969803602154 0.5864619462210932 -1.0847839049701447 0.31843626873158065
Ni 3.5404018405921684 7.290788268903271 3.076665141314566 -0.5651626705226848 -1.9202150262699318 -0.48101663470138456
Ni 4.983902601834575 3.560894278722641 3.6040812300769147 -0.9448490443139986 -2.9502015237842225 3.467864091843415
Ni 5.540255056962967 4.245466586619187 11.900699681315496 0.9257771152842119 -0.039381587121416047 0.16387774462498872
Ni 0.12203670920309319 5.004227298315958 0.45036209845684133 -1.5131240352134199 0.2383314928591895 2.055103839861738
Ni 1.7690686641647282 1.5127873812970052 7.645792967444755 -0.14600909187468403 0.11370832285944933 -0.6010550135439197
Ni 3.1776512054549375 2.2501330757933085 4.873324511060417 0.05331362382147592 -0.11343861413783043 1.8533974544247498
Ni 5.861247340457339 1.088522155846337 13.234374393510498 1.0615313622001072 -0.49044178467002625 0.9206786177153821
Ni 2.682067822199583 4.663637198819592 4.862508902286327 3.1076078017522546 0.6967257621753679 1.0664969337354988
Ni 4.5368431500687025 0.23925457358705618 1.7124651765774204 -1.481923184130583 0.5503659718294844 -0.6420114013516234
Ni 1.3269482720664996 0.0732369358906639 12.590478503620181 0.11033117885710032 -0.6027285445916007 -0.7975040072367103
Ni 4.728860743374016 6.527507851661581 11.789021018943698 -0.325065344012324 0.8590662442202237 -1.6052137513618292
Ni 1.6482667198785461 4.281428532387943 12.688476902610653 0.660121737799089 1.4630044928492094 -0.48532914603380933
Ni 8.642320011541933 0.12900730662082552 2.6025498934485567 -0.0978333035004057 0.5470345934634063 0.5206604743452516
Ni 8.013437931143207 2.063287516668264 3.7620109245930267 -0.2764175010976337 -0.7661365486690225 1.0526258321803612
Ni 6.227595102069497 8.682205248103289 10.20131462577488 0.24146026829615835 -0.7181551356937373 -0.023777562035571954
Ni 0.5173963209233841 6.5287752330102595 5.985730282042993 -0.692932870791839 -0.7387123910197988 -0.998319762538629
Ni 0.2652275041525131 7.62339200210686 1.3513202017811994 0.4998998447591326 -0.12932237524762244 -0.8543593256628578
Ni 4.730696582533499 3.01647943762114 0.4884795244164009 -0.4110461190495179 0.23191864735431028 0.424562665478714
Ni 8.926912357183815 2.104980635447588 1.5642467916455585 0.4708612914349375 -0.5664294530502503 -0.5466347869218263
Ni 2.8734517248305576 7.001014570100615 5.661346821542855 -0.25807088026964586 0.2951906679400787 -0.2851633656110637
P 2.606080855161897 6.067616163740337 11.425630169845777 -0.8381001834915178 -0.6787234120606763 -0.42960922676368596
Ni 6.54199886634684 5.889092454206249 13.223326742121833 0.21327506411119396 0.3898016078484448 0.15744715850829658
P 6.385794115122202 6.125058359573095 3.661802995324822 0.835295109942555 0.7719037901701028 -0.534557544042318
Ni 5.727976600255481 4.753966076854458 2.136496495617413 1.4582530942071532 1.2690530687672918 -3.054767003802139
P 8.286558611783446 8.018796344933575 6.822663261705869 0.39558761840260254 0.2545973198987486 -0.13432625622011704
P 2.1931475100052964 0.1551768676749377 5.553992166125373 -0.10753458994856964 0.1910476201715613 0.7852102774710219
P 6.2195900978157095 5.577242090587272 8.774305664332154 -1.7102147762552677 -0.20012875653722306 -2.1452852832438407
Ni 4.694893059433328 8.491156828770494 5.58112065027345 0.18872257158281047 0.1947134990589227 -0.6772640539063304
