# total energy = -340897.1914165136 ev
CRYSTAL
PRIMVEC
9.00013772301091 0.00000000000000 0.00000000000000

0.00000000000000 9.00013772301091 0.00000000000000

0.00000000000000 0.00000000000000 13.17261130549539

PRIMCOORD
 96 1
Ni 6.545916989790679 1.5756900688845288 11.366211520458757 -0.672210550642823 0.648620936248341 -0.1826365132897306
Ni 4.6883696154966845 0.3623221345208999 6.018987740873257 -0.576912097749129 -0.29804330689752545 -0.5622789212169865
Ni 2.7381748260005616 1.570595991071783 4.746249499619949 0.548141710484656 -0.37514349161563776 0.05701395549119858
Ni 3.3446940906665223 4.47629937609434 4.889646890034993 0.7512228647819836 -0.721031685910584 -0.26923743840942665
Ni 4.999747371835135 4.583365011536783 2.7403375590366092 0.4725492206603216 -0.24782580550287 -0.9073369063011536
Ni 7.328757947794981 6.022090988275791 2.549729947478884 -0.8395286884079284 -0.35104454168490506 -0.4364617309091451
Ni 4.955817700803312 4.520220046988684 11.436342391717549 0.41712086448868807 -0.4464350400717731 -0.14796647271137095
Ni 5.539170611600002 7.769818685058968 12.27260546575209 0.46751808599431743 0.7267500764516 0.11585930776418112
Ni 1.8752596448513859 6.441596396279132 0.4259972071664735 0.6986921418731193 0.188367759346553 -0.100101273598976
Ni 2.831218247251737 1.509296054706746 0.41716627227271713 -0.5333067023543525 0.1303346185622207 -0.1005761563528655
Ni 0.4558371629759407 0.02765742247096746 4.89411275825175 0.5039513891206869 0.3454094548863148 -1.0823850657206648
Ni 8.599919364962082 2.074000680648296 1.4160294300461076 0.6301128501418245 1.7780888143894218 -0.8653687893994838
Ni 6.800134873004134 0.6235970255311285 4.7552595372495245 0.04759600461140835 0.6518895796972838 -0.22810518714549105
Ni 0.9557785996507844 7.319082800005756 2.646035018552213 -0.10484238782838719 0.17955016105492302 -0.34661530226895787
Ni 7.598690071045634 3.8674850763713993 3.9094203169380206 0.1722168606183034 -0.11545975833291729 -2.130074636941673
Ni 7.453796857781688 3.8438777157656894 12.591474936527518 0.7338609764647684 -0.844836730884403 0.18637001219023386
Ni 7.955644523574446 8.845137110697188 6.8840197543573405 -0.7776653752442285 0.8127120824357165 0.42818612116391425
Ni 6.88161311759563 0.7484001319159028 0.4377126861220408 -0.714851268131485 -0.5758036951762987 -0.5675432549397194
Ni 1.752749773496095 6.399799757829678 9.212884528090036 0.6096363274550275 0.012582207540384784 0.04330277655269317
Ni 0.23769543083070122 5.002348411566379 1.4437975542080586 -0.25973464112531397 -2.0889333868166733 -0.1448317837371312
Ni 6.178324374762457 2.2506193785234223 7.006261421615776 1.1938706698971826 -0.2690394634660076 -0.018716088352264543
Ni 3.3296188603902874 4.1861079433799215 0.4620796583309238 0.27745622677479315 0.22093720864214206 -0.044355129076607484
Ni 5.913063322863069 5.745696766315684 4.6381551484637304 0.7680360796845804 0.4692124429776048 1.2133097524584007
Ni 5.366700977102394 2.769378302637999 9.520201422398257 -0.5390613454499426 -0.2646202513523894 -0.6242049692978218
P 0.29347018279777976 5.2760155918705465 12.385376288342059 -0.02808338849977744 1.5925495256305993 -0.3255440834209555
P 3.8543898763404014 5.96468811143888 12.55128482261795 1.0154384244967867 2.145945542535659 0.7458896254945283
P 2.4949731110606064 8.511808019049042 1.3689110103057054 -0.24577329384921542 -0.38540862098707174 0.413023811601179
P 6.4279791882743895 7.709652766016203 5.848652038971766 -1.4750552533661565 -0.05005012257885573 -0.4573061784583221
P 4.69150166333915 0.9887011025465862 12.391211977483021 0.4930242006852219 -0.1906177317229943 0.9141567574364644
P 3.793674948911457 6.166237190129035 8.319808086223416 0.6233454495110039 -0.7195193630311156 -0.983979691766873
P 4.680386493553389 1.065112269737772 3.6600364075641867 -0.2894877040180305 -0.3269875007357014 0.9058119850161949
P 0.26342862390879757 5.453309300056549 3.5840833473706493 0.14352874865499152 1.0297684679662136 -0.25544449839039235
Ni 1.475680541225111 1.0277616992026222 2.7625993990893067 -0.632361279856369 0.428969536297158 -0.9881801030014657
Ni 1.8161107413436741 6.437060326990044 4.863433089615553 0.7542235992815205 1.0397872856547963 -0.8178054377982238
Ni 5.894280035945753 5.549043762413751 9.14083032745212 -0.43473703490855453 0.6194178323218236 0.9321498515797753
Ni 8.503536892706439 2.3852884356119635 10.192900497970015 0.33973245910619554 0.06544717386021631 -0.1965261267876293
Ni 2.2162208530811713 5.264693418922783 6.905003574888112 -0.02616431710019365 -0.45879741829186793 0.8788616816795961
Ni 0.4184289915609296 9.212630724213147 9.096478549972563 0.21959355013005405 -0.34052101644576194 -0.022162137919336026
Ni 1.5168921707384726 1.169774868473496 11.331263986630326 -0.7044246734815224 -0.4963139271800872 0.2742986549824179
Ni 4.156578492313458 6.881262112233974 1.6140666550922103 -0.08067556077419655 -0.4240913822692503 -0.6502011362512673
Ni 5.344713641242787 7.964941665589581 7.970391248832722 0.6520968106120835 -0.7993809125444491 0.4927560346254998
Ni 5.287355765093267 2.9622332485240683 4.729217639455921 -0.6685068765389907 -0.4893608929010217 -0.19279931275534537
Ni 0.6658103703458302 7.418084312267598 6.885468776491354 0.8121304989006336 -0.6003667292276434 0.4449468855620208
Ni 5.0819636276998565 4.639120863215156 7.022397768100709 0.16534198787534105 0.06681294385949138 -0.1738950196516747
Ni 8.379415996742523 7.075539079841623 9.298994243427892 -0.65685283723983 0.2169730817880715 0.06760715762601259
Ni 4.410121365216037 0.32720809814912 10.328459668655166 0.8267852726993309 0.24887867224741655 -0.6009544834103134
Ni 8.039282801160747 7.283136250917228 4.41153348678639 -0.021513448591743593 -0.3177726670056527 0.7643244351609482
Ni 7.227146395664418 6.289512073169985 7.292067987350742 -0.010661336368588091 -0.6852277888380973 -1.2275693477012084
Ni 2.465506660956491 5.214814657017771 2.6061617094818823 -0.458691745951939 -0.1912095996707223 0.01936760589333439
Ni 2.4278860862969904 5.018341655865405 11.270670561057338 -0.8521900859256808 0.050034181739255765 -0.26857640778666003
Ni 1.1044338703806802 3.39007278383236 3.6985002951054082 -0.2955807042896458 -0.21741428309054814 0.30551107602948036
Ni 3.574935607637655 2.722640588712931 2.5483862269533666 -0.08797800797288075 -0.5031628317811205 0.3383911145869527
Ni 1.065166270562642 3.3298168634148113 8.076154564382048 -0.3885494806088986 0.1293419156316482 -0.22440639813766514
Ni 3.734004037430001 2.6659127221868957 6.857779853539213 -0.6353689563344411 -0.3063654536099756 0.5283059067056514
Ni 4.097033582756699 6.7672933713456365 6.1415453129571835 -0.05181055691338819 0.7925361217084739 -0.44428919737336386
Ni 0.9794579613563213 7.345957210516106 11.455482084079007 0.28401922470429153 -0.9805534396941435 -0.2452729571740292
P 0.20212778753001254 5.452211283284191 7.894925096076763 0.0689623861023264 0.5653439332955553 0.6303625042587853
P 8.321950118943263 1.7636219395699408 7.885744055835098 0.1586193244395268 -0.024921445832028048 0.4290096455064741
P 1.65703331141385 3.1822416091823174 10.237805783904493 0.9349626384382221 -0.48717314122108357 -0.137241372984383
P 3.990957962436874 6.256256565187484 3.790444799570477 -0.39917405020228025 0.6624169615911688 -0.09364986154667743
P 6.821402197865473 4.021171423951693 10.457854645181392 1.051039718640164 -0.13422521186587852 -0.05923667417413024
P 6.352981042667304 7.623278446636484 10.135599322686609 -0.21065768109300495 -0.3915533004322289 0.19057453718988468
P 2.4240070270438223 8.428061739813002 5.843897266341954 -0.006317971798227829 0.49294012561184786 -0.26446881337618966
P 6.828953313209809 3.937578147052784 1.6131702413993667 -0.11376360157741698 0.6973731659513795 -0.556835381603912
Ni 5.200576439527023 2.7563821041192624 0.4060907030918605 0.38105240090090503 0.1311941383490386 -0.11729372621786252
Ni 1.3046329284490823 1.180908038534214 6.795960609241675 0.5999265563664313 0.00040314897568962825 0.9097200618213493
Ni 6.8826931340930315 0.4753314607540453 9.134230526639247 -0.14115767731965367 0.5974307865277712 0.04048561881887221
Ni 2.512883384642522 1.4791005934668837 9.03321028354101 1.216897469809659 0.7918054141900364 -0.02932960220205271
Ni 6.278396903384224 2.007930671419733 2.5496903468739793 0.7384642795647347 0.2323001990634451 0.14021871044515208
Ni 4.058936000810847 6.900144400663551 10.372772745543566 0.12783216385534113 -0.42096672059733947 0.06867133722446883
Ni 8.332345277730758 6.97484554173385 0.4073534223800729 -0.4822980725169694 0.24000348124497375 -0.2685630380502213
Ni 7.606619192164059 3.8576479261075636 8.314393603516441 -0.4484888372770083 0.28857496239577396 -0.574086712485192
Ni 3.1547911898733516 8.236214809324508 12.368265226968221 -0.10907905161755407 0.23033844735138395 0.2181128518194695
Ni 0.11831310724913666 4.841794959090105 10.147626206398929 -0.4102547334964741 -0.5133793673028062 0.3051452080496293
Ni 8.4605702363848 2.391480530197068 5.692899259826444 0.3124078031493136 0.31250164841470046 0.2852608104208765
Ni 3.506471561839852 2.565219184079123 11.406071329322868 0.3189998545445345 0.6826124627024373 -0.5024190116365606
Ni 1.235421871240576 3.3082615341541644 12.613578374160598 -1.4237514608858577 -0.5543792067539355 -0.5243464078372712
Ni 2.8954792288471514 8.25223505403597 8.077167979862109 0.3435114665326535 0.14679893476583103 -0.9873732908294542
Ni 5.652536343277291 7.955059514638353 3.390432789331494 -0.07993636861532685 -0.35982614453227707 0.5405762394325723
Ni 3.048130560617434 8.36923684125451 3.5665762799477645 0.8448770972040353 -0.5232261781898989 0.5103994587388757
Ni 3.411313108281264 4.119137920403525 8.995141502035088 -0.2577788029505238 0.004646240522759739 0.30323899216585193
Ni 7.332520005260931 6.078368847927909 11.481523981872611 0.0254876027481432 -0.273525010041187 -0.9539119258472152
Ni 0.6247904437607577 8.92266429493569 0.36010720068747815 0.5169881676999871 0.548883216636371 -0.4364272781267839
Ni 4.634395791039023 0.26510534952101406 1.527746336537362 0.19897407410748957 0.45260903009296893 -0.40280264809380306
Ni 6.052700455839657 5.728272500157599 0.3118493635423169 -0.7458364036590897 -0.5920517816040448 0.9319768163370208
Ni 8.069037255664169 8.555980693792781 11.409957588686021 -0.9459253080973128 0.2932947364689465 -0.23228297267226447
Ni -0.018285579314762313 5.080703608452888 5.661772284357572 -0.7628699621026088 -1.0222742164716976 1.0046349061233795
Ni 8.126422132226125 8.779058101331147 2.2995423258282335 -0.3253867319074848 0.1801505136430833 1.1148071908051123
P 8.333704298489987 1.6966789170059786 3.5136752718775224 0.5685418714075627 -0.8906008244933953 1.1733216421012373
P 1.6734855627242724 3.1847796479512116 1.5211735361369234 0.45825517263515264 -0.5751238955004547 1.2000811695832687
P 4.757139665968752 1.0972787610853925 8.183642306272226 -1.0096590988108483 -0.00851035146385631 0.009201978214242217
P 8.54159847410238 1.4886587394688908 12.303679340409838 0.04683058720029354 0.5245286990514063 0.47910501950096845
P 6.449102510936075 7.790050994110297 1.3307495273837564 -0.647827236702452 -0.9535882239592093 -0.42484600104708775
P 1.84372316312725 3.22590127608979 5.883283667974706 -0.788875642137751 -0.09829738762101779 0.30387328331574115
P 6.827054284201876 4.058296991049883 5.813376000125375 -0.18369683623344493 0.4994473306027463 2.187048483223556
P 2.362365085454608 8.490594695012573 10.162642935781552 -0.9785587778616178 -0.26155421083255603 0.3535529099290556
