# total energy = -381166.7420100788 ev
CRYSTAL
PRIMVEC
9.25691929584377 0.00000000000000 0.00000000000000

0.00000000000000 9.25691929584377 0.00000000000000

0.00000000000000 0.00000000000000 13.54843709320455

PRIMCOORD
 96 1
Ni 2.9993158538525337 2.0574521030132527 2.124963739928798 -0.8176234036944049 0.309715343918815 0.7121564949081413
Ni 2.9083295957122512 9.234933948234715 3.265390257515528 1.8037687356540288 2.456764661041614 0.9823002471819212
Ni 6.328863040790471 0.6059866227757765 6.665221528648796 -1.0073029398738458 -1.0633437328184976 -0.5734336522822253
Ni 2.465922916595315 5.367698613562697 8.17546566829347 0.8672315536398354 -1.4410531853890989 -0.7377695674905552
Ni 8.623699578003478 6.546715375623454 4.814681007747397 0.9315281588353764 1.0697637774122286 0.09612557678067961
Ni 6.930396159772241 7.786263131882941 1.367931041997787 -1.2508928529184973 0.17701993843390157 -0.8723416211728912
Ni 7.038683599768682 2.0467973890932747 4.888831707063817 -0.15925978623700315 0.5178500014796502 0.005548954842687218
Ni 4.875897013961832 5.207877904763026 12.586403371059093 -0.7448881808132075 0.48727829934038025 -0.4493074765235617
Ni 3.2123360768990463 8.268743013918717 12.50644025222021 1.8749199018775582 0.23358677908535258 -1.8169289271850708
Ni 2.122880007432371 8.258708513580528 0.7732869222334345 -2.1548215048690507 0.44799235725656394 1.6042922679888243
Ni 1.190680480166033 2.2308341983400903 3.9728354910446813 0.7790049199912583 -0.8066005702213399 -0.38171086042051033
Ni 6.821183027862682 3.218038339083848 13.608185807525429 -0.0565958941171735 -0.7856273104037824 -0.7861991237468524
Ni 5.376224236082507 4.126188390447403 3.8876422128966857 0.63930531527437 -1.545028083010868 -0.8051859492620004
Ni 2.470245897829572 2.8009030491950093 13.515337982947866 -1.4952731230749279 -0.8080869249588792 -1.1900412688487634
Ni 9.272007909355057 7.750985013074047 7.609791076950119 0.4231393027686261 -1.3890359117815432 -0.291548186091485
Ni 5.780964511254707 5.367022858466122 1.9560147831738781 -1.1414800721106084 -0.19143842785207676 -0.2491447814246096
Ni 6.25464106319674 7.34366205746425 8.94469158010406 -1.1000241189586668 1.295964034225523 -1.7850649885969385
Ni 2.7756409168860428 8.970815531584138 10.284753741365542 2.8453678777065834 -0.021854119760613976 -0.23238684523998043
Ni 6.303628679238898 4.716992740156146 8.19768505128402 0.17386108108994572 -0.05940276743834932 -0.917593293921839
Ni 1.835452668409504 0.24461038527354775 7.946673506431268 0.20441375706582215 -0.140392517018855 -0.10141407887312856
Ni 4.3264803496885555 1.5450816291029241 7.636440821436847 -0.23296380078937298 2.4245240558403536 0.09448649851535985
Ni 5.073745146552355 0.5614802812850183 9.876295887470263 1.218347314882308 1.1958339642711406 -1.694632091325662
Ni 4.618184385350024 6.538884022038483 7.503259674512861 -0.3495088217666691 -1.0935166568574521 0.16023397722481436
Ni 8.80106214855672 2.740668276408478 9.636122343536286 0.23469363899628612 -0.5300372875744613 -0.9593014722939027
P 6.634341372119122 6.238858016078092 4.153652743817675 -2.4290144875115396 0.19469987221216792 0.07284166655207455
Ni 6.757421368887175 8.531315525074389 4.1267456569791 1.9398461702372976 -2.2827961078395265 2.716891138288708
P 4.11320093290637 1.4551506597435955 -0.014423205698277921 0.9190243699414108 -0.7892538514127763 2.939413174919467
Ni 8.143950487111399 0.9484731910989372 3.1996124415532514 0.9755760410842101 0.473407712005875 -1.0404388031958665
P 5.256374904091232 7.40373020570642 12.947983260782207 0.7437057304693321 -0.4508087436594366 0.6289373417764845
P 2.3339840482187317 7.423697380272356 2.786981568513641 -1.1333456159289321 -2.2091304027242598 -0.40133120575459913
P 1.6575531965466548 1.9420090645284163 9.683975986984876 -0.29395550998139697 0.06765703702734155 0.05773643547951992
Ni 1.9666787540129875 6.0260321883333345 12.813176598858787 0.7520641297363564 -1.3810145841389636 -0.9889884578353741
Ni 4.520746054575316 8.651442564639598 1.1144377171259672 0.38415417975468036 2.4808314721828304 -1.2724790637297052
Ni 6.802604391166422 5.517614418892016 13.39757516052876 2.616231678193417 1.5057210578811293 0.33663016603178797
Ni 3.422245975117486 3.177326408744957 9.645307984390147 0.24598746674255054 -0.9596087191216766 -2.3143512569379885
Ni 8.756027236983572 0.9945448776147766 8.016176306651927 -0.02829293340742224 -0.590240439426919 -0.04597543828884985
Ni 5.955568519906859 1.1122651182058814 12.09711502500234 1.1202342753579544 0.2237199135936018 0.27163267811448055
Ni 3.3524950894641106 3.9443917556303307 11.69394009485522 -1.1628809063838874 0.45251878437200777 0.6134811551224144
Ni 1.1922356425800695 6.048063655865523 1.3757485102040612 -1.6458119844991654 1.694795356376404 0.8501414309267682
Ni 4.9481657816188855 7.569891904110944 3.0187276132706 0.14678736480160526 -0.8315163596264131 0.7285506199954486
Ni 0.791461031563663 5.198546930278805 6.417799817035111 -1.5894004384786564 0.5531733593712924 0.043366025690460795
Ni 8.319332076970568 7.303098237831458 9.78488473674186 2.0682694307094183 0.8263204172477705 0.09531927882930036
Ni 6.99409302031383 0.6798179583821722 0.6406908125985376 -0.7908381651807607 1.7904187967096843 0.6575076972150096
Ni 0.8737531912559492 9.18192882928963 4.340837831261002 -0.6413850806215342 -0.7141817528682861 0.3100051072450919
Ni 7.234643320856446 4.7929642754656685 5.652042472822972 -0.2126780539571434 -2.1470341476141477 -0.06133932233942985
Ni 1.646796656516234 6.680838876914995 4.813597022517135 0.7031980001632728 0.6747042635989542 -0.2391403619137301
Ni 5.571647055860663 3.3832650886561235 11.052625365907241 0.4738160031878872 0.10070625417282658 -0.14881056587922115
Ni 2.939969745302595 4.590080378867788 1.1769691315489421 -0.053152415653263306 -2.5812459061468513 1.434473475289052
Ni 3.5724024603442146 5.712518851198826 3.3206947951727974 -0.49715879167888577 -0.36097362787315895 0.05961488344915539
Ni 8.78257608105177 3.6548538390455567 4.304284108995833 -0.5702552545542436 0.7797716229539539 1.347254714079699
Ni 3.815600239758346 2.5751453054240048 4.881067928988504 0.6848817183525883 0.43230862797272 -1.7669307408900732
Ni 1.5947079725651334 7.145971292498956 9.225739976153637 0.06134060789101049 1.2973385459755462 0.5694278735569418
Ni 0.5622439771133398 3.998155941944174 2.247346690686274 1.110941537202119 -0.3732560447849378 0.45527783517438364
Ni 2.586179553028361 1.119818764216917 5.858574521250446 -0.09828170389173396 -2.2517199552600125 0.2670124057336498
Ni 9.021025060951612 0.08761673957653586 13.506734602307356 0.5931907803044946 -2.3529489147055287 0.08245964925781284
Ni 4.309928978282022 5.4597494174030645 9.840920571010493 1.692799666102614 0.20886870751338218 -0.23066960543855758
P 3.8403717553533596 3.7455068480971168 7.263100015957579 -1.8415312991147832 0.6980326539122494 2.5311171078112604
Ni 8.645731045535666 3.344052779216482 7.122209706781153 -0.9200358419250607 -0.28213280631485604 -0.41324441225241737
P 2.409224286916891 5.692264712139824 10.63382938472627 -1.4451106432879244 -0.3790914205197923 0.6146396942068898
Ni 1.0399130382766468 7.635588259184867 11.547305867357903 -0.2662940395103866 0.6903360565989402 0.3746801788259741
P 2.5943071280255294 3.7938835074766177 3.5327680353921918 -0.11704741453501132 0.33263595727073036 -1.2027443182377284
P 8.461888631590606 5.4825306953848765 7.80730040630044 -1.1533215448302265 0.40078021834713556 0.5232740007086989
P 8.56562166737451 7.064510404144649 0.08714185962510679 0.8491746961381246 0.01635350165735893 0.49902618390492776
Ni 5.237527816740167 7.87113982339665 10.878188907491364 -0.5031885428127333 -1.129730644884164 0.8782543871129004
Ni 9.08353703584441 8.064266927230275 2.5630659516497394 0.962990748220032 0.24331197679291644 -0.5332012871247397
Ni 7.316761450469065 3.5073818603668676 2.484553392038711 -0.1615886914804959 -0.34032509838487196 -0.006410531512034122
Ni 8.638427336341172 5.998502110837231 11.744191280358784 0.24574655437633805 0.2972498644619526 1.4045607468900196
Ni 5.794849889951463 0.6248827717982365 2.911288107066574 -1.9159937890997323 2.1893048833579 -1.1983533882588846
Ni 3.7676586555780096 6.472771105603658 0.7775987951647341 1.0392108443260362 1.5669567647631593 0.43123030730687667
Ni 0.06371444868793859 4.338245893904274 13.448341030736014 0.05760428077702983 0.7271928204159734 -0.26822930885988644
Ni 2.7802138349368417 4.584183721381232 5.6440213523958125 -0.1622849462165721 0.153902892800464 -1.0176829975565893
Ni 5.487112870354807 3.2053100752784873 6.329612851240095 2.893650366862055 -0.11327406353550815 -0.4032675035453636
Ni 0.96224748676612 3.4721963107492857 11.400915096833733 1.5150292226559328 -0.6172822740360594 0.17427759980207405
Ni 6.900959156935117 5.604573917210238 10.184739209996629 -0.739596593396965 -1.540396497776128 1.5732500539710388
Ni 6.771093838443915 2.2013509109073097 8.173460619609658 -0.6967082786738711 0.5490462245767963 1.5157612157259508
Ni 4.191060879718651 8.718184951575344 7.856684218481412 -0.2972537211166945 -1.8527533930828477 0.44251256508891534
Ni 7.475915661091293 8.45528844825008 12.000528330787699 -0.7746440719194014 -1.8132049413662643 0.30849149881404286
Ni 3.8502859157428437 1.4567335929150258 11.59701459740038 -2.6030907699360846 1.0645647497097925 -2.550752879764317
Ni 4.849366683731895 5.6067492932060645 5.4115301256487935 1.3959845751852344 0.726052279053627 0.733030510143673
Ni 0.7005756738419107 0.02447436849090366 10.014354505084464 -3.798804406579277 1.1888004544631265 -0.48006044143570226
Ni 7.066315503375228 6.782988979527469 6.577210444317273 -0.8665898062907785 1.9360327100284784 1.4047324965811938
Ni 3.805686079368861 7.7088012325932995 5.304484038507842 0.32131539005158855 1.48660747698013 0.11244848231041925
Ni 0.894783060138144 0.8370707978148569 1.6096217949773632 0.40505159202897983 2.209824343467491 1.7368352070562731
Ni 7.899808501945888 6.170282759154376 2.5422832425083466 1.5100109435057347 -2.7104276420515516 -0.7793543329108771
Ni 8.33151418254719 1.3141122398610703 11.745912141625269 0.20265409406223808 1.6169852900754604 -1.2245639852159813
Ni 1.682047004567734 2.948319486358911 7.280428968571132 0.9014850755060668 -0.6754267435872755 0.9809481040294009
Ni 5.125593150606044 2.4882228347823068 1.6114102317535055 1.2437505854467612 0.713397566404094 -0.13801887458035586
Ni 0.25819028563897595 5.12508402005383 9.770021827384852 0.2195578117961122 -0.32020364504464854 -0.788499489745255
P 7.489069743176687 9.272563324502928 9.939648390620173 -0.6396179614187822 1.145272706383821 -0.2565161341880163
Ni 7.969457561488819 3.8146930616834904 11.42035647839302 -1.5851694311164441 -0.11841421297555088 0.8965243890666817
P 4.796722584632923 0.6519574088730861 5.028529725056149 0.5540117961121879 -1.0438917947414732 -0.3123031592506492
Ni 1.5263548817005648 0.8369013961947563 12.254344722137198 0.23156614911089798 0.3473987174022017 -0.5061121442174316
P 0.4815486359711808 1.4738496363885614 5.957572642898757 -0.8637654494681061 0.1664439626902682 0.6326243037097685
P 2.4592857055782655 7.34318995458856 7.047964586889593 -0.433686225046537 0.02061381959560966 -0.03429671639934094
P 8.697347626611078 2.673712980332716 1.008055351086721 -0.18897891056799068 -2.331508228333249 0.22949795372795959
Ni 8.355443318501267 8.963900612993154 6.02032900045662 -0.14503747199003408 0.5588575542402634 -1.7227635594545556
