# total energy = -340867.74971061817 ev
CRYSTAL
PRIMVEC
9.27189734364867 0.00000000000000 0.00000000000000

0.00000000000000 9.27189734364867 0.00000000000000

0.00000000000000 0.00000000000000 13.57035898017194

PRIMCOORD
 96 1
Ni 8.587881798372418 3.922040454831189 7.68660422108809 -0.05477375330677019 -1.249658209180448 0.04336165481508661
Ni 8.76640291268442 4.917360106808169 3.5520546573082785 -1.3806348322020416 -1.096503250289602 -0.8517887367222041
Ni 3.1330483377448797 7.549586901519769 2.435268512236649 -0.04868152436610326 0.6956518123848986 -0.6562833378896052
Ni 7.293413645711817 8.83195522795324 13.094514462887842 0.05611689759822593 -0.23509910196482092 0.15356839227918068
Ni 4.627808020028825 0.472964127018405 2.854905320829507 2.698545545901985 -0.4132842643514173 -1.1929489294138615
Ni 1.6707217528881393 5.703459391876957 3.0734012939887494 -0.38619794965758647 -0.040207168346504944 -0.14756872305232002
Ni 7.606627614890883 0.4135414631815821 10.46231270229947 0.07103032437494863 -0.37186430664373377 0.4009887348135159
Ni 1.022458495936221 0.7357501001176892 10.023583202390975 -0.872085282187711 -2.0347679565178636 -1.957535874207577
Ni 6.255841956863549 4.355455303097239 8.152216660585045 -1.088507633678635 0.319292703194605 -1.9861113718524246
Ni 5.962034069135351 7.482374916599872 6.378651947904796 0.6153783721451273 1.0298319742142974 -0.425872385429073
Ni 3.5971253510171515 4.726535184524211 4.023801384185977 0.7658295589515649 0.06680471632937528 1.799212226631598
Ni 2.429747097280131 4.642049654576619 9.77542179320591 -1.5740566090327344 -2.1050529180863555 1.0943388956484315
Ni 5.879226752633819 7.398158271679547 1.11839574647625 -0.3957637389691507 -0.06478974278187552 0.6124228890612292
Ni 8.884554702425659 0.852183807253652 6.296049540337839 0.2852754657088958 0.011509543301496308 -0.6992562419067054
Ni 0.7228881239167123 0.4588411727585088 13.653409608672852 -1.570744513940366 -0.4855667159659121 -1.300174986983077
Ni 6.431998737315077 9.169674822203802 8.10482891969291 -1.0905380338451023 0.29186546022158766 -0.0032321337840524977
Ni 7.442153425279342 2.7258358717913738 10.691692028734886 0.2999644351796382 0.8955784802136447 1.232137169577549
Ni 0.4196256823158677 6.126285733207082 5.2027806360650555 -0.5307826503809181 -1.634066156817147 0.999043270968215
Ni 3.412874204055061 4.720619713924282 1.7359337895190008 0.5370350590485332 -0.2255291988881987 1.2691620835413304
Ni 0.9381305882459929 5.944213482155623 0.20846748883183688 -2.3181024964503045 1.3629297016127946 1.0928697673020726
Ni 2.923763067554244 2.0318436164086466 10.075449269771775 0.6682147992198686 0.8164808054495294 0.9460368939745125
Ni 3.5546786042985294 8.217896000849507 6.7440611368256285 -0.07186541868173428 0.6947190161579841 -0.14305977943837297
Ni 8.9286147593079 4.461822511126079 12.448321620645899 -0.7523513219594721 -0.9516804654135353 -0.6340224696088758
Ni 2.359688639830173 7.712725937892453 12.293116546957165 -0.5167688526003293 -1.6963783845928075 1.6233613688051332
P 3.866455429366327 0.8752087102956688 -0.015288431774647337 -3.0155893051614133 -0.10113357151823228 -1.2002241229190362
P 6.42325533798007 7.912016102586656 11.164551383311633 -0.30228794110649226 0.21465214696437868 -0.8146113563409583
P 2.5889548491161847 3.5232005123130077 11.704095151840974 -0.5236516957630917 0.08634304347261904 0.4629374086021705
P 4.496703389491185 0.6139804159750496 8.980673682156533 0.22404335837129158 -0.44851326275704045 0.4637141388671949
P 1.197549008176163 7.748255849082003 9.732784045398951 -1.0973422012511296 0.5792613147075959 -0.08224933301921965
P 8.024502762960251 1.687235002321487 8.550669964977809 0.010186453614698585 0.4197958402176899 -0.433948220458672
P 1.011907076590264 8.664078251962115 1.8813811182870976 0.3848836017215371 0.08206035693686513 1.7872941350377733
P -0.10609461424257362 4.3174497952773105 1.3841765424654677 -1.1357459978403084 0.649572758638649 0.7397729710738292
Ni 3.257625552448113 8.527382667236767 10.36984406861122 0.3544365980855896 0.7122688521162894 -1.3837913755531523
Ni 4.889627861409437 7.377194511450014 9.083103115320498 1.7500175100745021 -0.0036599653500904703 -0.383441727068688
Ni 1.1477681905413268 3.111778604898109 3.9261080362609526 0.9637836764349723 -0.3765362581981064 -0.5680975847812926
Ni 5.302867060732778 5.067787371719248 13.977876879838023 0.3613500373759712 1.0293216102367821 -0.04794978840640129
Ni 4.692099357238724 1.3797325219975263 6.753981139952378 0.6297626658912574 -0.9623633990486781 0.8446526398980551
Ni 2.0718982135743187 7.698159786932437 4.470741149323685 -0.21328920517858105 0.716262803767031 1.1411566273329186
Ni 0.3127466655454664 1.962971961837672 11.704109059687212 0.4935109105136533 2.135981746454728 0.6799876234850806
Ni 4.771819131875402 8.225860560795182 12.486928874613062 -0.21552863603206107 1.0624811277078863 -0.11023013450286177
Ni 0.4260909764370767 0.73016007311973 3.9293114768444575 -0.6597489278407025 -1.1155687515614852 -0.16874407157835453
Ni 5.896333403506658 2.323982562588274 9.04163177221804 0.6741491624264325 -1.8758992350716917 0.012161060842566154
Ni 5.70708470379635 1.128816432067569 0.5685434823152405 3.457770969273471 0.4991513966288823 0.45338396058578045
Ni 7.307265860564945 6.5504935872635235 12.732403287904933 0.9012135670122351 -0.3137080100179759 -0.4655360225672821
Ni 7.024899494341942 5.067091979407344 10.10022841581929 0.6200348970805323 0.7854787006410601 1.124989530654753
Ni 7.4928428888684 5.580996169801912 6.45961322961566 0.9560742236058568 -0.05762999180864268 -2.0402163812269447
Ni 6.788484652089556 7.432807352607352 3.733490856191782 0.27543225436622887 -1.2613808969340148 0.5571418571007373
Ni 7.270873662908635 3.6528587268418864 0.3909671743576789 0.18234443597060854 -1.3249393384119503 -0.09845396780354013
Ni 2.281786157101938 1.337888448615888 1.5598038975701993 1.0250612922985316 0.0818785799433622 0.09310710166932996
Ni 4.6854421348394295 3.7234734981413675 10.759666163628632 1.0849973065325313 0.4470819296271526 -0.14856502552731835
Ni 1.1611382667248684 2.702776662728636 8.45052049140714 -0.9355917873817887 0.10551678818759247 0.8743977323709716
Ni 2.9071478272484836 5.296219110230975 13.342539575179778 1.3727903964569583 -0.07371635584754402 -3.9187746511880386
Ni 9.119170796564585 7.437638011200713 3.3411987276824884 2.545916120497306 0.4317437566081855 -0.20513777971604027
Ni 6.438535425046974 4.4474788857058725 4.3983702806392095 -0.059613597897574755 0.5357279102013354 -0.6508688517422533
Ni 6.934405774819497 0.2878089700508387 4.875368610256407 -0.9210442285849171 0.3512209193617693 -0.521004745058548
Ni 3.9326660493570826 3.073133336151229 8.104435791239245 -0.5428246691471167 1.6964663163209237 -0.01090919071333605
P 1.6914537156803715 0.18054238796526953 6.352760174158236 -0.09723500779477447 0.7215852444212089 -2.2879984779760725
P 7.887742274952459 1.5161314060031281 12.823392126753452 -0.42555716818149936 1.757824921934063 0.1043793321490396
P 3.763314841664722 7.141716130844326 0.46585443602149823 -0.011319795888193407 -0.8201150597680069 -0.141110369021486
P 6.405388391512882 4.727388199093482 12.169341351386995 -0.3843009897451898 -1.728592507431507 -0.6572788690336552
P 0.04799968612661277 7.927324005346036 12.539459737044043 0.2870659819504153 -1.795305435378024 0.2606800357577188
P 9.08252825767599 4.162071337105475 9.953912310256186 0.830488432582531 0.08660015378874764 0.5283907531099739
P 2.5865256119732667 5.9662898700842035 5.579792677507443 -0.39744266933347033 -0.3546687687010537 -0.2087941455217049
P 4.380480154428292 5.111059317314663 9.041930327317283 0.16280250928293896 0.7628625059034411 0.3451924537795023
Ni 4.844501536315611 2.454762676713692 4.51665002256584 0.7496033269006896 -0.4370445999958086 -1.3798241633752881
Ni 8.67742051245318 8.96225320340907 8.218698019982568 1.816953609775419 -1.596145984732606 1.4581057699960114
Ni 1.5797551665936007 3.484944663260794 0.6595833165999666 0.9935177131642955 -1.1785085856188156 -0.9822431686917408
Ni 1.0434037123707705 7.524209718084017 6.876819873875851 0.03245812052870539 0.08766896137289418 0.8688541768449229
Ni 2.691177518966077 0.5084374796332533 3.7224582253659872 -0.984035484705473 0.8695859128046249 2.0938742757617166
Ni 2.273793781463788 0.6531523284994781 11.945892330587498 1.4076170172178402 1.712479403919728 1.323282519534818
Ni 0.2793947230768 5.95363373000755 8.616187047036158 0.06387494427708999 -0.31833445304639374 0.0511613533651635
Ni 5.61931692213657 3.3240772417736624 2.052503258400441 -0.8565892434346409 0.1506905565107534 1.0749918585803873
Ni 8.261130858854953 7.1955116800932215 10.182153047679577 -0.294119546363087 0.8718577395579372 0.2823732044604363
Ni 6.892116650358242 2.161900522529684 6.3525701002596495 0.9767322661758405 0.7847328236139711 0.8619286533696834
Ni 2.1721274254634193 4.5246118009422664 7.373468135847959 -0.7695412034751973 1.1255803701612164 -1.4875338454491414
Ni 4.200160292002831 3.0457626947546865 13.043666449851672 0.270717622499379 -0.3407138491828584 0.8199703066600265
Ni 2.9699278451671796 2.722284735051917 5.8513628462907 -1.4853003281329322 0.19676549649194502 0.19324514204351234
Ni 8.162672579386836 6.372686409058409 1.6396386437357786 -0.6247181614888144 -1.4186192818656147 -1.3809202246529444
Ni 2.680106873360565 6.612643116152759 8.76167517215322 -0.23036081594888713 1.0060806374309705 -1.347440347727944
Ni 7.71280011307239 8.657152144535551 2.0699279353572573 -0.18085242480611435 3.3323420155429835 -1.271360633854546
Ni 4.205945956037874 5.966540211316489 6.867809443893074 1.448561320840686 -1.6100062876544659 0.4027157448069516
Ni 4.700592415341445 7.096200386055836 4.298180937909325 -1.8618029048796259 0.0449012313880646 0.41843418398347293
Ni 9.039339759158004 1.7271597929222702 1.7983030623787983 -0.8933179663142421 1.1145979030077837 -0.07374952307832461
Ni 0.9449454329026523 6.053130461994778 11.40614458031333 0.21603334358262147 0.4042404089815941 -1.6297307626665867
Ni 2.576326524732008 0.9729187476361782 8.037737469440408 0.5773072763050187 -0.7235122862405927 -0.27581791984042175
Ni 8.010168409437536 2.4791292233228086 3.909457562744723 -0.24783711835677963 0.45441625850503675 0.8663113558184112
Ni 5.147034279583831 1.3235726388881568 11.16181061041298 -0.15098443360208835 -0.8389365633498843 0.6007284834424363
Ni 3.94091803812501 6.070264928560094 11.081623532142704 0.18772652621812833 0.8468313927169286 0.18878196406583617
P 6.293124256679096 5.635922890544839 2.549341594271135 -0.7434941286791583 -0.5145427914832881 -0.41102966398928564
P 6.920692638428751 6.556807749455611 8.164091179703119 0.16128144465272223 1.4370929151897702 1.7707082056546342
P 9.323356523134592 3.7818215490588614 5.6314000589482145 -0.6559220978954445 0.5268524620885766 -0.017007847411906193
P 5.49718748837124 3.76890579585243 6.188464004978543 -1.4022215572338819 0.1358807451914305 0.3321207081972087
P 3.1932693119557687 2.9530159041416737 2.877988636825724 -3.856654741928842e-06 -1.6321889943990922 0.3094222381584284
P 4.60151291874136 9.422009512450044 5.075680538054234 0.09249697888915683 -1.5813626557758442 -1.2008332172579448
P 6.614414048573741 1.4648763566670553 2.605563599093701 0.8013809736936134 -0.4888189043546226 0.3441856097815427
P 8.4045949287495 7.962121436633713 5.216988891781878 -0.37069959691167126 0.6585114558891756 2.0022450441894937
