# total energy = -381166.6095002994 ev
CRYSTAL
PRIMVEC
9.22673986923203 0.00000000000000 0.00000000000000

0.00000000000000 9.22673986923203 0.00000000000000

0.00000000000000 0.00000000000000 13.50426645178843

PRIMCOORD
 96 1
Ni 3.5265982860757736 1.0257550976796197 11.017334232674534 0.23978185215247091 0.06446835488671478 0.20746128564289432
Ni 2.605382148356486 4.689647269387321 12.786905713310041 -0.6945377533851136 1.5183423461895658 0.6878672833434734
Ni 3.2370170629199886 4.58765488956371 5.070109109835364 2.1411959436658154 1.0750705343371227 -0.04416743854583361
Ni 8.399959168152431 1.775270837702364 2.0933636089758383 1.0145184837856787 -1.0848898344203897 -0.1804222792472312
Ni 5.048235278204476 4.8628885326013735 12.623261181980784 -1.8667890452403075 1.7485663794502726 -1.8849456615446762
Ni 6.495366347854831 3.7360914092795996 11.278681632575367 0.1861905491895761 -0.16802159159003321 0.567098711203133
Ni 6.093486476713415 6.828128712459367 0.03758327851777782 0.11810516637556434 -0.14219460322460026 -1.1568547547944656
Ni 4.343653760159386 8.076866426675736 11.735977301909346 0.0687834373223009 0.4842765363995788 -0.8597678982729386
Ni 7.223337650851328 2.8515607883124994 6.2406723498981655 -0.7707953875972725 0.08957080638129734 -0.17445217770672536
Ni 6.705625290447598 7.343571294915149 5.314874213280705 -1.0073520479442264 -0.33640185207106577 -0.45503203771216477
Ni 8.232927500706545 6.978090911597521 1.0085850579099653 -0.5080574408692605 0.6843844670011956 1.2314769102857308
Ni 6.399740418373023 6.223565051957966 2.6143450032289897 2.245723114246629 2.6064231767434274 -0.6162885426642225
Ni 0.6717232528896857 5.720394033204499 8.395494348847505 -1.110761559980829 -0.6724969715349902 -1.0374411540201227
Ni 6.998934116412207 2.7749234889805914 9.251313201447037 0.35304871659912745 -1.5970222166899721 -2.2199166947064866
Ni 8.90879540503614 7.872069713941443 6.702072995691665 0.5186591276445067 -0.1435169215804496 0.791274738497547
Ni 1.5770158833627643 6.178732324116196 6.130004989478374 -0.7542850486470751 -1.3109749058120583 -0.3095502790958604
Ni 0.45527685870385537 0.8729169238001034 9.893063390662304 1.091450261246727 0.6318861399921635 1.6573948042407585
Ni 3.5468140725959048 6.955430039076552 0.0635297930194946 -0.6037646991655989 -0.6841312133398089 0.5679199215528477
Ni 5.047976929494954 6.9192150860452815 9.512459458424024 -0.0425890383151202 0.19105944724610321 -2.04028374412977
Ni 5.956949183730802 0.11059908254655908 9.12746636614575 -1.0735702956425124 -0.019670738956049993 0.42186172160778307
Ni 0.28269161667719833 2.6791314781855187 6.803935278486552 0.2882098657468714 0.16156452311077982 -0.8891244970581849
Ni 8.667543844040305 5.205311293594123 5.576276050945329 -1.6942091448556305 0.7648152587544377 0.29548891590678783
Ni 2.638782945801888 2.5340594510490395 5.9725322242848184 0.2941902517000224 -1.5216492990756116 -0.1319364158317018
Ni 2.276753363104309 0.6259770778249611 13.096761774119562 0.8670389780130552 -0.8909697777970397 -1.3784159701738519
P 9.22112976810915 8.488692723133765 8.886820079269368 -0.9659539446134139 -2.914532609627703 -2.6922368300751374
Ni 1.4633701313917655 0.9388023034460652 7.806641057906957 -0.39092055194423647 -0.19071106276774896 -0.6841538390476283
P 2.5863381577688314 4.7298389471973135 1.5640910664949415 0.3166184987965515 1.3522557668387163 1.3386602875424685
Ni 7.409994593481296 0.9263462049512329 4.2989077636700985 1.12286451389195 -0.4809893810078749 -1.4359654864535463
P 8.184662425723976 4.347316775790829 7.49193726809804 0.016826327528719407 0.13059867085688476 0.9516524403890771
P 2.147449833988325 8.52177981143189 10.716337687253708 0.761918911043249 0.8070196600366294 0.0008307234314114725
P 8.993035537819708 -0.13238802817288964 0.8382409909384156 -1.58786009057473 1.8745463205882231 -2.0290020005683638
Ni 7.854465094735413 5.010008895934781 9.609271023947748 -0.45003792693168293 0.11179747898998164 0.3850481523238594
Ni 7.316250918883151 2.1343386369800608 13.21154795110831 0.17145221453813697 -0.2764658378370658 0.49229297894615226
Ni 4.642987647099643 8.893931127498973 4.1898338611836845 1.3241009016710552 -0.3587293119236725 -2.085111699077738
Ni 4.91895942930737 5.087596549448146 1.3100530897256701 -0.6144190935556515 -1.416754203632418 0.1267276179372527
Ni 1.2629099862815991 7.689869286550737 0.6397433733466572 1.0472565974486479 -0.8704040378305462 -0.19523029079434118
Ni 3.526026228218974 5.910723218205535 11.110162614701798 1.20070003411419 1.635564081518912 0.24523799017103567
Ni 5.086120271108017 8.025196684771245 1.5954887387675818 -2.052628638848368 0.14539459821913667 1.590873937700389
Ni 3.9074965513081166 6.221203006613761 2.8990415904268745 -0.4208916443850299 0.4947026168289093 0.6845024806362985
Ni 7.268557901757382 6.344896678037259 7.895093197329705 0.022353170884219568 1.5540179452143041 -0.2619545315947682
Ni 7.402659335478784 7.694796365510915 9.982853407330794 -0.6664152841172846 0.08294455931403134 0.09322717218696203
Ni 0.6256116989357794 1.6084975189659998 4.2632565644299625 -0.9153818880928171 -0.20338325891877876 0.5401831177592116
Ni 8.857826895343212 5.433442430842068 3.007508373445911 -1.2575070158009052 -0.7515329398232348 -0.8398451912070826
Ni 2.4203214316817827 6.833194192513932 9.283913117892917 1.192090180957992 1.197334460076067 -0.10369824692161494
Ni 3.8708018078163033 3.5526361452997857 11.122816165424624 0.8222691299965322 -1.096311703104086 0.13072002692609747
Ni 6.595513379753282 0.2888384706159074 6.21312407339741 -1.5929225926993018 -1.4989328313147023 0.6183739644383415
Ni 0.028126793075293716 4.264765136358782 11.281180233666031 1.437256694461144 -0.3366116540890267 -0.09744763802621281
Ni 8.161097332719677 5.710604462461524 12.355849968797877 -1.7043858282783162 2.873896581273896 -1.2275708903631053
Ni 2.633874320320962 8.357922142417278 2.583893071767994 0.8993325479394382 -0.2572195880129441 0.3262477943561994
Ni 1.6905509144582536 6.09567321400473 3.506518132628141 0.2006496620376996 0.1521666268356476 0.1993779944141276
Ni 3.514428216509341 0.265440381598837 8.551184507945356 0.9221783421893602 0.4973696221381112 1.1417544088179175
Ni 1.7567619980130063 1.1703657878348088 1.6930301393957066 -1.0933510778138653 -0.5394876343540839 1.2441141394337671
Ni 2.318910336454597 3.8761440900596424 7.748639927271243 0.9300664866881853 1.338560785850127 0.14704164690425645
Ni 0.31337237128091394 2.9216563292497146 0.25798517598118925 0.40784792382719437 -0.6864045827550179 -0.20058641289993198
Ni 5.4792255128652965 1.744213632121916 7.467926523569816 -1.102407788699495 0.159373428996732 1.9927371046990585
Ni 0.7530302051462123 2.934010933608663 9.140132834304051 -1.0310892436601662 1.1879820723268895 0.17013066751323605
P 4.055484228166349 0.8754192155866208 1.4813235213556504 -0.6155102697373013 0.48845046527161035 0.11607862286383878
Ni 5.261769713364403 4.14791770573763 8.98611640577432 -1.2335695311487014 1.6084402287189268 -0.8101471499220176
P 5.483451359613914 7.573197163982475 7.033859171243791 -0.8387095349407427 0.0723654982466044 1.3109605076343551
Ni 3.3029328908067157 7.1654214062201715 5.0402642978417465 2.4909688177271483 -1.2646814220621576 0.3940578120216375
P 6.6720584116889325 8.332696236280336 3.3608472900899473 -0.09051131591769572 -0.45215857281911165 -1.045071159761555
P 8.360634803867265 2.4985180500104516 10.757227829253372 0.6263212443098761 -1.0729339476100943 1.2598698596061269
P 5.9678367364892475 6.525823815359603 11.320828456512064 0.6717485234047398 -0.5063903375794827 1.2467909149349818
Ni 1.139843733152657 3.986809605131507 4.840307010041187 -0.5601760159413707 -0.41481535628396293 -0.1549436753601525
Ni 7.855563076750883 0.864557497699127 8.021830770155754 1.7353061720062566 0.22360189995849877 0.20433456708845454
Ni 7.8754005669463565 3.369236241757726 3.8723482093775874 2.1153342454077055 1.5366347167408503 0.9824781675206821
Ni 4.087620962283016 3.1653529762463877 3.0190676328491155 -1.3273448625296493 0.04588750656073388 -1.2571570886606542
Ni 1.2209098675049501 3.3038647915089214 2.646349794969008 0.0865243062454897 0.8566851455825569 -0.7419049298151674
Ni 2.8262426147793 1.336825397423896 3.949578788067435 1.3027615167633304 -0.3694428416864347 -0.4856014258585895
Ni 0.10629111781527228 0.8256068163688054 12.092084240441123 -0.5234215820301565 0.4104491088954673 1.9104520333458967
Ni 7.904880000050793 8.120481224886898 12.416187309906844 -0.3565107070057989 0.7671328511440207 0.045375857031637976
Ni 0.4310815793831158 5.2589924647370365 0.4535366956104292 1.671817921644624 -0.4140568808513837 1.4039339119392982
Ni 2.079282681632902 4.607769181947957 10.132291527658202 -0.6965270159010004 -0.3190556474831344 -0.8549141697250632
Ni 3.8927891283445883 0.3373960332446137 6.1251701779144545 -0.8424304354357557 -0.34531740939314076 1.6274147129389003
Ni 6.923404025835395 4.39164203295318 0.07872531050922732 0.17445243481704148 0.12024432420575422 0.5875017003395173
Ni 5.074568393096514 2.838468044783487 0.24227849711618715 0.3285535596712406 -0.8732515345816703 0.5891662325261336
Ni 5.646008058341287 4.705535715022952 3.787325649073751 -0.42344346427260626 -2.1235615184135037 2.1833239831841174
Ni 0.26589987323220193 7.001369975673418 10.57227414275833 0.7187097226456267 0.16988152761690742 -0.12306379593242031
Ni 6.025762207860031 5.4051624738889865 6.2676947022402505 -0.8176429440784306 -2.7590605725679063 -0.7588253597195899
Ni 5.208393024629141 0.5372850431719429 13.09187252479185 -0.7629031293333894 -0.0223570275389615 -0.5503153210972072
Ni 6.918735295584739 0.9579570149092292 11.301369262641249 -0.39406166867637943 -0.9330767342694188 -1.290633880261861
Ni 1.7035882975495111 2.8437088328909423 11.862904022897725 0.19838503437323898 -2.1082364580206594 -0.8991728824331223
Ni 2.810926227000469 2.883965097878315 0.5478099850630949 0.13287949647126146 -1.3787245025532062 0.5643219197889442
Ni 6.274099904888482 2.2582168431960734 3.0731390950782007 -3.122530741610674 0.5808435715930512 -3.074838577741034
Ni 8.661408062189146 7.316979831313589 4.359433330267432 1.374595567986497 -0.3241513168384869 -0.15817503781325665
Ni 0.1319027016685725 8.74869301904923 2.8361392157019347 0.685237301919794 0.4455068718305489 0.3955138277418737
Ni 5.0656000021802345 2.0649535549940325 5.0245327067797545 -0.08528014942574345 0.4737324423351454 0.023508110424269195
Ni 6.551271163247563 0.4032583460415109 1.3573133727629887 2.3498458503001722 0.5345040650965633 0.9981726954378036
P 8.768013811825659 0.6161856617340604 5.865564786454976 1.4356047606800177 0.5503240628479554 1.1096816966530887
Ni 2.2759045030587353 8.049610637821116 7.194748598120782 0.12406986859943146 -0.5424194632888981 0.6722622298163649
P 8.015065724662115 3.8201101003121494 1.6379861788100616 1.491739913110689 -0.14775872757593908 2.1857611318707004
Ni 1.7506908033392286 8.596193466513979 5.0329585654060365 -2.4116708540267693 1.5547658791239225 -0.8576058576246134
P 1.3277739658509848 6.4179078686962265 12.263481078403977 0.7547992692793323 -0.48664375108017477 1.3680842492305407
P 4.620520536110815 3.4438436583719585 6.6913506015725215 -0.9683941786237903 2.787723487720238 -0.7614388860830371
P 4.285091643754423 2.335841403667943 9.46694948789372 0.3675715928056508 -1.7833881151151478 -0.7891474077418991
Ni 4.008151053885987 5.9363735543652645 7.440053465834232 -1.0163812480260301 0.24876657214958448 -0.18226550310355707
