# total energy = -340864.68027631426 ev
CRYSTAL
PRIMVEC
9.27120509988902 0.00000000000000 0.00000000000000

0.00000000000000 9.27120509988902 0.00000000000000

0.00000000000000 0.00000000000000 13.56934581146345

PRIMCOORD
 96 1
Ni 3.0357818418229603 4.182527892217351 0.06112690748134674 0.4865036259578847 0.1759886689559098 0.46267309919719024
Ni 7.106081799947352 5.415588859291251 8.192383303533608 0.5794145524560086 0.24976441728647955 0.058984706064324224
Ni 0.3187977939804788 5.778074424525992 4.073477200009038 0.8613265010093102 0.3151907652110894 1.1706782909411193
Ni 4.925846736984227 7.158519734290993 3.8016556736250586 -1.6654829805655316 -0.21577854725933804 0.08468365349232512
Ni 7.588406958415104 7.752229147214988 7.146132477558931 0.8217024588597848 -0.08139444121809207 -0.06697569468960078
Ni 1.3327356898688942 7.398866447502549 9.799550363937426 0.01580688512526955 -0.8242398805696579 0.08340298700768861
Ni 6.531897544330236 9.549711791252564 0.4081332691835306 0.038332834141927535 -0.1301127323594017 -3.051019620944565
Ni 0.6346111871361312 0.8895081291593762 1.848836774540204 0.8052126887348777 1.1776858326072042 1.8280952282145357
Ni 3.085206634606898 3.1613510396218074 7.225065660977406 -0.4953281662280501 -0.25343466704921513 0.6049551199292742
Ni 5.885536959352221 5.70236576613664 2.292947881067075 0.8912212316862135 -1.4090455221342508 -0.881254864502121
Ni 4.317683515778455 5.6088934793522345 9.775926406988871 -2.3417756716975284 -1.851071891615367 -2.475278146464769
Ni 3.0726719657185315 5.581413628327738 2.0896794972085115 0.30843699142702363 0.10481641968645819 0.7913369591940501
Ni 8.158975444160575 2.0706308798283053 0.7167763125475684 1.0204525898819266 -0.8266366629366086 0.2076317497824876
Ni 0.8698420495395508 1.4549394403256728 12.450905407248124 0.2668064603704308 -0.49766504189134286 2.1479980541893133
Ni 7.174327138473438 0.7620105207623186 9.89811810487941 1.7732140027956236 0.39752674440684443 0.7547589029597003
Ni 3.5810584808765196 5.814222852037636 5.422432862673937 0.772361960753444 -0.40668141432291893 2.245773250758274
Ni 3.9368873210655155 4.203156322895322 11.53698341449131 0.5497661334619564 -0.8845510187548895 -1.0024656663862024
Ni 3.1355121918467495 9.30383943998075 2.294943044339839 -1.0742002159170274 -1.8331060511655655 -0.8638508100930608
Ni 0.7885817937165046 6.824580208632644 7.324732966808562 0.38846206310141485 1.2778601255359605 -1.197582571531131
Ni 0.7183505631224536 3.562645868145531 2.698996983411771 -0.2163148793787823 -0.05005989277086863 -0.5240772133362845
Ni 6.490121495505546 3.121327248504145 10.319527739335234 -0.19700203798278332 0.12073489068892754 0.3124581967712748
Ni 7.675250333768161 9.345189013384683 2.1837284529314194 0.07365902024704735 -0.07889224362152865 3.18551736974554
Ni 6.05987269439427 8.476467852505342 8.81470087310615 -0.4116708971177103 -0.3597590387397675 0.5678101354478609
Ni 2.6154810434611067 1.909441713191362 1.1146398681751493 0.04411344537944661 1.7384166926107802 -0.9629359837226964
P 8.064186646294699 1.4607339433251028 8.149844234553953 -0.30164259421300954 0.879805533650104 -1.522957476364074
P 4.554701866467139 2.8024441594395144 9.405415686880039 -2.681768583553962 2.809348265078865 -0.3575440333663197
P 8.231643147375825 7.98631779718716 9.585385533078494 0.3653018229348676 -0.0033504045294716492 -0.18915708801706776
P 2.7309724416433454 0.047334136101743585 13.501607338646842 -2.069349808257791 1.4631101651891383 1.1572836148017682
P 6.1700887770458275 4.144970241576245 5.350650559516999 -0.19796748721984617 -0.9769916904848143 0.3192734199208953
P 1.7566708005119906 1.8498556799476238 9.018064750374142 1.5978542256729644 -2.117736684201611 0.0339771282763931
P 4.947652610671683 5.46672882496302 12.897296303035091 -1.5965028538513926 0.7656907193808554 0.8038466616252865
P 4.551697996112234 7.528032872763443 10.33463053195295 -0.3813043690107111 2.9998456691739106 0.023607612116610954
Ni 2.384933993722186 8.304208867338287 6.144172051150457 0.30810506200890164 1.2035179631789596 0.48118375640686806
Ni 0.5703265073002151 5.304556910617374 8.825108727613605 -1.820640057488071 -1.5562699744732746 1.5724285865110081
Ni 8.221305754024844 3.1004299528870005 12.058629606752953 0.035634975594790244 -0.5752843323377189 0.20082089750824125
Ni 4.605081593345383 2.5121720083848693 5.522831666563741 0.6100875560598331 1.200249576840333 0.10362574181246668
Ni 6.42674353949898 7.1465784225097675 -0.11316432577766765 0.9967760722005929 -1.160926353760678 1.5225674400145068
Ni 9.328222708602352 2.878653462888017 9.818995788883033 -0.9958155080595364 -0.5893061005381077 0.30936361700635107
Ni 6.323758996590711 6.24804106699656 10.227120713982245 2.6657603810511636 1.4505518689081534 0.45116124190284884
Ni 7.691502755780962 3.4534310756122744 7.069045191015954 1.3951363682523263 0.7492744828063612 -1.3148166481556516
Ni 4.537883900961593 7.556430573063048 7.515693826296337 -2.7559356537856794 -2.5821787023737657 0.6867858773538366
Ni 2.3534211686100863 7.126348653638157 4.175368667871496 0.012915422510087435 0.5219007745102561 -2.4580810658601924
Ni 0.999408063727285 5.578001824961674 0.6531730662643852 1.4199907082918448 1.1430199057939023 0.8006232695919825
Ni 1.1060269189167966 7.582315776862102 12.199669664000037 -3.1691435563732067 0.9345908569211002 0.7283469886250746
Ni 0.3429400112773039 8.304885665288621 3.7026809267923952 -0.09080030791302426 1.2490375448773132 0.21395126424261218
Ni 4.9342649909417995 4.791812929203814 7.1793910705347 -0.2701370674055606 -0.6794070683912622 1.145603864470995
Ni 2.9816101921818894 6.713242310200396 12.029523586406697 4.457947839625497 -2.2898239612205855 0.5915848692699553
Ni 2.783132239843014 2.1530982465161927 10.88220828403764 0.7818930401723309 -2.1974889618305897 -0.3912666224297455
Ni 5.935620007676894 2.625753538378496 7.910209549870967 -2.0007406917298254 -0.5554729540387465 1.267629706057204
Ni 0.573295147076883 2.49305478408915 7.465595944043985 0.5931277882770429 0.7838946439833918 -0.5053958348766974
Ni 2.3249863834912836 4.004001572606113 9.436896062775343 1.5081098698282802 0.272083392498654 -0.5092959412620519
Ni 1.1451606743737468 4.675774529938429 6.363969138924835 0.75503452521859 0.5124157178379563 -0.01792136036511107
Ni 3.2349922193409633 9.104044976560406 8.868571208591248 -0.2058476612988713 -0.48728601264986393 2.3975228446611614
Ni 4.3688049390406265 8.123225678455292 0.2641662925813731 0.023286738442082476 -0.4955449102245466 0.8560328567105386
Ni 9.126472020969398 8.700589957318494 0.4305501152672454 -0.3455680919513661 -1.599752728247258 -0.8995552054732056
Ni 8.092454549727119 4.434343085765379 0.7435283739953367 0.5688007814959042 1.0834399893477404 0.540072046102644
P 8.352484030727139 5.5223838673719445 5.997216038121074 -0.3321921848650924 0.8475183914816243 1.6968972332107548
P 1.7137265798826151 5.514253020763144 10.955930123238549 -0.6918015854008731 0.09517761104511352 -0.9381492636963198
P 8.585608475400205 6.526010329282815 13.465295737930735 -1.0365770062476147 1.3051354163121458 -1.0898978291579424
P 0.9501037966057352 3.468765648349966 0.3040797563619267 -1.041970409349044 -1.7889093020436933 0.6153544608857273
P 1.7198455750500132 7.394638778114165 1.9878000819122936 -0.2520508993278111 0.4728698372245339 0.7071001634311563
P 5.8995550210084415 7.798529543981633 1.9478792011679007 0.4772818502493006 1.4945092483257099 0.7118916712825288
P 8.048305072473863 4.562378424040784 10.323856464855927 -0.07315945490280948 1.761612156890637 -0.5262590514789517
P 2.7924961566900928 1.2947052077830354 5.270320205535302 1.0477309659819054 -1.8614992575962779 1.080887398129216
Ni 3.6879091161860083 2.2786210882910445 3.3321155065752492 -1.222445910431714 -0.9907668898920355 -0.37924671515073394
Ni 8.658934434156192 3.5772202020896975 4.922212424702986 -2.2101267051992584 0.26308273166194046 -1.2787954928660366
Ni 4.125565609931755 0.8966738433485912 7.176853541781189 0.3264815076335603 -0.31934361103719844 -1.1387104797852712
Ni 8.250797456490742 6.9077151020660645 2.4875727206914493 -0.8423445605901686 -0.209344104487904 -2.4372924112496155
Ni 1.371554224362676 2.721960830578632 5.1340835594946235 1.1144433797077904 -0.1184476373166476 -0.8605957934908726
Ni 6.148190191310382 1.4470681874512472 4.052050518597866 1.428644527312101 0.39925375440028016 -1.5960721940718772
Ni 4.264828377218855 0.09331745766426004 4.22919821005548 0.48231298491530483 -0.24206010666368638 1.6633697908772709
Ni 5.225074871874792 1.414600428244841 1.7025594137021138 -1.4670712067194152 0.6500782375201579 0.7725370528787276
Ni 6.8641589819199496 5.258052547345148 12.264584785762292 2.306971419534149 -1.5067492420353275 -0.8461801322861748
Ni 4.5260445724331575 4.296841847390105 3.8033383972960935 0.6596892782473606 1.4266390668462976 -0.20750293751410717
Ni 4.889457258147808 1.1915166983691865 10.513284794190415 0.7738357170854931 -2.284425158802517 0.2422825070871376
Ni 3.1442456667674903 8.951598556049001 11.518488288037608 0.03418204519834758 0.4277456911923859 -1.8198463579421817
Ni 6.053234511758124 6.251795904940191 5.835428878774589 0.8052623110258906 0.08596303442538099 -0.07359320000611841
Ni 6.570011467259286 3.292612757167295 2.2558491550635247 1.0698617364426737 -0.020594793432216145 2.19007132921028
Ni 6.453481694139549 1.199128357509238 6.298537611055273 0.576576054565949 -1.796233603619248 0.22521603852315408
Ni 7.033886928176854 7.776834924751768 4.334062026176524 1.3499520584062041 1.5358947532510323 0.2427774444456851
Ni 6.131798701225595 3.1209656715169802 13.572466229805793 -1.0686620597076175 0.008263268450056736 -1.6377364065798825
Ni 4.324349512028999 1.503010637208944 12.771305265417885 0.21068904855157264 0.16243432731024282 0.8366169140777721
Ni 8.784948649785395 1.163091184455183 5.893885679273799 -0.07228887937239808 -0.018380559389716732 -1.0571023798944763
Ni 7.951198473408215 8.389133103297933 11.787785265354797 1.5906170844945768 -0.2981116982416156 0.050974434165338006
Ni 5.780271700063376 8.64004898998045 11.924306537382806 -2.6615725682220615 0.07440001217812993 -2.216640080837744
Ni 0.675375747517241 0.20356598953261454 10.627158367135213 -0.02857241232105402 0.4752918164024653 -1.1928471137286745
Ni 1.016290927666424 9.079327944566037 8.203198163931745 -1.4041043760788916 0.9740056112732967 -1.1844048964985923
Ni 1.3762732676054115 3.57525470667229 11.749383935076976 -0.7247939811664937 1.8805670728610064 0.814184810326501
P 0.05870619590830488 8.37280651164674 5.901132052944766 1.028417610365274 -0.15706020748252306 -0.3489547490354119
P 4.594707115175203 3.7453349587115587 1.5381123456987709 -0.9153955149395718 -0.5151511144912483 0.7062360156586482
P 2.921458615445406 5.842064280049296 7.630476904431925 -0.7761751638519471 -0.7273830820499085 -0.18073672516385647
P 2.2922219457313067 4.740172318472894 4.0935864432182605 -0.19126462127837385 -0.7425754735196308 -0.3405773236049941
P 6.8758685135811985 1.2538655506430532 11.931823630233907 -0.3163693589002229 1.4515013773056165 1.4660095982241204
P 8.49550163595787 1.8110927726826367 3.4463562192300907 -0.10435362111742674 -0.7478117822179056 -0.2121625477733056
P 5.652477413112748 8.406331188200241 6.109869520514312 0.9165517400312022 1.8465984292250457 -2.1509723063262896
P 7.9915189430794475 4.889364546099817 3.1156171134683865 -1.2738265788965353 -1.3042054482987089 -1.830751177780144
