# total energy = -340855.75885758025 ev
CRYSTAL
PRIMVEC
9.39018582669528 0.00000000000000 0.00000000000000

0.00000000000000 9.39018582669528 0.00000000000000

0.00000000000000 0.00000000000000 13.74348613189333

PRIMCOORD
 96 1
Ni 2.177142686102427 1.0127315096037004 12.566287142378028 0.7829237954296904 -0.21374146222465124 -1.5433368113513743
Ni 9.278451714148595 9.137777344696827 5.276000630504559 -0.08724961444728845 -0.9920580978996333 0.8741629906523462
Ni 6.399768266966033 6.71599215493464 0.990771621719053 -0.13778670396489173 0.06394462117276084 -1.133015743393339
Ni 1.0863975151006038 2.8855758433628953 12.829543810817459 -0.7677285757464907 1.880976392484283 -0.391989359528383
Ni 8.137835267787427 3.253868310105285 11.939584281949166 2.4365876718731068 -3.7699751410524107 -0.92306562989032
Ni 8.530429534686093 8.80209699230635 12.887060575236788 1.481170622235275 1.6345760065740298 1.7814507888831188
Ni 2.3804965439789005 -0.0237252427646241 0.8221886818482492 0.7089508434866499 -1.2666406026710573 -0.2595292099827272
Ni 6.635555825669315 0.6333896115460518 7.928108290990526 2.021899842305944 0.22672887562325472 0.7237215740379213
Ni 3.7581588339046097 9.092131652826788 5.416637439214199 -0.08569512547597499 -0.23565471735797477 -0.7911891207622761
Ni 7.538534846777438 5.786861467120478 7.272571926867744 -2.3935869999418653 -1.3931890147179684 -0.31477167539579987
Ni 8.092086283876538 2.8574428475096485 0.8573267561082125 0.6290805522225682 1.8935385454200098 -1.285397057342954
Ni 7.336279640608184 5.001654152952082 4.744141461002449 0.48037514446264373 2.4027367847619328 -0.04980818177137874
Ni 6.314336358997796 9.207058133550383 13.36765590486519 0.8100700168271792 0.6597962361388702 -1.2663117585767287
Ni 3.285926403510821 2.545942222863533 0.6338976205833216 3.0905570169175545 -4.274344591547122 -0.7342134747081808
Ni 3.4772138729789432 9.103550118433448 2.8205065527203472 0.9215733616155096 -1.2389721902215112 0.5339407363939255
Ni 1.7647632982882764 0.584421672034866 6.897456551317955 0.1967043042367064 0.19170453702926984 -0.4335347870703372
Ni 7.2727832060422095 3.136218675577471 8.238189119584234 0.4551798761439386 -0.14609728071311612 0.10908445093419278
Ni 0.4695440202760366 5.698790917017806 10.703055541547727 1.2501860566594598 -0.2125764953822726 1.4672797231857955
Ni 1.202732523653967 6.5798532450947285 0.12436549522015139 -1.2168745869915236 0.3978054519895278 -1.6544521766726668
Ni 2.6265757460250256 0.20045041251004422 9.427288971883147 -1.4366272884072613 0.6583649030089823 1.1559569255705446
Ni 1.807948761548985 4.7155164194273365 4.408319316810441 1.0336508337397554 0.8491620977326342 -0.15878696036564266
Ni 5.590540858207316 6.515417791975576 12.392528332242101 -0.7765153208001853 2.198552112987781 0.1083678844831424
Ni 8.979505767558484 0.87333796145847 3.0158571554680753 -0.9728892382806663 -0.6055050788954732 1.4458665476173422
Ni 7.820446996812878 2.8994451473933514 5.190818501471467 0.5654174668459682 -0.848435503979255 -0.08673128004997321
P 7.945082929376345 5.924380734233563 9.569493002558042 -0.06279945182472411 0.6841893202712539 0.5109671583168878
P 2.0452387499373534 4.440290081490531 7.59168141885027 1.200077827149159 -0.9428574678052666 -1.7080213681483745
P 0.5806064396532992 8.22392448874289 11.441603023808652 1.2585714525096776 0.2174867881996964 -0.7489824054872392
P 2.6369800715942504 5.495202304503038 11.655135842801588 -0.4252118690269387 1.0207323259058743 -0.30051028038077926
P 8.01136824904526 1.4821938352656103 13.204589698994312 -0.3591967384783943 -2.153866082934316 -2.2699956136407486
P 5.375946948249287 3.6287057361633335 10.825524219290457 1.0352860553503331 -0.6447126023328703 -0.9139628962581035
P 4.0322020084644095 3.9018756234686762 4.162517125237503 -0.6510889381728594 1.551833793078792 -1.4232236134068457
P 4.284713487599811 0.7207634098822641 13.499442463711116 -0.4831524500974646 1.5329330995195471 -1.720693050078772
Ni 3.3964394970344736 6.946201943432037 13.498109057365602 0.7621690793808422 -1.0269590235418766 0.25289267850281605
Ni 2.3715383069815714 2.5638023557450005 3.2614940797756526 1.1045284345869235 -0.6662813296425817 0.1421002437385811
Ni 0.8940705520941121 1.7755995723919638 1.1888031224361078 -0.39686160001901977 -0.6274790120634032 -0.43588066159469446
Ni 6.03979550460481 6.955319813583407 4.089566651878123 -0.7453815755098582 0.499102802779134 -0.04025601930656938
Ni 0.18945920034508243 2.7263746378569045 7.624679469827538 1.0709719387877168 -0.17501319241651794 -3.080439983088211
Ni 1.4629815156675652 7.052019944189794 6.7841968285262535 0.6960081672830529 -1.3664587978119758 -2.1029983495501714
Ni 3.3433004371100665 3.1998841334830166 5.9375701888315175 -0.22540115795076665 -0.28795404098232347 2.3944876573792633
Ni 9.021076118907724 2.8925433610274847 9.62677595135763 0.7286904880074224 0.5824569388267581 2.8391231823484526
Ni 4.701797358365389 8.455937192862391 0.8786086725974646 -1.0227526987700128 -1.5215832217243666 2.11727182875005
Ni 2.365322004159526 6.095103697387062 1.938339938824887 0.5804856740330003 -1.1135548064552498 0.9075667629237725
Ni 2.564591131329671 2.384769078395866 8.565971386923923 -1.3016292029311003 1.0195020530431989 -0.2332949588765466
Ni 3.088948481610433 4.479541057013419 13.436194869061735 -0.244132930032315 2.955001259165711 1.457457337778735
Ni 4.894615428075194 0.049717276316622636 9.15316128565356 -0.49670293508838975 1.4354286401134697 -0.24134791108801013
Ni 8.27030261508441 6.9039179379823805 11.915423334575866 -1.3596883118573615 -1.7405311678506215 -0.49573285786563653
Ni 6.7522664416439495 1.8789479543548597 10.20813923996479 -0.38742436586551987 -0.03941424013156438 0.13128926916600614
Ni 6.06180609949133 7.600049952196203 8.63034580383712 1.800479780490112 0.14759623385614581 -0.3736561084368339
Ni 7.845603303852547 8.720627742632526 9.903624913354328 0.18678884489520733 -1.2271137482210284 -0.27554898244975123
Ni 6.000375505742351 2.3892763674511257 12.76265470221885 -0.8935750766303708 0.4452893565031041 0.7511426463633515
Ni 6.2436188717578744 0.36642663687722277 4.148017739757865 0.321008400334131 -0.6074886849844054 -0.8024857767220179
Ni 0.3567002827033932 5.092438466673442 8.559663060283665 -0.8955280865916836 -0.5509095030377803 -0.7256445020922471
Ni 5.885017076484294 5.462364825698363 9.471405941548609 -0.23344228308768825 -1.8530295295623702 1.3792623773345472
Ni 2.8298638726027776 4.998686854324037 9.537965454635053 0.2212583394269867 -0.0821518882094069 0.49870788133356053
Ni 1.8714827568570855 7.234367957031652 4.448203190838171 -1.0075304825036195 0.40210562202677846 -1.5444547270059015
Ni 9.291344438883744 4.782928561360066 6.061577917982907 1.316936265601816 -0.5133220317023095 0.33115603029109414
P 1.5994115212589621 2.059004761926959 10.616402909460357 0.45676984633887785 0.15662132017289154 -0.14781683450738414
P 7.83880480952753 1.039662561708878 6.155638467436308 0.8540286817963162 -0.3338739434428895 0.5431933653404452
P 6.418069738567494 8.397699262194221 2.2415903464627704 0.12128382121386208 1.3721651041681338 1.695661818141757
P 8.59158781305465 6.729467071172761 0.7165603628382343 -0.4438873339492549 -0.434338256808239 0.44201762773036773
P 4.029732389669548 1.3461676076520803 4.049243317167504 1.364581892504237 0.24492482980599106 -0.2552992310617797
P 3.9829880460922906 1.110239196165822 7.143809007763054 -1.3617027711842289 -1.2686164954505055 1.0250211830892155
P 6.130570428140637 8.556618762134258 11.037187452344012 -2.0457385965967543 -0.3634488288865289 0.8446199868879067
P 1.6776693274809114 7.808465120074312 8.712435744774591 -0.7672598636401883 0.19851796040667744 0.717044676238378
Ni 4.614806679598874 1.0150227148734574 11.216896823051437 -0.1420709331625424 -0.5966730824261401 1.0755374466712122
Ni 5.735046423356053 1.7156244574004123 6.058980592664814 -1.1449631455632023 0.8948806828156718 -0.9748383915872373
Ni 1.5689121986517038 0.22336246520761519 3.9227894446850824 1.1083007571451622 0.5839448362261943 0.01055592113897537
Ni 4.829588393267538 2.625880872295673 8.453645987592633 1.494029223365498 0.4822564206457565 0.9294802751674122
Ni 9.273493696187808 0.43361059730153056 8.448628811462997 0.4590108198542546 0.22436217516329102 -0.5028311594733147
Ni 5.603574435725442 1.8754454151515016 2.2741207662005554 -1.109893555553579 -2.3751203085962453 -1.7771822434147524
Ni 8.335648916200144 7.666663928358731 3.1992906737574076 0.18428973262243745 0.7540420793983337 -0.10912738835698625
Ni 6.904040010394294 4.8608858816449985 11.848066594737773 -1.463191926269667 0.9297831511198115 -0.626572955309366
Ni 3.4952148586433873 3.1826813135887746 11.642353922255712 -1.0445021746319625 -0.6738866527936652 -0.8497521659081494
Ni 6.060190987579862 3.5351794882666914 3.5709560951428165 0.08485566029381515 1.2880031275072334 1.5158967128625505
Ni 4.335908779119138 6.198142203227409 7.944311995144186 -0.9878018937264409 -1.9230352693275459 -0.7716667344586323
Ni 8.9846797597865 7.255636727261159 7.979467910756659 -0.35438671868426064 2.539564467247665 1.6129825966739706
Ni 7.172533585304805 8.321432175305011 6.260418852692802 1.9381286733255592 0.5515293960099663 -0.7670554609388661
Ni 8.989299731068142 4.805793663129979 13.292973881293747 0.1102195929799005 1.4103781249027452 0.7042138430222968
Ni 1.0421509608748027 2.7284874296015573 5.1880699941663115 -0.8525942633426348 -1.699142834711822 1.2441912725286055
Ni 0.12685295536752292 3.331572095380859 3.0925317764093645 1.0375468263600516 0.3696282182243634 -0.45176262293227354
Ni 0.1054470884292513 5.5703143985718375 2.857669150980965 0.6312343653407774 1.5884756126715418 0.4319077929898755
Ni 7.568442587696193 4.91032520846988 1.7974007661411238 -0.7296726494150336 -0.40760546879908505 0.6631705519277418
Ni 2.8651146290891223 8.336738177721832 11.862002569085504 -1.2367656694884956 0.2373015089327784 0.09418799343833456
Ni 4.788130724144679 5.044520349904711 2.3576398933759672 -0.039778051228886335 -0.08247584720772892 -0.4691083132995727
Ni 9.070365202764098 0.9826641355309044 10.85868659851453 0.7884223566504164 -0.36613923123449843 2.0594814001041435
Ni 3.614911553617132 6.199184513821438 5.494247322634455 1.371012221510613 0.09627444365371807 0.12874721947044276
Ni 3.457006193714528 8.192345294799477 7.523568769076869 0.6080149898015206 0.7704230918595183 0.35945976233179383
Ni 3.9427041501609055 7.5773163130237355 10.10429317816871 0.6954350683884022 -1.8528099573523962 -0.6785722311947927
P 5.910445698904384 3.7583841983573723 6.900357179628726 -0.7015656067661724 1.8855691540612882 -1.7719323078697227
P 1.906742903528962 3.610732921055485 1.4539368889633437 -2.921957698447181 4.16309707152334 1.3747706601117808
P 5.516518025660204 4.700971022038591 0.3284771410690411 0.22862506420470305 -0.17151803477906588 -1.2904868131610356
P 5.721233460438788 7.017867839410669 6.48847828870342 -2.8049354807231497 -2.1290667645024492 -0.5665639217455856
P 7.700506157015306 2.4999772646854144 2.7702746942365826 -2.532585979047303 -0.535733052407658 1.8673071225273066
P 0.5323183495746151 8.957551513785155 1.6793576828395276 -0.3105589228660329 -0.9258095111840443 0.4098135321939974
P 4.037948802009866 6.900443569335618 3.032692819108024 -0.7940872682456775 1.4168156529979727 1.3916777202797646
P 9.014634451632915 6.731082183084229 5.231787880946673 0.17297662160246338 0.7670616315864531 -0.5803663748463166
