# total energy = -340867.3352333499 ev
CRYSTAL
PRIMVEC
9.28368303639201 0.00000000000000 0.00000000000000
0.00000000000000 9.28368303639201 0.00000000000000
0.00000000000000 0.00000000000000 13.58760853281778
PRIMCOORD
 96 1
Ni 2.599848949070957 3.7459845762217836 7.7049071280369565 0.8308399023846789 0.5793703294816344 1.6147327465958576
Ni 6.787421181246281 5.785136219045211 4.296347286778957 -2.147088655001167 -1.1874935627262453 2.884450702640658
Ni 8.84613354372438 5.264952904526673 12.39208910528292 0.5828688295531962 1.0141983814420985 0.6912863363273514
Ni 6.966689096069113 8.501133323597704 5.1513336242392205 -0.22481031844430313 0.3024848876086468 -0.14613790414306443
Ni 5.253320449981204 3.540833753759072 5.266067874830672 2.083817662856663 -0.49091409632075456 -1.0544217477385196
Ni 3.3343182299251044 5.213948351236324 1.743480271242123 -0.5359001741131415 0.6089467575871705 -0.1737438387857911
Ni 4.284206086416177 1.9540852573484602 6.934857204492494 -0.06458791118371457 1.3853589771505883 0.2645523742289315
Ni 5.746887445918848 1.7868954138453843 11.05748729039334 -0.30156623244911934 0.06062069900585043 -0.20792742664603545
Ni 3.387476597624511 2.535067410508879 1.5981340049936634 -1.013183567024339 1.0540612790753072 0.9370735141336377
Ni 3.7880953613919734 2.3999619747545196 9.39896942737885 0.6548324643756915 1.5880315831555878 1.666491110115072
Ni 7.052173247269975 3.240125984260037 2.9374918505804866 -2.217474146703265 1.002692437685028 -0.07695440316886748
Ni 2.1554483372297257 8.543355512961465 12.768628780978089 -0.05302128939203772 -1.2795331423630092 -0.9803881177608729
Ni 1.7398085746956478 5.941575557868594 13.22506383082993 0.6749598312531859 0.8495958428359432 0.8307450286780274
Ni 8.555025102238126 5.252679875868165 3.3850535564143214 3.697199551851581 -1.7267485122442328 -3.6418969226245346
Ni 4.212740296239782 4.1444866603113795 11.643234757933797 -0.17117582094829875 -0.12959645484461552 -0.04226430798584979
Ni 0.5464858446208706 0.25656385779615765 8.665538062261481 1.9729488663285375 -1.5678394244784288 0.7224900156236653
Ni 1.566324394255758 3.3263992484986997 3.494202743434701 1.2464857249897372 0.7465879371131336 -1.1547425935474693
Ni 6.813508329907708 4.442242218680758 11.682788816861512 -0.6388445735878675 -0.4201717354998699 0.5471716332619028
Ni 2.689650012772731 6.7996663588563955 8.281049697354954 0.40374367185083365 0.040086069387608385 -1.1992705007565152
Ni 2.3032167163200947 7.962475480311821 10.153313216366229 0.026466421721644744 0.6722892263995583 -0.1149131418008279
Ni 1.4849343471686647 2.674025574624268 12.099071938613468 0.9768258543309113 2.080543105870449 -2.045727797963477
Ni 5.577664475883084 1.2229488186186728 1.6242898529077934 0.07963349266292737 0.2781295986927339 0.09491818673613976
Ni 7.0509942195546715 5.41792942966653 8.771589284332281 -0.466517412643945 -0.4354754557364758 1.8556515405662495
Ni 1.870411424293142 4.593371290943881 10.246211316649303 1.1560263453558994 0.7593971730626599 0.12215105431016382
P 7.304178816812482 7.40098906102649 6.9158748582761165 0.20583969087907128 -1.5950080144734207 0.9841231593232729
P 3.129167407462393 0.8295954650086599 11.282755853478582 -1.2570015369193965 1.1580947978491538 -0.7851817382259315
P 2.8627071438039287 7.66028232156516 5.891233859529999 -1.3533320306220307 -1.4607948867924003 1.630113342816986
P 1.08130767017476 6.20362607219817 2.211953472577689 3.2052690984511703 -0.15854219134468825 3.2524213306569405
P 3.6448481358240654 7.384575509840225 13.727288789344671 0.3689625596159065 -0.5177435578087728 -1.355610542243562
P 4.594698857583946 3.5919404275601954 3.0369665117574236 0.9263931516016563 -1.8710912721600874 -0.9912762254282863
P 6.781841687884887 6.399706736567567 13.431310127862766 0.5123092741670789 -1.2266344945917649 -0.7519643709336985
P 7.919399192130674 0.8225157285071637 9.000866541649554 -1.8291964316985143 0.2821394911830754 1.1320322964341472
Ni 4.23179969702338 4.894766052969944 9.16345539195811 -0.45515827887738386 -0.010072039524021364 -0.47486732727053704
Ni 5.303870102814468 1.0868685961705589 4.715783147208999 -0.14497036619752451 0.9234520666954613 0.25125514289939305
Ni 4.062688131181189 2.0557972860796334 12.947984890787502 -0.3745644791837162 -0.8671299950649647 -0.7613013320639082
Ni 6.515910594145889 7.737791789242831 8.947874351872224 -0.08950447191973618 0.5610267939774404 -0.13994977305448156
Ni 7.6997379734552185 4.330578081990493 0.8172379548366935 1.4113872828935499 -0.7252174418571574 -0.9472311713929299
Ni 1.1172169552361126 0.7517629251696302 2.7023575177861696 0.3957531974461894 -0.7733924589004875 -1.9424995486997447
Ni 6.736704422122659 2.4198940417210975 13.367217438564273 -1.2727657417321887 0.20003208305835873 -1.5919363175266326
Ni 1.1659934246550232 2.411993627660288 9.44933897676584 0.10774130664273703 0.26092866143341514 -0.17968488686057443
Ni 8.846848387299799 6.635744371698097 1.0589804130463856 -1.952052482495503 0.9658369594195754 -2.3813032974785053
Ni 6.485079483574857 5.6962913746715955 1.9828535336018516 -1.9153083329969338 0.9581928126107563 0.11620049315368375
Ni 1.1047489692388537 8.9028104272041 6.475201645078146 2.545510143308139 -3.0261696517804206 -1.3218959235999364
Ni 3.362048590441718 6.418831123130748 11.46208504060788 0.8345047528307756 -0.4018551965788692 0.7785822306315431
Ni 8.770267287901895 0.8820306338181287 6.770352202054501 -3.8265368394975385 2.6893633651820843 -0.5367882331450498
Ni 1.2226146060379572 1.2253440087804695 0.01032159853443943 -0.28777226398882055 0.19670481845733864 1.587566470593711
Ni 5.044372601254249 3.9740011094151337 0.5260023268961115 0.9023451095135169 0.42282948483769117 0.40074576556477437
Ni 1.8357275853610806 7.806481758262724 3.820278176178345 -0.2592895831680954 0.8255583422707654 -0.13616125254632677
Ni 9.272969427712436 7.15165719212971 8.138691848599063 -0.6265405594095339 -0.24825929349586273 -0.26138657490644013
Ni 8.8746251662304 4.2102522692500095 10.327166887381466 -0.6979424081912883 0.02292858377171535 -1.2527623020270684
Ni 0.9073305261783142 0.2722727774580797 10.99819055162812 -0.3736193416616275 1.7723336570731991 -0.1161146183080968
Ni 4.730704810569679 8.725334263161216 11.453483708495847 -0.5171794577751867 -0.2877182708224335 -0.2097084298058582
Ni 1.9378202450869582 5.511165456003438 4.3512008549572165 -0.5566623463611574 0.5268581185155313 -1.5346050879053312
Ni 3.859124818476877 7.67230469078813 2.1362032627901746 0.703854402800349 -0.7157611815402641 2.5568667059715384
Ni 5.619506034252142 0.8324585527834586 8.63981669070228 1.4868787283636455 0.06496174958336554 0.7809892974111389
Ni 8.252915496636643 1.3088693029110248 0.9607256277890612 0.6498257551897195 -1.0835263784139597 1.308590721850598
P 1.0091270364229463 6.866648130241519 11.449625409925138 -1.0697596636471707 0.09434508784148912 -0.45667574396317484
P 9.209264796354887 9.100757111815826 4.50399356317768 -0.2520110472288111 -1.3021897034202605 0.43038647124934265
P 5.997426193579323 7.386339409571781 3.354712624295006 -1.0960399374999383 1.8639893710079833 -0.9885773384398845
P 8.804793304226395 3.10607888834461 12.95282261789336 -0.13154457970992184 -0.4611762029366896 -0.5686097485310208
P 6.499227816158492 1.4773495783229755 6.719669792557231 -0.535735109290187 -0.4317057042813984 -0.559048844315463
P 8.778158418279906 4.467772346374326 5.34283743298937 0.5774952239461086 0.9149908233019853 1.123778283955471
P 9.009823438812736 2.801397702608176 2.431339894242334 0.8599401621847448 -0.40448209267875496 0.0856539878253944
P 0.5263105451649939 8.710090456007457 0.8788454022502512 -0.39878529940429386 -0.05331953735874689 1.3185414053054065
Ni 7.559962845253636 2.734945101142519 5.294751669570605 -0.2630107407734245 -0.21132025437766833 0.6268557766571076
Ni 0.4371519123128177 1.804014524924271 4.548546885291935 -2.481139747451869 -0.31304132296825443 0.9507528113929433
Ni 4.352793934925295 5.369969924333814 3.822601881982599 0.13283270239372608 3.383854067379346 1.4316159512355988
Ni 8.370057006177529 6.625142405943167 10.338973875163532 0.4449299162811563 0.6714836997791274 1.0955624836428874
Ni 4.419348656901727 8.954947589795763 6.8628019004584475 0.33877729428177783 -1.2461864485817635 0.3315324397939064
Ni 8.88348179961937 6.763515698042304 5.033027012507228 0.43812112088943894 1.1816533018953843 1.4403363618277323
Ni 3.2582291657154756 0.3652275082062194 0.9593024392161796 0.28848008868912256 -1.1398726184141723 -0.5095538229091289
Ni 8.844973083374672 8.545862107316834 12.59764191121077 0.09441527895779224 -1.2803165574962532 0.7089958377919725
Ni 1.2069716005238984 4.326251885806783 1.2435855171095933 -2.063139822792337 -2.179784088351659 -0.11572278218631685
Ni 2.6115835241272003 1.2321582319539526 5.230141879140284 0.9922159636337364 -0.3495317045848045 -0.9979973462022036
Ni 5.251937181244353 6.488208084677669 5.927064233287571 -0.1431068306262245 0.5829030252252413 1.0158693413866182
Ni 8.136126767042068 8.119304733812706 2.861767635104806 0.02959442582766516 -0.47059183982363473 -0.3098503268347825
Ni 3.1830313350544217 0.38082688041112905 8.79790852506365 -0.21821749571813387 -1.5343960572183186 0.5457498132137116
Ni 3.0873722675073236 3.7717282286196974 5.35490343552149 -0.6114844364073597 -0.03522976973657158 -0.23140211272920794
Ni 4.364185013718025 8.262078491557935 4.665861999701137 0.5883200824757545 0.11874357129051162 -3.1766434642946777
Ni 5.925867566574953 6.708444891686579 11.14889071774599 0.731704849353714 -0.7595686656435177 0.6217045714734712
Ni 1.4515502238282758 5.860501155996622 6.577190327556689 -0.5087236136983496 -0.49481651669895427 -0.41123998022787883
Ni 8.184327648127525 3.4287240002945185 7.764285563210795 1.4441274534390485 -1.3784427096467293 0.8714900718058733
Ni 6.164356093964065 8.11667745158097 1.1316354429891597 0.23077450644753802 0.34329189432267976 -0.38163681264946536
Ni 8.251522944216994 2.0406741668022437 11.020107469976837 0.3520608987645614 -0.3095451368895379 -0.17972936694526465
Ni 7.298098004580013 9.000391217090314 11.093697366777336 -0.9926885323947806 0.13591005576746917 -1.7490605454778718
Ni 6.78480318269734 4.748891545170296 6.711680255141564 -0.8619705623512123 1.1522331968620543 -2.33095826936705
Ni 1.0932372025697543 3.1025882236126896 6.217621224015644 -2.4815130716308875 0.67685961937906 0.06386337431286421
Ni 7.402316627666555 1.0018114943783893 3.5441378164667596 0.6566702889153787 0.014231055997717425 -0.5705966970540625
P 6.120722784815058 0.3829082820943646 12.85554818953947 0.6556768146538579 0.0984439405012111 1.2676798425688491
P 3.414798476098027 0.5543537657918882 3.0362191752922114 0.4047466591940514 -0.16436702555658145 1.2902695549439067
P 2.1132911336455473 1.511262871582831 7.393710653713124 -0.6982650816380297 0.08685237900886977 -0.09643179516718876
P 0.6996081235806508 4.710605637312743 8.35735692811033 -0.5938541249201063 0.31862781591709644 0.40202694627004304
P 4.394254862299649 4.745772227750282 6.915983477364849 0.6076676337644309 -0.1425193335538707 -0.14890595380650481
P 5.693682659805452 3.70039241000247 10.036283111018916 0.9800021951763639 -0.49100279937981894 -0.41395403672493225
P 4.449047158171444 6.971126696446396 9.487669446300822 0.4129541347055082 1.844744149625126 0.8955545689542447
P 2.860219116814156 4.077755548361792 13.420399015470673 1.1198262412862585 -0.9766990989450599 -0.822208709072242
