# total energy = -340874.69515131105 ev
CRYSTAL
PRIMVEC
9.19779875771421 0.00000000000000 0.00000000000000

0.00000000000000 9.19779875771421 0.00000000000000

0.00000000000000 0.00000000000000 13.46190820965858

PRIMCOORD
 96 1
Ni 1.2994006474293542 0.2952475059094999 3.4153533701793357 -0.4558205950517311 -0.27272951072308516 -0.17482061678973765
Ni 0.4294976592283514 7.2813179470177 2.199056675590607 -0.4544743654364818 0.4542532505646112 -0.37146964230847634
Ni 9.235141987909348 6.710438161184613 12.772591539908996 -1.0274321065235532 1.3832159626656564 -0.5669896964290946
Ni 2.232131040742414 6.27348752548792 12.09762486254933 0.6619181675778794 -0.166089664674643 -0.38422488509161573
Ni 7.530817440637632 8.877724719510876 0.7005788682442066 2.068114136078477 -0.758227578234591 1.7810026456021069
Ni 8.783714016705844 5.251520087011526 8.9312761444078 0.3325855636487692 1.034955925704424 0.09406560892785736
Ni 1.7177625315000837 8.216890460198362 5.507037700467613 0.6970291523483996 1.881636394665785 0.5474991918046507
Ni 1.7168335538087316 6.02829260176455 6.072774996922137 0.18729123845292261 -2.07411431952597 -0.8550684359147404
Ni 6.395459537022754 2.153094354586104 6.700327940607048 1.3527525039694768 -0.009909288693911967 -1.2020161818224524
Ni 5.837051966530987 2.7671118173740488 9.189920089718248 1.703549191309634 1.7728440210507146 0.29568509107799396
Ni 2.922821355363131 1.2871491792622174 6.865182850066538 -0.838128465626292 0.49044307022160694 -1.1115555166370341
Ni 1.720733420552625 8.49715659122 11.076175260152374 -0.49102388242574146 -0.8297836932060225 -0.590250466729248
Ni 2.9628133850858864 2.1934634940647544 3.6240265937140803 -2.4264076460163118 0.08221179491306486 -3.283553533285371
Ni 6.88439613223946 2.1279567701260556 11.203458080786085 -0.10484855847597427 1.3246858276402476 1.836101900569096
Ni 6.085880020829447 9.480355307230568 4.9442492183482125 -1.9152800508621595 0.22133367274961235 -0.08954586668063287
Ni 4.7528154293372396 7.047583480753979 11.414190691499975 -0.7378605845424647 -0.4763310563002571 -2.018217251248034
Ni 7.163650505379427 4.233185779110222 7.396456913731689 0.45766690423185047 0.06571071193424813 1.2265023398892747
Ni 7.126473002127501 2.1156777085621457 2.0115457478208385 0.7147129427814078 -1.2632655155512371 -0.19358581321238272
Ni 7.737528773661829 9.028706588852879 3.3531458967147745 1.243421998462749 0.6953617919483057 -1.0985606470392628
Ni 5.492999099969489 5.688047623957703 1.3957715054383566 -1.5320440120463743 -0.35403370622021607 -0.3130148406056932
Ni 1.9473579882478806 4.648723938911199 8.130023687817815 -1.8742691556674367 -2.058651962224313 -0.6216683189188971
Ni 2.5094630739072077 3.4913740980683756 5.758950696525275 0.3562865068101348 -0.2496620873806603 2.4370422429120224
Ni 4.826710545894879 7.803228651377938 8.768454868290467 -1.576911047762394 0.03313560621170423 -0.016041112623262698
Ni 1.525206611020349 1.650085127015255 11.136673782576805 0.8305467966242922 1.5081983157770285 -0.38917991510404587
P 0.5923180155657916 6.578017450071799 10.49814786477523 -0.2810999941749675 0.15204192833232524 -0.2431417697636393
P 1.6600463432502468 6.758459869368262 3.9353463334638614 0.02169779668840779 -0.43456502810706443 -0.17819544679924149
P 6.8514956054873215 2.178130763257985 4.159540842683323 0.3702118586419753 0.10698026010699639 0.7250078969495126
P -0.1043849002117248 0.8338384186189134 1.7881992756621952 -0.03735581494063889 0.26100965118299563 0.1975162586150405
P 1.1988687051870086 3.950040737025286 2.514213737051597 0.4231089637513229 -0.5546825969269673 0.4852684679992029
P 9.01866259242757 4.9336625517863695 6.245814107864449 0.1160624249139227 -0.5584312653361221 1.5358374176505356
P 6.83149039282702 7.155639222516382 8.603330463322497 -0.4643304322949551 -0.6616924247203185 -1.4099371807105845
P 7.631248207091811 8.727773003648391 11.922310216153154 -0.14700565145999842 -0.22102539748057418 -0.04687763838814507
Ni 8.777174381670683 6.258541102235971 4.4168787005465235 0.26476629001195046 0.6985281054914292 1.298707144188299
Ni 2.6856561101006537 0.3039587412706824 8.948682059092102 0.05564407172686547 -0.9544320600167434 1.499889795911333
Ni 8.404240426486956 1.347054443656032 5.439338221265366 0.6472631366688659 -0.4483895926949826 -0.03927462922990655
Ni 5.7916884222364535 0.3319034939624202 12.995386144132182 -0.7543549826530621 1.395179562785436 -1.4805378737472825
Ni 7.393853016856227 4.216206642296008 5.03509035964394 0.8604839505033567 -0.8120482235994724 -0.9121304710350548
Ni 0.40907302693710235 3.5729401789288624 4.5650947917519975 0.6268496060095204 -0.45417328925629524 -0.26928911758296853
Ni 8.75609302653624 7.048411282657163 6.838017150943687 0.6066538477879359 -0.17802935353502242 -0.073070494733429
Ni 4.56388344163367 1.7878037703084513 1.1998703454898627 1.3078592430012121 1.233000803129425 0.20495446006064055
Ni 3.9343676876583182 7.410675791088729 13.534333931439859 -1.7507019377360367 0.9337274804795404 0.7533221705131736
Ni 6.114908274234464 7.256916186471594 13.196480381353323 2.881946962382198 -0.7303344513687486 -0.1117015768420657
Ni 1.8279521626129194 7.0165409093845446 8.146608239058178 0.608093922668572 1.3735416728006862 1.21597958598108
Ni 5.258795545960629 8.265859541671212 1.9129370653335596 0.38180907656127144 0.2849887877064124 -0.6374276386356829
Ni 7.349611604030456 6.76707820696031 10.620085844454046 0.6568664640865849 -0.1208027678123855 1.4884578999253075
Ni 6.824693219421979 6.810169894920546 2.9845183509873943 0.1226915001946661 0.10838973886001334 1.0942134258141607
Ni 1.727116693006073 4.269351524480479 10.605722561653895 -1.257308526636854 -0.8454548240843762 0.33507104907478424
Ni 9.547407261388544 2.880456293517912 7.335366972836428 -0.9679784312426104 0.09365268976015484 -1.5146435571817398
Ni 4.785449219920574 7.111075886728262 5.3613123732108345 -0.8277098413961292 0.39993946761339505 -0.2509823488539807
Ni 2.858188422322238 6.2784635347059545 1.8679340747568582 -0.6981450111203976 -0.24927436502393843 0.6754953920416817
Ni 3.921711516338514 5.46157941884416 7.370650649289846 1.32172365968813 0.1421822619294261 -0.680754583558092
Ni 3.4424785989869204 3.918473891117168 1.8360701399434862 -0.3992025894473706 -0.028941365624698543 -1.4905420361478459
Ni 5.299983289543541 4.450640141277974 5.263605994798026 -2.629033457943775 0.1496762563136261 2.0279956707910363
Ni 1.5091288585007132 2.2039029958438086 0.989319851194673 -0.5202804652980136 1.3390012158216553 1.1065968870801781
Ni 0.677585290713407 4.89359693967222 0.6821152066836133 0.02936688319789136 -0.20682288072794705 0.10383554383042763
Ni 2.6895743724423955 4.749991705067487 4.026106534129055 0.7272393573831927 1.8828306720842025 -1.5295592979513075
P 7.561335737468382 7.937084219122937 5.231338276611879 -0.20783486693222916 -0.733344441839666 -0.949914631762364
P 4.349197616942126 0.43286589319442154 3.209467079718647 1.4414085118459885 3.6338221160361996 0.9807089914354014
P 0.7920040697716253 3.3634879018252315 12.528957482663074 0.3235375945138879 -0.8704006953964365 -0.1007093394966201
P 3.8670214039347637 8.83011691227882 10.774696245471675 -0.10530595772836704 1.0423972124738177 -0.5492254304671379
P 3.8330447347084857 5.224598129560168 13.196049004583774 1.0296496830001622 -1.1493409629159237 0.33235596413646634
P 1.7563748913841974 7.698530106222895 0.506816196545607 1.0588147345998926 -0.2861812653526168 -0.740752304267963
P 1.4467217927994955 1.588340302836585 5.199016291412077 -0.5346429046672728 -0.346551538910558 0.7145046834253437
P 3.1679334988961827 5.493560165703871 9.567324175179174 1.53484625738186 1.2289474589956577 0.08356213829337222
Ni 4.144905305035015 4.139386625680448 11.098858871859424 -0.1628073943789454 0.9436529671233683 -0.6474017191292593
Ni 8.373207052916445 1.7935156034404272 13.332000750703617 -0.31608730888342984 1.4483121809443573 -0.8347225252685366
Ni 6.413542409707882 6.23000033217394 6.601046899018405 0.6598908527352055 0.7908067977221929 0.6784583313247476
Ni 3.635457618217172 2.651569067287284 8.83536057744555 -2.215327532673907 0.7635150518857754 1.3795655103972628
Ni 6.111284341458299 0.1819269440428402 10.093132906723518 0.294491584990525 -0.917475280286736 0.5850013025151667
Ni 7.146091907232983 4.175331623876522 0.8869888194827392 -0.43880477722002487 -0.025716688039813775 -0.7211882660931064
Ni 3.44858593747264 7.924262487422497 3.5849065153293465 -0.8167697974448578 -2.1024769298290633 0.026039618596871286
Ni 0.9628255913932937 0.28146092510190146 13.109165676165164 -0.1780990304306933 -0.6190213682143533 0.16074177009916832
Ni 4.445654934261016 1.8282097009827991 11.037095652082906 0.023416836262043543 -0.41112042393087905 -0.354607319335499
Ni 3.5256910858548527 0.6075744046414894 12.745708213213119 -1.747911776585409 -0.8281438436097545 -0.020808966325551258
Ni 5.427244035459835 5.554615154963219 9.4685812048276 0.17288817565371517 -0.583190217448357 -0.31610247839208144
Ni 8.695580707413422 2.964128670332058 9.668464091930412 -0.08702207181751465 -0.08223750594467773 -0.15169945739124194
Ni 8.129198645254307 4.80051521455854 2.8100121911166607 1.028559535259777 -0.7984987670498118 -0.7356072697319137
Ni 5.38258872168247 3.329051342652739 3.1139819697460522 -0.29358809933964924 0.33889145126213893 -0.44441929519332496
Ni 8.679815680057212 8.039556896938306 8.950957594545967 1.3281976974482481 -0.0021651259721188515 1.2622118774757423
Ni 5.042711655832595 0.9386353802224457 7.9658825275548475 -0.7038623732201491 -2.0460838957513148 0.11714563067577244
Ni 2.948188884796286 9.58953318046173 1.5742354781862065 -2.015450487136174 -2.3432879945769964 0.10239572606010751
Ni 8.659313786255 0.7378465099255911 10.472341600333388 0.25946493240369506 -0.8770685943349152 0.45588153019665356
Ni 0.7419910381208703 0.10394248608346708 7.406041939990677 -0.16303493700871924 1.010466682313808 -0.1600761114907114
Ni 8.085306748787659 4.4482579113565865 12.30835747326322 2.416449506362335 -0.8378651846625764 -1.0675184330214775
Ni 7.100434033372872 8.8354516356549 7.0988547712975745 -0.13925171854619245 0.7377430851279939 1.3530988315653019
Ni 3.0148269380026713 2.9716708654499646 12.76474305808691 0.02523409197644041 0.5743520503314367 0.3071534967289097
Ni 4.352922725506458 2.1560376502418723 5.134788981303744 3.291684389922622 -0.687696304983248 1.915551045135359
Ni 6.0218633403164805 5.177661761649584 12.092886156543543 -1.4107290804842607 -0.6881719590680857 0.709614445212578
P 1.52716574219122 2.203452303696519 8.930024323974207 -0.16023911943113694 -0.0809709805274283 0.7746808386946078
P 3.4715068523919377 8.407257304534118 7.1312843707447895 -0.21643829233052403 -0.8765518025994968 -0.9431086645841241
P 6.1709596608790065 2.505094119418176 13.357027041796682 0.36772637321596024 0.13522125723056067 -0.16033193625525935
P 7.09907275913208 4.4216302834708054 10.263049364931039 0.12006306143288355 -0.6387985508412805 0.046114020749243166
P 4.588303597777625 3.2759524494628893 7.127326557867673 0.030627495077869833 0.7505073267721977 -1.284916775272426
P 7.860880455035304 6.626232312032859 1.0082663971987909 -1.352427002309258 -1.715312245382833 0.6785979422264056
P 4.965220199895563 5.447975874235154 3.4833361415884503 -0.6297708934213735 1.3861807017209353 -0.49363869434076924
P 7.4504930626319235 1.264375429125708 8.672780283660034 0.02124785363518276 0.23209913879623253 -0.8048542769541945
