# total energy = -381173.31620450097 ev
CRYSTAL
PRIMVEC
9.22519641509126 0.00000000000000 0.00000000000000

0.00000000000000 9.22519641509126 0.00000000000000

0.00000000000000 0.00000000000000 13.50200745062679

PRIMCOORD
 96 1
Ni 6.814901768144075 3.276107148261716 3.949621220143263 -0.5614695379418136 1.7328237719040351 0.8633381321227003
Ni 1.1667106070540012 1.117780164578992 12.935085350147778 -0.02337029929482427 1.23583030215842 -1.0996361394916288
Ni 0.16704063384143908 4.503205891899694 3.9526858304355326 0.21045893481863756 0.6558218248721545 0.20639170672779938
Ni 1.8631483698303728 7.0131604670940035 0.818279546145279 -0.615599744127314 0.49997440675080995 -0.8916110109254645
Ni 5.949873538506694 6.344352167970094 6.400505016820231 -2.089872610801491 -2.055477164040757 -1.0219852244763687
Ni 8.155820986755028 2.5040227738158354 9.711913302181284 1.011317717460194 -0.7073426184592657 0.5788823341016225
Ni 8.519736540064638 8.628575408903279 6.975798421086502 -0.1788053124690985 1.217918711985322 0.12026463592072838
Ni 6.589336487420762 6.037955715118946 9.862716667583756 -0.16872684518717396 0.12122237184830735 0.47171464057416823
Ni 7.862533538194414 6.538671707995281 7.64829310874982 0.405961762548075 -0.6336064651173798 0.4886201580802552
Ni 1.9162393759472052 1.5131075121245372 6.6484561594797915 0.12528368640187457 -0.35598260241647084 0.10709261731514459
Ni 9.197502505033803 0.45987604777134466 10.981034661121328 -0.8310160229512268 0.798663060541818 -0.14589570622527132
Ni 2.284785977922435 5.113858552003533 5.006530770358972 0.390329969548089 -0.9513863312118841 1.0593001588767434
Ni 0.8724093093930853 3.7416290163186385 6.380562909448771 0.12040758925649586 0.46812178101658736 -0.2757220176925058
Ni 8.235526684904364 6.431022889510952 2.6034703925716047 0.08448439299732546 -0.2709644484028624 -0.15640714727955646
Ni 4.670892289499287 1.392266662580769 9.75218958777737 0.016807044255009763 0.30663336255938156 -0.21292745096378815
Ni 3.6511851893908505 6.502508937538638 12.336514007439352 -0.9669672163692766 -0.2995288903041164 -0.38147868980504623
Ni 6.341215601144772 4.963294119191575 2.081051202303357 0.3918302082426994 -0.20679331304159224 0.1723778116761999
Ni 5.319322129455156 8.940497754484918 3.758284186161094 0.8855172393229008 -0.31836607761527747 1.3341132916017346
Ni 2.8191185870089757 -0.28667667271642217 8.708876132229772 -0.7982696817581413 0.6494015231681074 0.7085124703976509
Ni 1.4722860174126375 2.909848395029661 2.1240821315877993 -0.4236355256787543 0.37757549809589813 1.7364577691121965
Ni 8.412299901100845 3.271079416144657 2.1931447204830974 0.17188004610417495 1.788834740052016 1.2375385430987784
Ni 0.8342428262468543 2.9038889180615515 10.94885902061146 0.24569924607817037 1.0454254577771802 0.7438566542248994
Ni 0.44954751771949314 0.7647632584677193 8.537562387348661 0.9901850492466366 -0.26435979860215114 1.042351961058179
Ni 6.199931716057146 3.457705142251263 10.498729392989974 -1.2514631235996707 0.38246367942613485 0.026558467214818776
P 1.4066948699772461 1.0606946483581476 3.5369449679750735 -0.5736501391684056 -0.03881851552909444 -0.16552633597200522
Ni 2.938557206677894 2.088713650553686 0.7573923264282147 1.6078828135535599 0.17268762960713485 -1.284713143902052
P 4.589498380382204 5.414009546793673 10.480407230131824 1.0872791605881726 1.7055981034188623 0.5177931800997857
Ni 3.982231367410403 8.249502857670134 10.588517308443407 0.6263238154130375 0.35980814681014806 -0.6753483249408563
P 6.256768151971274 2.725196860983699 1.762281915845973 -1.1314805376957353 0.05953955012652972 1.090430818843277
P 8.189373026589418 4.793947186213869 6.419772762324248 -0.13996314279092023 -0.6629795189628582 -0.822666622545267
P 0.7318782003435365 8.044703494369756 9.68118232745037 1.3878799438002292 -0.4197709005170254 -0.5201992184381169
Ni 4.574645813944654 6.287903190310859 8.360160012747807 0.01268248056367493 0.4526044021072786 1.6640318499413018
Ni 6.592463829049538 0.5554749145285139 11.149215529255734 0.1944407050135103 0.3063739382504078 -0.46578002025728815
Ni 3.3082938590074376 8.578685545987584 6.591640018998064 0.6152349045887276 -1.231047536057796 0.026905566141592372
Ni 5.731467010302349 7.5614323481601335 11.88321183472602 1.2555828021949988 -0.6571953081809133 0.6034307128649479
Ni 7.850522332292744 4.7473045924820365 11.741588462405534 1.2394704700141685 -0.7939214320917747 -2.7647157139711545
Ni 6.971222723600151 0.7762034247032509 5.854308804976741 -1.1349798090982453 1.4198120166221355 -0.6785359786402185
Ni 7.071389907686436 1.2296356726878697 3.2106285482241743 -0.49494147231259267 -0.5703550133569016 -1.507937091695842
Ni 2.4741054614201987 5.790618970549287 2.8199617699731947 0.0990761747685713 -0.31234635378375886 -0.19554550804191484
Ni 4.865922169658445 6.337783828030009 3.6687250555819766 -0.556203661557184 -0.646379448512332 0.5559380666006232
Ni 3.5436839740512416 8.105700493925706 2.3794992258112786 -0.1853315436233905 -0.24483484119534604 -0.22166663060899885
Ni 6.494778222833876 3.1618992150338476 6.433207416052822 -0.05026146725871344 0.42178356007168 -0.9990928932592278
Ni 2.4832568563929005 1.3729122002292289 10.573300346742327 0.2514099233097025 -0.9661398353719747 0.847531761218063
Ni 5.415218047541076 0.8927628605304556 0.8400583901488615 1.567753292522526 -0.09564606604109979 -0.7242303953535398
Ni 3.172176083985047 0.3516940129267107 4.500840551505539 0.37541834254357925 0.3472927879519567 -0.5749251492260873
Ni 8.984142159339607 2.1217767549711883 4.5568873105954095 0.3364131649249754 -0.2078441229036098 0.09319863294187175
Ni 4.929622151802098 1.93037237705424 4.835784375065381 0.6174928473849688 -0.8231988408996531 -0.1034745609465831
Ni 7.219029953193608 8.8813088934518 13.26333260353556 0.6275489460693902 -0.7205580887082752 0.2502025332651627
Ni 2.118049775566983 5.283454565287954 7.890883489697045 0.35980351882445777 -0.9310699882520352 -0.1305927573196138
Ni 7.399982183425002 6.0009350013836125 13.37205062229946 -0.6029134069088972 1.680636034156886 2.6535576683373847
Ni 1.6769654531579299 0.35175582174356257 1.4622812917595176 -0.7254611824368473 -1.2810338952782518 1.78753941827936
Ni 0.9733781630591352 7.800309587497971 3.0703022385379257 1.3503469798517775 -0.027044405712301812 0.8800230489775489
Ni 1.8337661188343501 8.401626348698208 11.612279804953054 0.7336946260902333 -1.256641068256184 -0.080896418535751
Ni 6.745565190911389 1.5580895704782598 8.200187724499196 -1.190336688601995 -1.1273798852638004 1.0245396154671065
Ni 3.8749423315913307 0.5080094332648606 12.497255677079822 -1.369744667652099 -1.4952852072597862 0.1969164202475125
Ni 5.017805805576346 3.6293675995617782 8.337274145158817 -1.6433031020343827 -0.3302330042561925 -0.1447569646351378
P 0.2766267436002315 8.328055406251337 13.103333562216966 -0.37779815562966546 -0.012902052773648748 2.094659233556857
Ni 2.5394106277626936 4.6881249566454635 0.6626956838931525 -0.4296040845573633 -0.9895291608301926 -1.1089533031274965
P 7.964748715913703 1.885731650972685 12.182483668285414 0.4687637854759604 1.1290932684104813 0.17895700755561436
Ni 4.138100288235772 1.4924984230428686 2.43871945251265 -0.5316043749512651 -1.4606817582533036 3.5061293059722
P 0.6092412050324448 4.045922124357511 9.081652486820913 0.2201982735935885 -1.0884083890966094 -0.2760557468828407
P 4.678576878221324 8.153634615173848 0.41650286369508077 -0.4710831776377564 -1.3533294595188692 -1.1435199853587723
P 3.458037249326885 3.122581427358793 6.604844965332666 0.8563370182145189 -0.2582500861599875 0.1893920868460093
Ni 3.332897458193118 3.8350802573201173 10.515714824868741 -0.866628629948514 -1.361980707435964 0.6356188675617183
Ni 2.4186343545947406 6.513136363958549 9.910136022864686 -0.12210091779851874 -0.08529326205186602 0.40852746639272225
Ni 4.17656935782868 3.6956598619345944 2.3310540286745396 0.11690960340556641 1.6386979991622037 0.38928533033365853
Ni 7.8105311052699 8.191042787164076 9.648885836865764 -0.3981463802687143 0.25239851247521694 -1.756461208817317
Ni 5.30575186533737 2.126352452457539 12.28705680624162 0.6046774407878553 1.9200098522376614 0.08518347594687911
Ni 7.268615384623318 4.1853148441534 8.412371857633895 1.082557329632471 0.896712850928404 -0.29824411005442186
Ni 9.026624189429619 5.932161161140175 9.601682351183989 0.8439802964213787 0.1319472144649792 0.5094954588673677
Ni 2.468478091527711 2.638295509529214 8.547486853791838 -0.07430848090558814 0.857421509527949 0.42151950777701597
Ni 2.6740615965344197 7.275377453690848 4.825252890689538 0.38349752000728793 0.1484359561486218 -0.7402272850024284
Ni 1.1713416557196223 7.487068038810388 7.547825183256167 1.1616804583178832 -0.15031517544920564 0.8389789865520454
Ni 7.320931474230364 3.5299661067887342 0.12323847812582982 -1.859079592411192 -0.016724511843532488 -0.6142455440922647
Ni 1.1477620533504436 9.010018835648506 5.528991474011672 -0.6177558712383684 -0.26115646117350505 -0.7384077152951863
Ni 8.614903667623498 2.18669446305879 7.1339884013626085 0.2765753668317366 0.16844788049417445 -0.806898561077733
Ni 4.714684297498697 1.0873001151941069 7.0795209959212535 -0.7369799817097242 1.198882264179161 0.4436785603725585
Ni 4.537615875012775 5.8691530687374005 0.9200426892338588 -0.5300110623222163 1.0207549516136936 1.0720613151971536
Ni 0.2700307280705121 3.5594775105363876 13.238731771908842 1.7201235507285473 0.16366331462133749 0.9124441456207318
Ni 2.561366595539941 2.749615956238478 4.644663210682367 -0.33595525145195043 0.023267969389005088 -1.3519670319537038
Ni 5.946432540195385 7.508378242829481 2.0460803272403356 1.7525397622757237 0.6145959854531479 -0.8961770330295922
Ni 8.36179195001663 8.938431310458824 4.222064337110308 1.6133206967396794 -0.5693651386398065 -0.4043555944032197
Ni 4.667442065991434 4.147565339891005 4.928124902402835 -0.24965488829180876 1.8182738712487394 0.6709044302368897
Ni 8.451885219475706 7.24438079329944 11.606568485772007 0.1481060836130288 -0.5587094586981732 0.6920898060652532
Ni 0.2013712802642331 6.773259230939664 5.49496618159452 -0.6217102279004261 -0.8718284289818985 -0.6784552460009542
Ni 5.507811345263864 4.63935134251172 12.739873733616683 -0.8047894851545302 0.433252479943228 -1.5413753167496291
Ni 6.133104392284717 8.249373704918503 7.499905822322497 -0.4485114629848275 1.3982872551764822 0.039561564342706065
Ni 8.487282298619109 8.688243980156741 1.9168399362422885 -0.7517108601619957 -0.13093574248132933 -1.4320566383174433
P 3.681342356896658 6.101867876783136 6.515299672548366 -0.5895732381565653 0.638185856957946 -1.857961933866981
Ni 8.362253209843882 1.5605065719730662 0.8621352080008496 0.1765813082345862 -1.8550097932171925 -1.0064169377244667
P 7.152626988462252 7.896205505583891 5.454271072075287 -1.1462967767729615 -1.6220781312173354 -0.04677685114422267
Ni 1.297127210611544 5.312809140694342 12.030653538507474 0.2048037934153892 0.5032181104990882 -0.6475809250196009
P 0.5123637260341298 5.20774337724263 1.6409263003349903 0.5087017593214788 -0.5849285402957023 0.06433080086758598
P 2.6685080282142923 2.9668508844816004 12.490274970854173 -0.8000414289465835 1.0803420671487072 -2.4277628744926254
P 5.783238813313237 8.74151026500793 9.43787607125125 -1.6419393889176368 0.32354762181621693 0.5762047872694592
Ni 7.165957397469867 5.685894539369742 4.632106795664883 0.5777986141191404 -0.43132620945479266 -0.7982660822137155
