# total energy = -340864.7599800903 ev
CRYSTAL
PRIMVEC
9.28122826329387 0.00000000000000 0.00000000000000

0.00000000000000 9.28122826329387 0.00000000000000

0.00000000000000 0.00000000000000 13.58401572426091

PRIMCOORD
 96 1
Ni 7.8607364558583095 4.459927280956969 8.450928846382407 0.6430676105302796 0.17166381632831082 -0.8884141012547214
Ni 0.5814104921422175 5.6963354133185256 6.434544835542285 -1.368598726973114 -1.5663895794057798 -1.0351765263556625
Ni 7.2073101276195795 3.7153128829634627 10.964420094891812 1.6071811595008452 0.9327779720820774 0.4735046425950555
Ni 3.576363611482673 1.3269743598085908 12.938503978839886 0.6673077140245669 -0.4620056408165205 0.07265526157288132
Ni 2.505588282463991 5.656695286507061 5.084823112867335 -0.46200872614031396 0.6442351484758195 -1.0361592019839057
Ni 0.5786122017573764 7.130712149025568 8.290393293717326 -1.2737455891469547 -0.42281791487346543 1.8594490599354687
Ni 4.005137804513835 0.3337000729144181 10.45188188676204 0.8975086073568219 1.1571334623771492 -0.03640964897728568
Ni 3.372575677884136 7.433373009555161 11.323228675196315 -1.3403266195012982 0.904324858947707 2.2644127202363324
Ni 8.216541630628702 1.2949077154317203 2.768422463489796 -1.7609321001044769 -1.4072601480990539 -1.8139842427344501
Ni 1.4651625705545315 7.725351176111447 6.38211053527973 0.986898665185881 1.4040866354670787 -1.8244506894834127
Ni 3.8697432435384984 5.865866332620383 13.07202094729498 -1.130710749409246 -0.32642314359179914 0.5306834057988925
Ni 4.424129582733644 9.054107531787002 5.74586190470025 -0.39321140486094214 0.3601184789617153 0.7264376874175037
Ni 7.722752432138792 3.427566956591215 3.7268698686589996 0.5082664715562729 -1.2511725889424452 1.3164937787477584
Ni 8.28544547081796 6.283985675363659 2.060558945883871 -0.3878002611476999 -0.7793875001416577 -2.2335772229127144
Ni 6.703766358003738 8.356279806529763 10.683420693497146 -0.18684720893696852 0.7454718212308195 -1.5251112894822831
Ni 4.036814637294807 1.3663917371366858 3.8541517078254146 1.1390724911103802 -0.5661743996166507 0.35055140409857044
Ni 6.270602143904484 0.3709113022342986 4.358322888486082 0.2958540125556905 0.5413241733421903 -0.4403777781340996
Ni 7.899448459822398 8.944431254912478 12.72898395853595 0.18456046978532084 -0.8642277338165052 2.1354389865773804
Ni 9.225838102237143 0.2591114802849768 7.735730373913663 -1.5874564273784082 -1.831607355132852 0.014983103672393552
Ni 4.389027976645851 5.149884524468453 8.455384764172663 -1.0640731547853544 -0.6899887005618504 -0.17445037793451246
Ni 1.3122357689922464 4.361230697366914 8.233924443437223 0.3293727131384263 0.2427954421678141 0.8657040612517154
Ni 1.442516373078536 3.0276852277988953 -0.002282254081699697 1.478945332449182 1.2590676754198058 -0.009656549253157561
Ni 1.9924570038347464 8.56496822876245 9.736873679477009 -0.2370904213632368 -1.2848805227178517 0.5942896697956281
Ni 6.397365162399216 6.081023771099287 7.576566586817005 0.3698249076162018 1.3066261419250593 0.14501561761316314
P 9.051573756413664 9.128292390977833 5.481503745959052 -0.09901061163795852 0.25183492666226304 -0.024202308277816387
P 9.039888689765188 4.7843154973436555 10.164769868294552 1.8389735656899362 1.1177642165509074 1.0197272816801277
P 5.91333981626371 2.3809042591473832 5.331563643719625 -1.3742808649595557 0.6642804971624688 -0.5530669157004152
P 1.6263311030015228 1.313572265892469 9.681559414019045 0.3116606405706439 0.6293142654999291 -0.25904301437492805
P 5.865392989968222 5.400876786084577 1.2910606462293432 0.3842775927064221 0.46679946266073796 0.4138069696241067
P -0.076373372864947 3.4354931257078136 6.799574623292757 -0.1261421777474279 0.22274983637084864 0.03762398100036101
P 5.857541070679414 2.877774825490585 9.599959781400518 -0.9096239025631172 0.8190061429745442 -1.8375208924038096
P 7.558066314100243 8.038611199558085 8.484522252843211 0.5158558538677568 -0.7684754812148442 0.48513425641418384
Ni 3.8678869978437445 1.9442967092843613 6.806583807036147 0.6131451119392344 0.2906655263762155 -1.2199264864439698
Ni 2.1890148604522177 0.6643930278033352 5.400692089637949 -0.7527323594479747 -0.3175937182256272 -0.7067486936290086
Ni 5.225210974761559 3.6407938995475746 3.122001071549332 -0.6239041502279513 -1.6650800887001582 -0.5259101527799652
Ni 4.183996358431829 9.31909588594157 1.5299817420924837 -1.5799467492649244 -1.0910072601720373 -0.33620182024511774
Ni 8.854598244514872 1.9873244844887525 0.4359263076930475 -1.27196869975219 -2.5047419602518413 0.27412227730555366
Ni 3.734404369934005 4.660476065818162 10.930527832874152 0.6407515608025932 -0.10654111568704876 -0.47425360494593805
Ni 6.005855101690235 3.5573742180253425 7.477376241872145 -1.0942545634647411 -1.2187314376946043 -0.6892775334274387
Ni 4.664225682121564 7.3774721704576525 9.405151436350351 1.0886428737049185 0.8729851682941611 -1.256608672356352
Ni 5.266438191642038 2.557191912778144 11.565512360135504 -2.1904353974179176 -0.729651309258795 0.09731085533803241
Ni 1.2316097372406185 4.914401195631997 1.7911471582387055 -0.2736653922737932 0.44790416841813185 -1.8165766860519748
Ni 0.6348369557286192 7.501803507092257 11.997864466743302 1.7379029861991553 -2.043100130532643 2.109185195087174
Ni 3.4094685610673663 7.957595356210558 3.3315610011357055 1.3598718886230774 0.30103581386694606 3.565916710443478
Ni 6.8495187699558 9.246702303846174 6.734330371490706 -0.8059973894197021 0.016943569832874046 0.336632222914317
Ni 7.810228010504061 8.016614688075252 3.5450747340519047 0.4353942088765792 0.6780271573246001 0.8313559227891488
Ni 9.018486176904677 2.6246942874678627 9.50612192091648 0.9471098153237173 -0.8243645790729803 0.3018045737121705
Ni 7.299417038993259 6.139189229944395 10.40549245060445 0.01069964580569125 -0.2620748592227164 -0.3351420115220357
Ni 5.843906946051447 4.66071737775848 12.777396702500821 -0.020508918586629198 -0.5944457357575182 -0.22279071691111307
Ni 0.9457850251624409 0.5009765818199968 12.51413929745661 0.028435115412241353 0.7647823486339732 -0.722173255714195
Ni 0.8255392853019898 4.325878498110329 3.938739896012494 -1.909345173434963 1.2132619299396008 -0.06185842806769346
Ni 5.2594772702867125 7.620287669788387 0.07393612226773535 0.43889425161003764 0.8803053561046581 -1.5607583492619315
Ni 0.9346011448515498 6.9679472452810876 3.1188083289543553 0.5870165331729826 -0.8760339824228138 1.784554110398791
Ni 1.8991620952164245 0.9033967265998925 1.0676707580942069 0.5865830451799898 0.5274615564274852 1.7497498582354123
Ni 2.0879051574589824 3.241877418516527 5.301325401352087 1.3358827247973315 -1.184120018268322 2.830007078979797
Ni 2.8131403503992605 -0.08292592016742761 7.677060944362429 0.7005914157783611 0.10193678414581799 -0.22918453625259883
P 5.348874062946051 6.880128261462289 11.427907010537714 1.2568279874560095 -2.0922228562012224 1.3899039162087934
P 0.2070410041785929 6.443483586685372 0.22928068384743716 0.7268601196669031 -1.0894555994142012 0.10012158531395016
P 8.429796417270484 5.756774773139708 4.160118541937365 4.627201246740102 1.8969593981761006 0.7684883367306506
P 3.4861964768600116 4.394216183362688 6.500440629583195 -0.12388783449561244 -1.1246226342336372 2.1548027358159727
P 5.504956482189418 7.518815998884675 4.701332961682538 0.5996653322852447 -0.5156028573166862 -0.7231351054068321
P 3.45168886939454 4.9535958234767214 3.3094326962085465 -0.3303142511160892 0.795237836910353 -0.6740506891753553
P 1.645617495770014 -0.3118037986991033 3.2779591223311497 -0.4834771804267351 1.8731155016789676 -0.06011753411718678
P 0.6345056158721056 2.743085637879255 2.224464512607777 -0.6323332548319109 0.4864403768201171 -1.2245938100126523
Ni 9.087000205498038 8.663330688127449 10.528196787887603 -1.7790709757970329 2.0755834478723285 -3.2904132365196817
Ni 2.681838811180856 2.920607694897027 2.9985087579687564 -0.7322051860289003 -0.20927802713665894 0.011803163282515156
Ni 7.803805400400213 7.286627506156406 5.889336703184849 0.36675758154478777 -0.6364423919042781 0.14725530557695932
Ni 7.337832043646188 6.300664042931021 13.342655072730139 -0.43833169423834834 1.9675492925795213 -0.39147770999928705
Ni 1.343132978581422 1.8976121300613051 7.611124312916235 1.209687325214465 1.858915556029502 -1.2498291875406733
Ni 0.4682732451698258 1.9259662830486683 4.2142503788877725 1.7986147022569154 -0.9806267161342401 0.6166875778748541
Ni 7.64521704946893 4.8147208018237215 5.820493190980671 -0.03465127152528226 -1.468090392012549 1.7410703281835433
Ni 3.430908198841772 3.999949597796998 1.1534460154030814 1.5332830266597983 0.7227196151359682 1.1703011101073586
Ni 2.844325278071123 6.915146336493818 1.5698232715618303 -0.08892854481160813 -1.2061839400468968 -2.6047560734536495
Ni 0.3018970154262027 8.614121614759528 1.5062227253224836 -0.9681676644352809 -0.6474456849933172 -0.6705043665849937
Ni 6.580687987213093 2.3796884182173197 13.437757036532304 -0.4618997113662755 -0.9168857263318532 0.6208800186896468
Ni 1.4545262827235925 5.20198934112019 12.087818133111067 -0.3135509156148213 -1.2605257480225711 2.1566737275864405
Ni 4.040360066571786 6.752437120120181 6.3749788393204865 0.36115463353571353 0.768461083037141 1.1707109439512677
Ni 5.292713349451278 4.908683958892155 5.568210838606692 0.2315046997453432 -0.22881661139021886 -1.0787173870610907
Ni 7.557212441080656 1.3119387696810858 11.137263484635957 -1.0304076442121093 0.2488912706529068 -1.0940167364223223
Ni 7.706844406534753 3.652813090421105 1.4690161366168402 -0.85023296219931 1.375378726009425 0.9326154783622842
Ni 3.261451529367705 2.8884296757784713 8.813133428185463 0.6636541764323797 0.09695501466051044 1.5860616039134103
Ni 7.979712523663549 1.9036078036553599 5.609411139924599 0.12452263986613392 -0.11821495248055124 1.403833381805692
Ni 1.9766139468300234 2.790726183635109 11.270780453091051 0.1280316814606569 -0.36012207850614103 -0.9376075322602369
Ni 6.942442429435172 1.2793523765096841 8.710328972872919 0.053249603352759904 -0.5443791581184303 0.08658678405230893
Ni 5.534674975762425 7.626830935862394 2.3206523801413725 1.6995632100786924 -0.908119550103449 1.5599067998949134
Ni 6.649768170743353 5.350869527067911 3.5624491937547993 -4.455056119899999 2.117205751398805 -1.6078334483728633
Ni 8.614000958789369 4.461570058396826 13.07701981695095 0.5192070297281768 -1.3791394786034377 -0.905950310366272
Ni 1.9701078056699117 6.084207232465789 10.221795592283081 -1.326220262006903 0.033607917862432446 -3.3051518282814367
P 4.914345508261153 1.8845627228271866 1.5326435984187605 0.5791222180265703 2.5803491053641947 0.14241031877983215
P 2.4315797666141603 8.39619837019544 13.295722684706835 1.2764380483774536 -0.5237283146372981 0.4502269030140375
P 4.886566791439164 0.36177764529326284 8.324474892795852 0.21635010349209194 0.15550263318741606 -0.5797225706147306
P 7.400406086016335 8.744810592898663 1.4280738534505046 -0.5870633272505179 0.08635847009158676 0.46472972461590284
P 5.870126416489843 0.34818435807058135 12.204749546283535 -1.8470560855877545 1.1695413491231987 0.8426034706785102
P 2.896940562288917 6.807372711456417 8.326390538352838 -1.4044501894540844 0.3116475279445214 -0.3645664874307399
P 3.493018179788231 3.5748693336983965 12.790437756629313 0.3336165760164448 -0.22818643400538766 -2.7385367415829416
P 9.148711093620125 2.3542207272852984 11.885036284679087 1.1370629168795192 1.519281055953751 0.6457680401805782
