# total energy = -340891.08946708683 ev
CRYSTAL
PRIMVEC
9.05168603719062 0.00000000000000 0.00000000000000

0.00000000000000 9.05168603719062 0.00000000000000

0.00000000000000 0.00000000000000 13.24805747387803

PRIMCOORD
 96 1
Ni 6.35531561708698 2.0156204352816087 11.645983668434681 0.2575959975157564 -0.2291724520677408 0.08285611336528312
Ni 4.711475089826879 0.24854301050413138 5.887052880501887 -0.6866696634909464 0.045907046944759645 0.5801439744228654
Ni 2.7659871193603713 1.609226879163437 5.03614278142226 -0.33915756043933204 -0.6838995569449771 -0.9816610709360254
Ni 3.422650747713021 4.34307146076459 4.762080351964436 0.035853262253183416 -0.20023905686284224 0.7151166059777297
Ni 4.936328027161924 4.4107780736733355 2.762167307776483 1.889549993085907 1.0645470090979796 -0.23700531784859827
Ni 7.212392629986757 6.007386902249234 2.3749922918358304 -0.5027092891834697 1.4318913163841727 0.30660430909365904
Ni 5.0543077053240335 4.667393377946453 11.15538137026419 -0.49478720612291555 -0.09932788576806119 -0.2783530275574496
Ni 5.785475762934956 7.730185288386738 12.384562341552071 -0.8398153664104117 0.5854165356757144 0.8102188837002176
Ni 1.9419035027242801 6.5571863231151655 0.44322305700093945 0.4553115166257965 -0.3796172111162753 -0.13888122258065116
Ni 2.6633953077684307 1.5937937541621792 0.4582398044361812 0.07591490616075958 -0.5674681787274098 0.2069277817369275
Ni 0.4894319151425362 9.084453321854904 4.480082309199513 0.6456898786444751 -0.19209560182010144 0.45371897532769606
Ni 8.552485722837933 2.402996398656295 1.408122850957894 0.4011427438928769 0.6873772310809323 0.060522482865089315
Ni 6.846586834868962 0.5939426842126392 4.751548715050088 -0.1257968785928672 0.2418472193219319 -0.3779966447937167
Ni 0.6548270412190684 7.428954222746346 2.5124548194130187 1.4688828060068573 -1.3258698206460198 0.12939513746708683
Ni 7.393435406027909 3.9993789350767495 3.839287191955195 0.4535623951451737 -1.1820101710141706 -0.5912092310980914
Ni 7.820928442719648 3.763926473180723 12.40158675299041 0.10853372063704535 0.46170276486412093 0.0755194704945538
Ni 8.245696921859846 8.69876097211672 6.61924649416128 -0.8702705975764753 1.2305402574040742 0.38476687363801476
Ni 7.0574096585665 0.5647672891955982 0.38104340369675055 -0.44186721819543257 0.9021149957805817 -0.04539411186408311
Ni 2.034085875165812 6.5171869217189435 9.201862743785297 -1.1113284882278927 0.2048467308381827 -0.0029390280236659063
Ni 0.18735089616629866 4.966977036695214 1.100923103425521 -0.29195082084654234 -0.07869992510506445 0.5822581925523909
Ni 6.459011734397485 1.6814683868672733 7.048801504973422 0.061529841083681126 0.6483049476698189 -0.8073479899103256
Ni 3.5321489958891026 4.475325648092086 0.8211237152428884 -0.31612613254116523 0.05162672303735625 -0.6903273148481918
Ni 5.922635964192472 5.623776440341129 4.754264220915411 -0.13861228518998062 0.5938430691765128 0.9420755953339194
Ni 4.819660843501388 2.5501949199292913 9.680726815268613 0.7984067215566378 1.6933172291689804 0.3402893600509301
P 0.4136946462214063 5.7327858974614525 12.19084992031194 -0.9495017125946615 -0.47778990023397067 -0.09722883714718739
P 3.989711734196196 6.1971011936869855 12.698290165184684 0.12038624910025718 -0.1804384771971473 0.20020408985984875
P 2.591968451824192 8.37338000764738 1.6618235122688976 -1.216473494898363 0.4102292795751774 -1.516609679769175
P 6.3531613157671565 7.786061347408888 5.951013905653729 -0.3867617925808565 -0.31726307435908585 -0.9039307088330819
P 4.616658676695983 1.1638748655640836 12.698978998505854 0.24270031135084655 -0.5711589973154357 -0.8342743819875245
P 4.241710678498263 6.318900683432985 8.362399407096632 -0.1302546572539047 0.48629073861613026 -1.240295022797993
P 4.616025058660742 0.9122289370245085 3.6987778667971134 0.954123527637389 0.7146121555374855 0.3502161322463388
P -0.0040451985707109835 5.537432405510044 3.5857720902116554 1.3269270582659405 -0.8334446869973776 -0.33728194068317396
Ni 1.529653505623226 1.1936730165929055 2.453897650933172 -1.0276663340215464 -0.5939168598372416 1.1704834013214938
Ni 1.6509279975685958 6.1859676196391575 4.938531207587324 0.4270383807127161 1.112068965938343 -0.5762644368628012
Ni 6.1605052263086355 5.687735655155728 9.13458880147776 -1.1270664677884394 -0.9530068975344426 0.24737174868458686
Ni 8.648171097845733 2.3847481992413178 10.22004166798853 -0.11953495684355545 -0.12520012554913273 0.46392908309147846
Ni 2.4037567402985855 5.2158622009383775 7.0899767204093305 -1.2516171326790315 0.05467913671043487 -0.9908339956845451
Ni 0.5031461249310442 -0.1324533244242869 9.13587414092068 -0.1790220564655949 0.02820988677531271 0.29963019176867106
Ni 1.5860455107597877 1.0753493743545213 11.33518406529351 0.009386840531538673 0.4914352589315471 0.767914980725684
Ni 4.305090585394925 6.761926413674377 1.7470614310441743 0.03751625177790313 0.5583160799144965 -0.6757507025855974
Ni 5.827538948788825 8.31300526057501 8.109003787611167 -0.4627862277362869 -0.8261319553860482 -0.03708996287376193
Ni 5.168748174175006 2.668708647578248 4.73505473242411 0.32534790824974935 0.4813606483043646 0.914140045265916
Ni 0.80902613661287 7.26071053101709 6.986919652145797 1.0054458320604491 -0.23661682416092797 0.2856014815897469
Ni 4.851622347536251 4.558347714081259 7.003228075204311 0.11747627454231381 1.202530916675342 0.4445846171265956
Ni 8.097321681378544 6.877941875927236 9.276356311020109 1.3169190392106354 1.6247343378932597 0.08473070468017666
Ni 4.725188394446766 0.34015874738843244 10.683472614470588 -0.647271364198982 -0.5972554372921713 -0.6172516779084402
Ni 8.004170778511712 7.103699981884056 4.507943399377736 -0.26027611545108076 1.1885436012573145 0.9985874143777188
Ni 7.186966443401108 6.106032178650237 7.0139588492154505 -0.38956918012266456 0.5378572978395124 0.003186368147781609
Ni 2.2100053968077185 5.2938243743318285 2.7021926452349367 -0.0692547205317646 0.6935401653585346 -0.0909751429279917
Ni 2.5296475922150066 5.377950746039566 11.342403690220783 -1.5423824178579049 -0.9310818153265771 0.46542520802103066
Ni 1.2561387031815754 3.332613624905095 3.7514523444040466 -1.6663291306159107 -0.04571884219335352 0.6181762466052386
Ni 3.5099542612831875 2.6969680119500534 2.800096588534706 0.10242915040120423 -1.0960443083753124 -0.11490311449849888
Ni 1.0739463629907704 3.2876086410304586 8.416928575209582 0.5906847260531892 0.1528166017148207 -1.1496248127049298
Ni 3.37995394382391 2.8015692978823337 7.046403713294341 1.2052969094562533 -0.44824818202111194 1.1223474650462155
Ni 3.9713730179190416 6.928785197412319 6.057303331065619 0.30456619561770776 -0.3917777577382091 -0.7020086078408619
Ni 1.0896962970096498 7.690837608398193 11.298897665583807 -0.5044198441166732 -0.838938363122097 0.7365938020148992
P 0.19505931214933167 5.543162122885878 8.053971345744511 0.6332105152305417 -0.9938110760349981 -1.344133394841898
P 8.526498331706783 1.4062247123580325 7.954677063441695 -0.25781274151225275 1.0975725720943807 0.24918566196487407
P 1.9848718571999235 3.3310657865618607 10.629512797420736 -0.026817634413476395 -0.4516587503645576 -1.50137563642824
P 4.018441786251324 6.2223010881171925 3.8816146870466217 -0.7333727239744402 -0.13820013735322648 -0.27591253643675706
P 6.693975405237753 3.6756725325576936 10.1618302739222 1.295214814764324 0.1807809481382306 -0.0790213130002252
P 6.508750750164003 7.913500037668543 10.316540789587304 -1.104997146693226 0.386978793687669 -0.9905910264358037
P 2.235322963158756 8.49223769937261 5.746225841157564 -0.12158669716626157 0.22029571840340123 1.2254286472091216
P 7.114688728952401 4.183861351880644 1.4317839587310839 -0.4785465758943371 -2.3053819635598423 -0.303958901051012
Ni 5.367188291126665 2.8253390258901367 0.6237182060259169 -0.30552547420718346 0.779390071244819 -0.9360725836729491
Ni 1.5722597926501596 1.161566685578558 7.248714331272709 -0.935128474592125 -0.7567430232692645 -1.5285290569145804
Ni 6.732571795270225 1.1038169275093344 9.355275247646777 0.7468884990726878 -0.5573521733393304 0.5857088701051526
Ni 2.7072145207485425 1.7395983157576422 9.256338506949561 -0.6292245339996002 -1.114912606034725 0.3755960057720241
Ni 6.27879266180215 2.0633047182766986 2.4633964904500747 1.4159340217239678 -0.233547698317301 2.11932999683066
Ni 4.099671618369382 6.9439286684546095 10.60011563609136 0.7746620696415304 0.9306475560026359 -0.8132360732599866
Ni 8.31477033938747 7.225617143550886 0.15067708428647625 -0.612836322449564 -0.5472577652178058 0.3269278511423595
Ni 7.807866859507439 3.821612869446423 7.960452944417239 -1.002846703874705 -0.6945498375699716 0.34964406179295265
Ni 3.312962414126367 8.34598055346626 12.7378487494621 0.23378732513193282 0.42846148631248787 -0.34092056587702574
Ni 9.241771628319341 4.799022998924925 10.012510942568388 -0.1904477818040333 0.2292285021166568 2.56549095730544
Ni 8.601247156492935 2.288628343295066 5.539066234872348 0.3199339363230297 0.15775671932891538 0.6740411760936585
Ni 3.6145283921568145 2.970600486312535 12.1010408999967 0.10988020736261077 0.7169590585031071 -1.4373417979757825
Ni 1.1943428413730188 3.370268639570921 12.707749177282228 0.0857797147699813 0.43897498424930204 -0.449178150034549
Ni 3.167818625624799 8.207453547589866 7.94038264056663 0.3731848252273702 1.132425675217824 -0.7250793736173964
Ni 5.56946632303465 7.914785377111464 3.5658475185091514 0.11563870711294277 -0.1513526155747845 -0.21026378808869592
Ni 3.0672000816283274 8.474016655016287 3.724452974753752 0.03483253429815291 -1.1151409199954474 0.5463247118805752
Ni 3.384117719484073 4.542127092379057 9.06081031745415 0.3934399759319805 -2.007960863627348 1.707166219236931
Ni 7.111891757911117 6.077926692944133 11.442214823806632 1.5710342772666428 -0.8157256724510596 -0.5249932973926508
Ni 0.8338621532571233 -0.15862084411117072 0.38210878716457936 -0.11250864612439333 0.9717515251317975 -0.3526206279227733
Ni 4.6673300161429285 0.5478551186663603 1.5297404018109164 -0.19941861784407588 -1.7545351954391977 0.16480925530032262
Ni 5.836002275402419 5.154844784144547 0.03427692536936306 0.11612953070643225 0.9872092544477643 0.8254331295468107
Ni 7.958486918170744 8.909601899186693 11.513754825828594 1.0040594932358837 0.4276629016705925 -0.7028964097624539
Ni -0.3304580552688734 4.877401549884393 5.772298318139161 0.9439293607132065 -0.8691796785051419 0.027528287327255818
Ni 7.95987182616206 8.746327583190979 2.487931991111899 -1.5005909357434157 0.20712421401844974 -0.19921164403959238
P 8.316408694592882 1.547132311709695 3.4347447056685523 0.7068623363887374 1.3264130947439994 0.5625522294830312
P 1.809169576027243 3.345023486709626 1.6185021420307621 -0.5193744085439764 -0.2162050932737954 -0.5798182156523305
P 4.496660472507315 1.1523792240675452 8.12409294853615 0.8676976946429765 -0.7826299183383554 -0.8634803141275195
P 8.8353418654563 1.645533192582819 12.572314227417817 -0.7694674128144684 -0.46176138601619826 -0.6901835901814758
P 6.3552432035972375 7.769279521161185 1.2393098081655407 0.26656503378358604 -0.41680461879984987 1.1041985620513304
P 1.736466432326302 3.4009448041628643 5.934692810234511 -1.7777034060255446 0.0532881699001792 -0.18688808947723298
P 6.5277773945937065 3.81362928220237 6.052507747707457 2.314076663120363 -0.2063433699883672 -0.5101744872122633
P 2.5338294712476053 8.575513212575881 9.958777417673977 0.306526147557556 0.7400555353112545 1.3284180409891704
