# total energy = -340889.3978584834 ev
CRYSTAL
PRIMVEC
9.10765704670373 0.00000000000000 0.00000000000000

0.00000000000000 9.10765704670373 0.00000000000000

0.00000000000000 0.00000000000000 13.32997670393128

PRIMCOORD
 96 1
Ni 5.9902880054349 2.21857054125754 11.184689763246286 0.8348161134236074 -0.7461783603795408 0.6119140677456106
Ni 4.5288916167344295 0.12096789711151607 6.175804598315009 -0.2224415611018105 0.8318524028095932 -0.7885848503702098
Ni 2.6530330917703124 1.6731311931010517 4.596815610098981 0.18164201058694524 -0.17956353079136173 1.4670359826061057
Ni 3.5550007715280207 4.10279900278584 5.023868171070275 0.2554354995293278 0.8024963182449792 -0.8919550245284444
Ni 5.3694281516331435 4.74887795816129 2.6157545418781925 -0.14416201136361623 -0.23356466759816552 -0.111776138833743
Ni 7.358649680312592 6.200019125347865 2.6745927368570754 0.15303668814542673 1.6032972510654064 -0.6540783598184864
Ni 4.913972452284197 4.621962761184255 11.56582060805842 2.4689182656850126 0.09708768358363279 -0.19655826557714534
Ni 5.968138184189966 7.994773966847289 12.547373724898613 -1.8585496880496508 -1.639254642996622 -0.8642665574742405
Ni 1.908691627590756 6.7684279838578565 0.24146674989979444 -0.5690720328794199 -0.8711306315839256 -0.1295442614504414
Ni 2.8263700152627367 1.4900035385895887 0.35902382955398005 -0.13076759233458124 0.9485486046527728 1.1999464437776173
Ni 0.6671048917759653 -0.09809766021671648 4.834183003690247 0.7627830588157573 0.7242437650899785 0.4941732266880005
Ni 8.941615071470864 2.300712497593089 1.7135555276387315 -1.576649309460575 0.0037838925224644507 -0.2338469747252747
Ni 6.685147570427071 0.9348372130113946 4.977480142884906 0.9972548116092245 -1.4403972969726548 0.45322943728578713
Ni 0.8755481890227975 7.39594553475256 2.4637659658356545 -0.4767036091483274 -0.16488510284358054 0.3996347918887827
Ni 7.616223321195801 3.956047329381394 3.581897503477255 0.601691361576338 -0.6798595825476486 0.43894310257010216
Ni 7.669758127642233 3.760852029660417 12.532377057274473 0.023044026303657088 -0.3627134933824011 0.5742695179199594
Ni 8.026541473632786 8.818342937198588 6.870829922660246 0.3550621474847304 1.2212691165147935 -0.08731286358505609
Ni 6.710749193584762 0.8376794629725058 -0.09459121236338613 1.7494402974147936 1.6078067088999857 2.3750336624197095
Ni 1.969977049941561 6.475707895530487 9.391848440432538 0.30566508510884133 0.2819492295491402 -0.5215919850205856
Ni 8.917789441381741 4.798569333454201 1.6052090212678525 0.586775363696454 -0.49396548155256864 -1.1447839396728607
Ni 6.463139329199069 2.0790685626355634 7.415305680731325 0.8199289118991299 -0.0902107539581414 -1.5997565849019997
Ni 3.444971170187543 4.384134520160839 0.6443485005906896 -0.7500573837189728 0.11274210229143809 -0.4098590407199522
Ni 6.17316064555703 5.915013222297821 4.751417172866508 0.3057221635990219 -0.5671357350886556 0.7116828977058324
Ni 5.33389007494822 3.2451947191153323 9.22596977706243 -0.3353237885155386 0.05810770277600961 -1.037954860431748
P 0.17762571906160116 5.371113068134094 12.80965420279637 0.22801108476978796 0.7265004223346392 -0.7947092181003925
P 3.813958776239039 6.04458785504933 12.543561259778084 0.14505289860900178 1.7480292759998797 1.9006615296180362
P 2.4425460363461107 8.579731437693647 1.3476335588532906 -0.11326429334349525 0.08715808317474667 0.908537354367158
P 6.339366273804889 7.891884768408139 5.979307814442758 0.15994807055327936 -0.46681874593444767 -2.109602742240567
P 4.7899261671871605 0.8747530905874839 12.450957338120142 -0.4941706555848393 1.7609045893006512 0.3341400526200826
P 4.0789096190993845 6.236012584870881 8.170181971487368 0.14085145893314452 -0.5951579313331944 1.8175205380224828
P 4.6198406771587335 0.9647194348471787 4.111404827660157 0.3950602851442228 0.6638038146363665 -1.2922395341860842
P 0.3110984289072018 5.499276014087509 3.645722140533277 -0.3051886596930551 1.275943625239538 0.25419699913653643
Ni 1.382769987875013 0.8664824274820051 2.7774209139959214 0.4106913068132605 0.23231948233715474 -1.105541192122154
Ni 2.022856105101135 6.270995094493328 4.8542972636488955 -0.26727568669736546 0.4131521096489272 0.25991230435375884
Ni 6.12562778491669 5.782278232649935 9.327730536828783 -1.4974485334596919 0.030542905783863525 -0.1790840200517819
Ni 8.472889516219835 2.259436597148172 10.333384334992308 0.363627006335606 0.8223809729840481 -1.160886501661678
Ni 2.5137132662835744 5.03310060272981 7.240376738836922 -0.07754807088880838 0.6091868986224347 0.2979306925790611
Ni 0.6143287531378008 0.05381441150902085 9.15825343827205 -0.2545777795147229 -0.8886773822184372 0.3732218491128927
Ni 1.4221697110269798 1.4715605336467472 11.54698506310914 1.0860933678101874 -1.2859902108422627 -1.1063446618600559
Ni 4.215050872376222 6.868420947446723 1.4350515807510067 -0.10250139840003637 0.32611718231560605 0.13488624248864514
Ni 5.58425955933277 7.9904387222286255 7.976804560056066 0.704444213865548 -0.281108993036032 1.2997271008123807
Ni 5.725136794125793 2.9672381423989975 4.647682783879853 -0.8015015584318776 1.1485732315119637 0.4228014598132332
Ni 0.7588745520745158 7.325452271415478 7.099478556433347 0.6115250598373081 0.13128386984936746 -0.663652890880799
Ni 5.2278040889856445 4.653302208101943 6.934040703650516 0.10136111414800608 -0.3400271075284789 0.27630180145537575
Ni 8.071688128201508 7.474499074323923 8.85297024820732 -0.9380111954565588 0.42498895438285517 1.8196406696892793
Ni 4.272966461725124 0.38015268247590495 10.309950334143947 0.8499845936339298 -0.03070179995923099 0.7961580347317772
Ni 8.392086385428284 7.249886043262018 4.768319162285236 -0.5642872098962669 -0.9631136469511412 -0.15546098131620323
Ni 7.440882713215761 6.214290823493757 6.9011019522054395 -0.11867620838768594 0.07292522740481634 -0.31166269745317293
Ni 2.483266369728552 5.390721853142458 2.518605899496065 -0.3603449931502246 -0.20417181625834516 0.9909288693911966
Ni 2.137812948749799 4.973664034701671 11.683870411943424 0.9985138808273062 0.5311693442963754 1.064787664353876
Ni 1.1779387872999496 3.49214883221417 3.72212900540586 -0.4313904870338247 -0.4407202490751829 0.7544110327019782
Ni 4.1011231939416515 2.7327341960936735 2.6859372341196943 -1.7809635648340556 -0.24012200910070902 -0.17123701320353735
Ni 0.8647884033242924 3.395908223211204 8.226128485444349 -0.6161620443886872 0.039762110389286356 0.17625477813310292
Ni 3.9181412619383784 2.487082477911787 6.936933295438094 -0.4644990966623356 0.730467120291871 -0.655895101312251
Ni 4.125395099212107 6.740604092450261 6.074136736647629 0.09704217505767804 0.7597000490150593 -0.6077640501329791
Ni 0.7202772134832724 7.21709847891919 11.281625286460187 0.05287370807057991 -0.6930205454096388 0.6598011212348766
P 0.10019515356898136 5.7848556995135505 8.400537380137648 0.5712929517901387 -2.1676762493445314 0.028114498848029
P 8.516305716003798 1.5030457030726252 8.145015694322895 -0.19799705490620095 0.8662738177122564 -0.5108458022476751
P 1.8917878166406752 3.289266670186152 10.208442767235576 -0.2800787519993047 -0.2650809930388918 0.7416383064173421
P 4.2122092834665095 6.05528935174456 3.8981381153922245 -1.61803198617242 0.8315420706580259 -0.6492660260315076
P 7.02707632823897 3.9954743755036457 10.435078608864297 -0.48166558113929303 1.3829377693036053 -0.1508219398822951
P 6.195401543369583 7.734185691575891 10.213014810930048 1.2128919481946918 0.8729802831981547 0.6647942035740938
P 2.4190573895571785 8.366557623524686 6.146478854307376 -0.31995913313401025 0.007626406197006219 -1.5524392878732747
P 6.806871403049824 3.623563211631582 1.337663406996042 0.9556595046659412 0.17904596772499487 0.953797254646222
Ni 5.190153035931963 3.126685889329529 13.415821584709835 0.9427952471087633 -1.8397664939048768 0.4810667712130296
Ni 1.4393649669934414 1.1799424717875668 6.99606475696471 0.9623921954040846 -0.9153975718221008 0.04444486057693636
Ni 6.899386980437174 0.6215784479202708 9.434797417424615 -0.9856442239534896 -0.33267966602447224 -0.5244052860996645
Ni 2.547557318810784 1.5348860711122172 9.13437953760209 0.2267173056590289 0.7332274566458276 0.08636284096696094
Ni 6.190711100137206 1.6326203358241338 2.437826448612096 2.49951799284874 1.2959912879190325 0.4301581572886205
Ni 4.1222256346589665 7.153363096899434 10.68417575359921 -0.261214310994634 -1.147049595778586 -0.6004847428627464
Ni 8.100322601060913 7.104764640417951 0.13253006737074433 1.1292750454039842 0.4186635263854596 1.2089959555743952
Ni 7.457039696311366 4.259286761268755 8.19245656762994 1.6881341423061442 -1.2518521315079731 0.827891104169
Ni 3.249757655153043 8.610542640519146 12.613156508158443 -0.45110442052298433 -1.905641499331131 -1.2056571210091493
Ni 0.21907466498499445 4.688211856470294 10.577602507999872 -2.186512151104112 0.12736987950694192 -1.4665598143006355
Ni 8.85906327058103 2.3288642646441122 5.947582202878365 -1.2524483703310751 0.6288111006112654 -0.35370794744968115
Ni 3.607187644773691 2.6575960278080233 11.664822658591595 -0.825091687046992 0.20058075647297716 -0.9482341587361476
Ni 0.9698743685744124 3.250996296472661 12.986649672010047 0.23832866464571212 0.12353379359030338 0.7216711192667958
Ni 3.289876883189199 8.455147800847659 8.138763287955852 -1.2730123105253561 -0.1782952056018994 0.9375373411439337
Ni 5.69285925856163 8.145888207840684 3.5830842311533306 0.31812799346254245 -0.7035744096660851 0.39613886292038225
Ni 3.068005256812626 8.26128221901392 3.6278064689169494 0.23922777942121382 -0.2761866160337501 0.49973915081155224
Ni 3.561130224528778 4.594011362581994 9.800531768480761 -0.4042134123984006 0.8592199961892686 -1.980183436403764
Ni 7.173418157089131 6.17292384648122 11.576991149076887 0.666514271588994 -1.2530356102931128 -1.6762628447898549
Ni 0.401282446163506 9.098503566851301 0.17536155559059355 0.5458205185506472 0.05425104803408077 0.6454068001864175
Ni 4.544192480094417 0.2560608590950582 1.8635968866655752 -1.0850831813781183 -0.5618904275293162 -1.4355448539763598
Ni 6.051509674188372 5.674097485632122 0.3401227094760152 -0.20217946841866472 -0.6502240190694027 0.48029955402970187
Ni 8.106406515777861 8.712047475130488 11.345969059951637 -0.6851162029608975 0.2744873739544563 -0.11499721687420195
Ni 0.29209074924512274 4.801465568304484 5.995942949518362 -0.5357459079234644 0.25962536924095936 -0.0901557323504899
Ni 8.117317488578614 8.97760853099388 2.530296487715636 -0.6240717861540672 -0.09562832542928693 -0.04592941554226283
P 8.478937000309735 1.6913647219383696 3.87371775531655 0.11886801268351786 -0.672774393566093 -1.1049076723032134
P 1.9400857204490152 3.017685453203145 1.7329502827131913 0.6348871316020162 0.4500109303484895 -0.14173463286904622
P 4.731518764373115 1.259434100005404 8.41428083419135 0.3293236050680457 -1.1122535711453232 0.008141655270527915
P 8.539439164179015 1.5227637799621323 12.287905691408929 -0.3489516637116184 0.4127877843309729 1.6783837477875998
P 6.439122438317947 7.895509615799374 1.3674554630298836 -0.44282341146111476 -0.052650793426496416 1.055208248195557
P 1.9400492898219674 3.2546484668341815 6.186042515281057 -0.5804136831444843 -1.0799165495755145 -0.6624676123234461
P 7.19756255516492 4.051623079440741 6.039532194780801 -0.5925464618522763 0.05068287106684819 -1.0742575515175241
P 2.202623034267458 8.646818437401782 10.473921854188113 0.859372462606733 -0.4976804685103106 0.11733974896444951
