# total energy = -381165.2677347166 ev
CRYSTAL
PRIMVEC
9.31575349338659 0.00000000000000 0.00000000000000
0.00000000000000 9.31575349338659 0.00000000000000
0.00000000000000 0.00000000000000 13.63454688836571
PRIMCOORD
 96 1
Ni 1.7293671792781793 0.36602993188181676 11.632600129816586 0.7734528798247776 0.6733436358060018 -0.5303375924236995
Ni 3.3769606736102866 4.615806848008605 12.60059822141027 -0.6170467609864857 -0.502597960416586 -0.8025724228985532
Ni 3.8153134584288577 2.031244174114983 11.729323736111649 0.3979332358166437 -0.6041601348318046 0.2599552417765523
Ni 8.202222925164971 6.8294162142521255 2.3409696913449363 1.8009230386751176 2.263954292542675 -0.24817059043679843
Ni 2.896994417539254 8.591369899561446 4.852317063108613 -0.49519266909145043 -0.3660597841468147 -0.7386463136685537
Ni 3.194688639017573 9.081127012647553 2.290877021181799 0.23101798991691183 -0.9653816170497116 1.2756978277773192
Ni 4.052110598739203 8.356650172299972 7.807195847107301 1.3015250732530683 0.01982680491794005 0.17255907444907057
Ni 4.825448566626331 3.214996981827146 5.994005517094927 0.3311912544044038 -0.2947687499113117 0.754966648095132
Ni 6.147419210240166 3.6865045336453837 3.8348113306767653 -0.5327834828610308 0.4434890700695717 0.5698366789595865
Ni 1.5347424554352385 5.046222610774994 4.686288908037483 -1.1964255751085524 -0.9034077464500764 0.5227332977138803
Ni 8.980628663000912 8.004365634828947 12.968240710237195 0.7399331508007773 1.8049792110223626 1.2370433486299148
Ni 1.5391301753725362 1.0462336533291698 5.089489628288327 -0.8975736562668026 1.9301932205285661 -0.7640637253003938
Ni 6.174136791514412 7.951405575713155 2.5074617709444684 -2.0421277393170443 0.4989824751511858 -1.1217525117746938
Ni 1.253071330118602 5.1963925585228505 7.106489083600503 -0.022717496202173778 -1.0535473155533663 0.032468919161982794
Ni 2.275009498104943 4.29433882338807 9.030801448644857 -1.9236911577439901 1.123088199866982 0.3067143523089621
Ni 8.298445343917303 0.14305084886020644 10.580408120496129 2.7261856762167564 1.0005867041959349 -0.39239199428344035
Ni 9.233514109748015 1.758041068804724 12.062537994424199 -0.3964515090647947 0.19121731298020617 1.5272378489069827
Ni 6.783871494987903 8.07801598265119 0.24362745083694054 -0.8292072518772623 -0.2304937419823256 -0.2038314021997909
Ni 3.2269304621661665 2.8330976637177563 4.2389808893001755 -0.08337470487291447 0.6689357365462931 1.7951329143559018
Ni 0.8736518656128404 3.037941769240561 3.4550900357549343 0.24367964454498037 -0.8927384396616884 0.886993566758111
Ni 6.148145839019591 2.366555408558924 10.281416214543787 2.0148989855080783 -1.0792375212306187 -0.011642212224618658
Ni 2.5852334081515527 1.959652607834445 2.2637439572977787 -0.6175902921947816 -0.0064208159246792644 -1.4335615049977442
Ni 4.17241424050197 7.021488421613497 3.8078152083704055 -0.5321718174189609 -0.627792429538764 -1.1015909492251545
Ni 2.038249620808928 7.776660670014999 13.143880859854617 -0.07279564380548753 0.5055830111868389 0.4717128408019553
P 2.1208151448095016 9.324417233204812 9.487272442605784 0.11103129024791845 -0.4223921401899564 -0.7712458448711298
Ni 7.113779592354068 5.117832808562698 1.5095629050774417 -0.08355931007989481 0.0024065525589635974 2.9997983608757433
P 2.8104603825125896 3.471450362196298 6.575833017561703 -1.489836782550705 -0.07174329128157321 0.48862889983100366
Ni 2.550066438378094 2.0491304209931394 8.574493480371618 -0.35530331696125905 -0.4753044148079556 -0.57298705166311
P 5.270052222098675 3.783444265423559 11.667054444440993 0.5372093798428683 0.5655069412359809 1.3387291931071914
P 5.354024424890187 6.612610681129554 8.293635620342725 0.842369243180517 1.0827625036647417 -0.5519685404299138
P 4.111470580566085 0.9315623161823052 4.090418840620638 0.7561056467955817 -0.8225789479274672 -1.3601313129320511
Ni 9.090051504579467 8.978718933516525 8.518005545374182 1.3284021001495703 -0.7046450170224445 -0.19104350640650325
Ni 1.994102264582061 -0.03037215140461136 7.047574394794858 -0.424832631310649 0.4124802803928832 1.7011791484155605
Ni 0.831110545303575 0.563890016943916 0.19887736535329437 -1.476208393133993 0.15473644444535287 1.485591891231422
Ni 7.975505430230754 2.215956936146279 3.745191918063618 0.07204616723397271 -1.1563567321121246 -0.10928319720856018
Ni 6.371668030475053 9.213932395717865 11.2993309085579 -0.891094219190046 -0.7829266236431678 -0.12945144462631902
Ni 6.226426116372273 1.3224643785537002 5.400276209851311 0.9435956315228717 0.11539728052609803 -0.6140807363796262
Ni 1.0109548945127227 7.671131813433875 10.786889935498715 0.2242037952085558 -0.2473282970411611 -0.7068309689301698
Ni 3.2677520943641256 6.884695896009928 11.282042733059733 -1.8445292054008424 -1.0252356130928666 -0.18406553242677334
Ni 3.0085226194274264 4.6876406238822845 2.776047988779303 0.6137084406418721 0.7235788778124699 0.7729227183529205
Ni 5.852342715518494 5.457531762943936 6.325284893388418 0.5847457348609348 1.1885384590509915 -0.3989182254377323
Ni 6.346971967728183 6.146487634881929 3.8466469956031704 -0.3759251069766687 -0.8050879902315553 0.7759265381762508
Ni 0.5873750317250789 2.2510121168767494 7.106012117017086 0.42657121126831055 0.7110560627551109 -0.3683305824588624
Ni 4.619402728891401 3.186900669022709 2.0995705687648996 -0.33080507470957865 0.7307748813402769 1.8763005842751685
Ni 7.164746080203232 0.9976706299042584 13.457257220913503 0.6157308703885396 0.6629836327279163 0.19240233442724286
Ni 3.7346017693911766 5.15910159693261 5.163470685362744 0.7077462816555876 -0.17014095192588116 -0.06977973979729916
Ni 2.9832862429727776 0.7268961415529241 0.09586096751333674 2.4300992359352858 0.541389736472803 -0.42071603803911417
Ni 6.955402465700141 2.9801188867547705 1.5656409469172539 -1.4403345620555197 -1.058969772120518 0.2899335333061974
Ni 2.717489161760505 5.914702369998901 0.8115474627805912 0.26452692030763475 0.39578173669127964 0.11434235689902243
Ni 7.9400217248354945 6.017855709416519 13.412440062004062 -0.11302055276380536 0.052760065310851076 -1.05696199766187
Ni 7.392301992959862 7.718921629311449 6.826640119684578 -0.7593164404233955 0.14566867781612977 -0.5643530301371958
Ni 5.196560242087333 6.627441360832693 12.296765849896525 1.4368486603894481 -0.4298408831585178 0.6869568557140622
Ni 2.598191621384634 6.785278173778841 8.72643714760156 -0.7539778018193015 0.4307294564110582 1.279102482583494
Ni 5.603071781161353 5.421712690419711 10.086933090155298 0.19372516700372444 0.4118773567015616 1.00729934032942
Ni 5.5546298625330115 4.641443801867296 0.13569978770835575 -0.9152757015322559 2.19281881004843 -0.9863785310163528
Ni 9.010364548435847 2.5789452744834507 1.3025128291063315 1.1256770436400807 -1.402153680110424 -0.08525135307033706
P 1.618453817126444 5.2593763684932755 11.115059713246408 0.001948896196254708 0.4273204307295092 -0.4421158438711289
Ni 5.923794545495297 1.1104564585260508 2.7192880337772616 -0.4707121674515829 -0.12395699717065102 0.4858896465229697
P 5.655519473830113 1.5730860971802867 8.030652828287687 -0.07392821474803396 1.6728928998763577 -1.7923918612756549
Ni 8.65038519850578 0.39216155225573185 6.154552282758189 0.20680745410897933 -0.28534000039824403 -0.46859486399826394
P 5.155235559195925 0.4718522347007852 12.73382188181643 -2.3703241727591826 0.20715275326354002 2.672157285716443
P 8.171965357529423 7.391705784730591 11.20898859346676 -1.2940310788688683 -1.5697219862131222 -1.5947964126832468
P 1.636423905786842 2.932794858556315 0.5505535841153905 1.318964094665122 -0.8209090164242121 -0.28546109935714065
Ni 5.103374759002854 2.5550037877767515 13.807432671773478 -0.2186540690349202 -3.6434750657449313 -2.9383245698409786
Ni 7.076917155428617 3.349702778628263 6.183390129547783 2.297312042067514 0.4042200972666199 0.13932653764818587
Ni 1.2404298525073216 6.823975814160019 3.2782630591311173 0.18713414404976803 0.689920052107444 -0.4452885851721557
Ni 4.964653872407735 7.887816241759875 10.228664828308242 -0.1400076228756105 -0.872628813396007 -1.6639719432376439
Ni 8.247115541678427 5.638648644092435 6.2480992170816645 0.8942664462704406 -0.7643684010250061 -0.1666463085090614
Ni 0.22698392548667257 5.94249126293512 9.319621483260606 1.91617325210039 0.6903553398726499 -0.158765620209404
Ni 8.561009858636492 5.109485893352891 11.371185179089462 -0.11700113467810817 -0.2433212327642971 -1.3749148989991289
Ni 1.792984460492206 3.0430654337108662 10.988408316992611 -0.25626210919568126 -0.19711465230124764 0.1859036140767766
Ni 4.203314595134702 3.506244701826462 9.841538440863783 -0.8288244146165469 -0.21494936648982335 -0.7329096682950926
Ni 0.8514738510592844 4.674188675709337 1.9688016094276937 -0.7697036971949904 1.0977484355506126 -0.4107036481084346
Ni 7.504985348292248 8.974480265636544 3.959512939705771 0.9334364316016828 -0.0967045892126012 2.0156227510479803
Ni 4.364495763616923 0.8484993309404327 9.50334770698753 -0.6705385622570388 -0.458733654933468 1.054898430264622
Ni 8.255713982234958 0.18212764041218732 1.8555117985370948 -1.8190477733002866 0.5416255066326929 -2.1540653434293158
Ni 7.499908262589854 6.876050876685486 9.086116530266272 -0.7626748153726671 -0.029775174379903558 0.4347910280749415
Ni 8.333118578750897 5.025709321386608 3.7769055379840917 0.95575720658607 -1.6255383218517938 0.8415300351086732
Ni 3.9996349588096938 5.062189812415182 7.69571981343919 -0.582552583864358 -0.5760749465598143 0.18697679253629734
Ni 6.119825948129177 3.956773176577195 8.315001301183898 0.27737472280458036 -0.9730874703344016 -0.7229206754031807
Ni 7.391137523762066 3.2393390459378875 12.587931591264315 -0.42486425587953275 0.9571489447272742 -0.05168482996880131
Ni 0.5740264884168962 7.463530244850688 7.002308216562748 -1.5560663431029007 -0.812259311169014 -0.8111503943755513
Ni 0.5795237146058547 -0.13382452651222404 3.1488169368026084 2.0186898200090777 0.26772048754426797 1.152576439134086
Ni 0.5495977877978391 4.489774017792678 13.250052503432924 0.4782259593301248 0.15019664759347034 -1.069660676175461
Ni 8.644432431966644 4.138169530333166 8.447652042744743 -0.5368491682899722 -1.6958991309635438 -0.13536138235285075
Ni 4.306868511956362 7.833589240156881 0.5005559346387936 0.2828917959680676 0.37175477764906295 -0.06550065280597106
Ni 5.386545720646253 8.498380047302197 5.219358685829475 0.36915822056648034 -1.4350668858986768 -0.30866839071153934
Ni 4.124363583524089 0.8639299451742757 6.244254605578219 -0.8557389796192035 1.1240971007474707 1.7414338821705493
P 8.977414728014992 2.7253423420304457 10.308535304797433 -1.2213809595023093 1.2123185921897253 -2.037939155156993
Ni 6.62555026285547 9.102106089715058 8.669854191917583 -1.4031620667702802 -1.926923805748675 0.6437147571959753
P 9.101947721904157 3.2547286708559677 5.297539284618825 0.001233615296784972 0.7126123514986372 0.3552783772605946
Ni 7.832471349726996 1.5249609141737466 8.204098186361103 0.8800461889060004 3.163334663000913 0.0058448888165512245
P 4.739445529553862 5.9388953820523245 1.9151084005049692 0.23702125868819823 0.2696912381173936 -0.17507952687807912
P 9.282813077705933 7.8454016156993305 4.811086469328387 -0.16011930602382102 0.05127345346299557 0.5471541497604061
P 0.5812965025125802 6.563945184415236 0.8357935746294339 -0.0954221229557518 0.20316754336354687 0.08546449752240765
Ni 2.6823501392477933 6.9296816700592085 6.406423243940172 1.1095094327412827 -0.3928200829597945 -0.8734744492257538
