# total energy = -340860.9651115174 ev
CRYSTAL
PRIMVEC
9.35829739719407 0.00000000000000 0.00000000000000
0.00000000000000 9.35829739719407 0.00000000000000
0.00000000000000 0.00000000000000 13.69681419199241
PRIMCOORD
 96 1
Ni 8.296729499194026 6.332759791853264 0.6513112897673563 1.088301688315416 1.0441900427081825 -0.936176199130349
Ni 4.335596203942526 2.4316880487579837 12.886428742593111 1.6620610993681761 -2.074420023691847 0.2609615715538796
Ni 8.304515602558622 3.7314058128066745 6.1596631097696335 0.4350957037995539 0.925191160873755 -0.21075975388850798
Ni 8.049726599909002 5.832081527298895 5.016444151689854 1.3782048826043103 0.1745161981754414 -1.9671525713617348
Ni 6.758534244712652 4.750327865972319 0.19124054891449416 -0.6110391213398252 -1.5169806899553486 -0.69001595425536
Ni 8.110162483957751 0.6355322646675429 0.11304074490579866 -0.9731543190165949 0.22739787666582129 3.059536143056008
Ni 7.446387813828655 8.472057199357128 12.117995554461663 1.3398815615440796 -1.9261064520537023 -0.3899885270482703
Ni 8.88120195789093 6.6347801210426836 2.876810781312446 -0.2621586771857743 0.6367835772937808 0.4217393370973059
Ni 7.2857152072580496 1.3443942754219835 11.804050882835744 2.354805508298293 1.893398163187404 -1.122720789225234
Ni 4.285454446938314 5.871395734311715 5.1806691679205565 0.1408090357309833 0.6753323841012563 2.5677260172835457
Ni 1.6332194053997688 7.708569871355714 5.97439970534909 0.3693376835671381 0.1750219341672663 -1.1492108650959627
Ni 6.424630196577106 1.2188807918571305 1.6479867985600236 0.31717591396191824 -3.22868619182353 0.3130495504983705
Ni 2.4361051650898222 0.6818286973057537 8.062766451385238 -0.7370499157157113 0.09605512855406037 -2.1429923734446064
Ni 2.426924675425557 2.9903222485731 3.089083167608662 -0.9793452783186555 0.5322857172890059 -1.3037200240218578
Ni 8.498728346699792 8.904550909687405 4.134808320109088 -0.31057743480879413 -0.7122048316475734 0.035665057501777286
Ni -0.3911206779085493 2.42850622767149 2.3904095351391197 3.2694811143527045 -1.7344677352653612 0.5066093955688243
Ni 0.9458337511494275 8.139538179223937 8.280327211493152 0.0543718898826612 -1.2543820970186783 2.068627842490102
Ni 4.3582900749270745 0.7776052553281315 5.907983869317196 0.30909905049105474 1.0640932093900126 0.8117227219392537
Ni 5.603944955397316 4.326237906629309 8.696340024425124 2.723559551447819 0.47013444057124193 -0.9282188919564852
Ni 2.7216923241972344 2.2228202110243163 11.15648010450448 -1.9860406665154893 0.5449000636189066 1.1283867292617598
Ni 4.368350244538782 6.444282620934859 8.691367961062614 -0.3142415139239427 0.2937084269675974 0.5763477406052268
Ni 6.01111511319803 9.378979150278203 4.528372449446119 1.110709623696971 0.2852497546772829 -0.11557391531327839
Ni 6.477289335558572 7.213244552864504 3.8199315620707726 -0.2527116728402615 -1.2383651527651316 0.5844924811995482
Ni 7.806073971062112 -0.14804919932480837 8.041905870844348 -0.0822228506566584 -0.655415076352039 0.845312384969241
P 4.382284749238161 3.9471239241736162 6.60810990952975 1.7347958080287413 1.2808366916657812 -0.09087358435312091
P 7.195454429672081 5.182091629112165 2.224376495867504 0.5180464337611724 2.9972439698850053 1.8099200999674054
P 0.6407457721007355 5.421832489682132 5.934939508898183 0.8012128235468654 1.2210863110800259 -1.8617409412934387
P 0.4682648659803141 6.925542418564305 12.73133929619957 0.21691703173915544 0.6012966972410806 0.5890021961444437
P -0.3163918663733256 0.15503984741778074 2.1226911089215617 0.6378421004652821 0.691729594512357 0.2581374718415232
P 4.146867422026898 5.129572864590397 3.370525536836051 -0.8868662971516275 -0.9870151361590872 -2.316280098529585
P 6.571031399745057 2.5706400472646154 13.614332080890753 0.16401709841633044 -0.6165219988312672 -0.5101384917680053
P 3.2578104606767524 6.947085218979328 10.546368718658556 0.322730011010928 -0.10510232635799319 0.19080285115060688
Ni 2.223175826322218 1.4971404041682952 5.517241266620101 -1.6350868847721776 0.047131920490796245 -0.019123865313644482
Ni 4.172574664746303 3.0043690528402367 4.536618045208793 1.185117863405217 1.2446494431119468 0.9319377355689691
Ni 7.229022642134587 8.30203565377062 1.8480288260975974 0.25218536802314634 -0.4814436949364741 0.19170607969116663
Ni 2.7950894500247876 3.0632046680484257 7.490006837605554 -2.0042170803142 -0.2923567980357094 0.9834644426933514
Ni 8.935508157199523 3.0420829910124976 0.013892392361469144 -1.3437628988763568 -1.3191821242131991 0.2877815199602012
Ni 2.0622973372107225 3.82905028697277 5.324704593527726 -0.6200734636279515 1.3566986331014181 0.2576667028526917
Ni 5.548618701681583 6.34209001427454 12.63085925794757 -0.6957819102048598 -0.048242637056471756 0.8904712408940665
Ni 1.5420789478663584 9.278246437998746 3.833313927228671 -1.051309427361783 -0.7672081844666464 -0.31278292710054517
Ni 9.515984622943686 2.145155701621937 7.463585556801151 0.8618337796630319 -0.6353180484918477 1.0081074380530122
Ni 6.517923062492557 4.368874309188322 4.351299426834102 -1.5162222145227695 -0.903356838607483 -1.5082602793632154
Ni 1.3246576263884111 4.320922393755403 10.423508312382001 -0.4893140988234863 -1.256540281012262 1.3136123434349054
Ni 2.3720569782781715 3.0092447257404222 0.0709471235909531 -1.1959038982771275 1.3580895999116738 1.3105984963092459
Ni 8.033190488556551 6.2360324308238635 11.879657502658947 -0.2902922021971968 -1.0546379775143837 -0.5997344949602832
Ni 0.7717142071694619 4.569207379772337 12.665005813184033 0.571327661682816 1.8665211362909016 0.04031412623801443
Ni 1.7585270064237308 6.080151272477625 9.317956500987915 0.9638242998649207 1.8692020255571744 -0.08072878260963516
Ni 4.097333954348047 9.23492687973587 0.5611104052841926 -0.36659225961151704 -0.07239635148453984 1.447695887516597
Ni 4.840991050342756 1.9653079438565515 7.970546046341883 -0.20357634876619132 0.49241124969157124 1.5111291162705782
Ni 6.3495672938278 5.218298881416998 6.382496334583813 -1.0960466223681578 0.6007588224597395 2.648984961365038
Ni 2.613005059201544 5.942518793892157 7.221809266565559 0.11529135107585306 -0.7865547073140582 -1.3566788356070765
Ni 1.5544693335090563 6.359009815816836 1.074311007473376 -1.062674731775931 -0.41155262637229123 0.5670421469335847
Ni 3.5733160962945165 8.476483673986278 11.96344140267444 -2.1808976331308116 -0.39388940476457324 0.40231645248600395
Ni 2.0804243591064218 0.9921105313632805 1.7191697512432698 -0.5713960530269063 -0.5770285687223352 -0.9895559003030698
Ni 0.5078233245530094 4.695123270121658 7.832536428374692 1.2965013947862316 -1.533657122169765 0.7454916187251612
Ni 0.4295570766333901 0.25174568436336087 12.575154929020384 2.382189299627884 -0.9369938099356379 -1.0970316119892463
P 1.3744905595812862 2.5712483365899743 9.313997941224425 1.452724708189756 -0.006960490478233174 -1.726907149309284
P 5.731273948640933 0.8768097576563402 9.825792927157163 0.21326452258823272 0.4735228974275006 1.6713309547058766
P 5.931195254143166 7.466554944538634 6.138255068835921 0.6423235332754035 -0.17733412724021072 -0.1747861640073764
P 5.905094962936607 8.191794911420935 0.16666566016998896 0.870535678312404 -0.04430730655780756 -0.2643947656051447
P 3.108882517234233 8.27488723326498 2.4489222890900026 -0.2516814318035343 0.4092142080471017 -0.29013485068372613
P 6.031619142611287 2.148636988222453 3.9155078525306473 -0.16208465728030796 -1.3432242527640674 0.6365017843873038
P 5.422674736440323 4.890721042265184 10.955944894698499 0.3267663858638308 1.4818347381818349 -0.8141351880354882
P 7.8659483572720665 3.9856333176175003 8.355631558313139 -0.7631808084748082 -0.020875300787112437 0.017349032801408832
Ni 5.10673861914615 6.600931159660782 1.906856954667936 -0.0955049124775452 -0.47557463775020675 -0.8246456006485089
Ni 5.739649624736261 2.8714812309925697 11.215608634418572 -0.25832181993818737 -0.6331536938506773 -1.7412189379462657
Ni 3.5446890648133884 0.6518054078654941 9.895098605399378 1.685100240575827 -1.1190158295698212 0.9089124783183894
Ni 6.742250807387657 6.838061055280362 8.437908772461203 0.4492123457065941 0.2267733557079449 -0.6338172955766053
Ni 3.6367372771861812 0.9636706658284171 3.560199506780313 1.322854945079096 -0.541749433805067 -0.8879027088359418
Ni 0.43829679049420245 0.7243687094024396 9.636064679088486 -0.8347466936382527 0.02483222855233143 0.9177683860471226
Ni 4.633218133394734 2.4130650371046842 1.4496844784929765 -2.274883280750353 1.3444056746666782 1.1382363683623302
Ni 5.432276349483682 0.11504061304163292 12.073358347937084 -0.14134948161548558 1.9173078799254657 -0.2099629690188255
Ni 0.44058676584674644 4.449851655839579 3.4566508828393094 -0.07084803316081346 1.0339763353999742 0.31294156416559654
Ni 8.770352926215887 5.7804050095353166 9.459731897793944 -0.9055595026857566 0.7043449692835225 1.0078369580004451
Ni 3.774229381311951 3.821067659364597 9.681346672297943 -2.2319605132448976 -0.10222217659672071 0.5976729844455642
Ni 7.998733237849288 1.1015838933332813 6.0075187195405615 0.4500533535506507 -0.18485254710444293 -1.8368650039873653
Ni 1.347529305021911 8.173995429931198 10.852560976790208 -0.3018526533412866 -0.9313381543117573 -0.15424973461692143
Ni 1.9255913300592629 6.648312218957595 3.3889754199890567 0.664750494820352 -0.43315529224373145 0.8282495159496831
Ni 3.5855567491802027 8.162409857857437 4.624455023790638 0.9363397212914066 -0.39749229162448313 -0.07093390800640041
Ni 5.602831318017043 7.513046965590693 10.66533888074201 -0.2597873487401203 0.14113016651582794 -1.4450535647977434
Ni 6.395432308959872 2.5554796056172053 6.392577092449609 -2.2535505807108476 0.6503199212173187 -0.9003252508700107
Ni 8.749923763181137 7.10457600446344 6.620053904390607 -0.9279877497822856 0.5189761446642933 1.715246168031588
Ni 8.028333532250992 3.7962307382953218 11.448413125019984 0.2693004304368781 -0.21806271530782445 -0.4532808593490129
Ni 3.5519230286365047 4.414140393292347 12.06786596324396 0.1638731166392984 0.869562001545225 0.1421622073247681
Ni 7.004629389158294 3.15994138737514 2.3643579070785887 -1.4594715399952864 1.4262222910238533 -1.010042707402512
Ni 5.3296906943362075 9.035707446532127 8.211678485722326 -0.5597142458136039 -2.1313208506439483 -1.3149202636130517
Ni 7.504577706522231 1.9514950970222447 9.251431172877457 -0.023317848790334036 0.9327455761822453 -0.24347704161587105
Ni 2.507181433183697 6.3631368249319635 12.73744839268564 1.0493124515364123 0.6825906083255664 -1.7328319994341512
P 0.1587691288970973 -0.21663241701444313 6.6847159955060045 0.1690693161282572 1.4588668165317522 -1.553109317357106
P 8.264667972598948 7.923501885748346 9.842065134525383 0.05113307123038936 -0.21587959161357662 0.26734022138671376
P 4.5218637536647766 4.49501479867316 0.6085962775109132 -0.27697388782173593 0.5383571202940663 -0.713823598197919
P 1.0481854488640707 4.204037260313335 1.3724345416615724 -0.0517845887714592 -0.27991754383109213 0.1769366346914759
P 2.608335268842249 1.0032001136794415 13.168199588056195 -0.558526910373722 -1.4942662790769685 -0.6647078145078746
P 0.27468661439697856 2.1079845446938426 11.626376121706487 -0.8287082007536567 1.3526841126253866 -0.14690126467165024
P 0.15892166914330272 2.6750692869827923 4.720415004440355 0.8230615439908405 -1.466920540074164 -0.268252448788338
P 3.608072812515801 8.40434991829601 6.869595709736706 -0.9060505833895622 -1.1159307628865942 0.8712944108552995
