# total energy = -381165.43095662433 ev
CRYSTAL
PRIMVEC
9.25808051480750 0.00000000000000 0.00000000000000

0.00000000000000 9.25808051480750 0.00000000000000

0.00000000000000 0.00000000000000 13.55013665454128

PRIMCOORD
 96 1
Ni 8.576593356646267 3.7857773173570144 12.231410493813035 -0.4767555454321854 0.42015630888090216 0.40136360165443136
Ni 0.25697839691609553 2.9944428716491163 7.945122818996409 -0.7103834621681185 -0.3662554450973886 -0.7248276626179065
Ni 5.478284077902713 0.08443091833310695 1.3194607320133962 2.1662713985772046 -1.158570709044308 -0.12075468818326945
Ni 6.0349817269797725 1.9046464211359395 2.942100460936057 -2.823584977503537 1.4487461831579824 1.2958259659857618
Ni 1.603101475465838 2.239076069364151 5.8594725883888055 0.955783174727999 1.5249621654989285 0.29985850572939327
Ni 3.0759510139130803 7.8389835530962255 1.3155556735846208 -0.2190343351924744 0.8179113672484687 0.15557976628225464
Ni 0.9186987873639157 0.34161391883212316 7.92397088207791 -0.421625437227261 -0.3209238110401247 1.0376352723088
Ni 6.1381722941849235 -0.032567150390952586 10.919485839469207 -0.5126149783329558 -0.22668002466319026 0.7667446145666665
Ni 5.524361545422903 3.249104896780291 5.985081597948816 0.06649438417780806 1.8957774620528578 0.6878132901770864
Ni 0.5670361477669917 8.902857377719002 0.03107382197805193 -1.0186929268783422 -0.21055483696655353 1.2688746342078985
Ni 0.7534800054433709 3.2519749017895854 10.192426544656561 -0.842371300063046 -2.410936546963906 0.7303041123514454
Ni 8.250681142639186 5.385120012068744 3.4197831688749676 0.29950317927250353 1.762715674367461 -1.3027787431545113
Ni 1.9952274824615444 3.2799157892671684 1.601057291252766 -1.1360144210103469 -0.734042239237639 -0.33021423520311516
Ni 8.07675883907594 6.553647180643341 11.06529968429465 1.598689577090066 -1.3045013822725728 -1.455375515549042
Ni 1.8608556995425105 7.064989492492872 9.519282608463682 -2.164400921027369 -0.8231541037046468 -1.4561944119059114
Ni 7.59778277726671 4.366666331238224 10.144378031760635 0.5288862046891536 1.7340224201978265 -1.6191432169587274
Ni 8.675441884014774 -0.5944798763123199 6.602873321401148 -3.5722994740413703 2.7067273103818286 -1.139734293064095
Ni 7.730571428390294 8.171163487720378 3.2094043952291402 -2.111489674850634 1.5188177431640875 -1.9117668955025784
Ni 3.447190790905663 8.251032949704841 10.383808662565063 1.1537272649090775 4.673418625836429 -0.8787986896521447
Ni 2.338693017428696 6.883531111260058 5.308862127355654 0.0767299458628872 -0.3258323040853356 0.31090576468249037
Ni 0.5928467508812245 7.12382459518341 6.930122402257718 2.639865515562273 -2.8001195473917453 0.18544595771406772
Ni 4.601229063223661 4.394875703055385 12.325502219330655 0.8497791624913429 -0.8694619856322511 -1.5715880928875836
Ni 3.688724857639484 6.274516048287762 11.027778534934429 -2.2054791791249175 -2.9726853067090353 -0.23217344367759368
Ni 7.030540174300663 4.761097600322041 6.9971009127101125 1.4129700539996375 0.3404932485316201 -1.4452170869588012
P 1.615748013668084 4.659267970976136 8.803225616725376 -0.675327756115566 0.16551168068398592 3.003854790333304
Ni 5.1928204183653355 1.800039367587492 12.30444564064311 -1.6100098871988917 -0.757479901435289 0.8893738940648296
P 3.6942241575605195 4.1574059337379525 6.376884497928961 0.6844983668712405 0.5937245413207775 -0.5869355434234022
Ni 5.5323327528842015 4.6478805317457095 2.33701915644263 0.953761259201964 -0.3746364700722322 0.14626928751460616
P 5.247017222637627 3.891134275440148 10.063916978421027 0.01656870299195856 -0.22863174907292239 -0.6018631112675119
P 7.539466127093982 3.5345130078336173 2.2168566757438066 -0.20353443978466237 0.33678726043494256 -0.6427426230906931
P 7.9523024605599835 2.204311976428987 6.34806316697917 0.872681006790181 -0.16715692959689277 -1.4847745375364494
Ni 1.8904630415416195 4.354788213732014 4.602926995219483 2.0887115006138544 0.3425161924989198 -1.3778009622976721
Ni -0.01339273950466271 3.272194549984099 3.542181476056839 0.8426096413260972 -1.390631024182805 -1.2910506560843056
Ni 2.6777794802365054 0.3770177451419397 6.358185026581306 0.5003564726805769 -0.8492050351554278 0.41468140180926
Ni 4.193392093322236 3.0568793677222845 0.5892740575486867 -0.5295202387287267 -0.8350469984874909 0.24383005407991556
Ni 4.317866987999541 1.4070801333310228 10.076938468890617 1.34808415195953 0.0713941354722706 -0.8967179931347267
Ni 4.356491700576241 2.8393885365018114 8.174160328434922 -0.8498418974084784 0.702418698795087 0.25160635559122474
Ni 8.309062599376642 1.1053407679667429 9.913767574415415 1.5381416403036798 0.8948788830434589 -1.1828506646375951
Ni 5.051282881003741 5.9130898368108324 0.3420749712497453 -0.4001366712258657 1.0406329214845433 0.015520721343418432
Ni 8.57753768087513 8.624022503945026 11.54872703129249 1.2687147115912667 1.0091279088977265 0.2714904961096615
Ni 6.078272512216745 5.766256677303055 8.705068667983301 0.1293977085702481 0.21778143662197977 1.3811146000519374
Ni 1.6248949973751259 7.489194749027951 12.004581036615546 1.1195799296034072 0.8785104689877644 -1.2654051876020593
Ni 2.7137934140628137 1.5807617267967164 11.61271147845454 0.47311769156928196 0.19894064976639286 -1.9225560156982826
Ni 0.8232109432804848 0.8664758058915658 2.458645339696194 0.1758192332575811 -1.1956724989926117 -0.587901249770781
Ni 5.808566105988461 6.4643807667736075 10.855069039939625 -0.25318501293225426 0.80300565378123 -0.09408772041504442
Ni 6.530724172891686 3.247836539727796 0.23013459199851669 0.5592856429166174 0.6074668306075345 0.022315889888380923
Ni 9.297890422046702 1.0079735335062578 4.910542464388276 -1.1156091178811174 -0.5776340635168181 -0.5968718287005075
Ni 2.2320677022930675 1.8026594044185578 8.990258288332694 0.6529784418860883 0.11726441564182385 0.49418273976969723
Ni 1.8655402883641328 5.009297485141965 6.875610823242472 -0.24718688636729044 0.6373224805163863 -1.2275436366695955
Ni 2.739382749048911 8.86532511866197 3.8961382680450636 -0.35388149691306797 -0.02884186393235678 -0.2479636166323149
Ni 9.200930543135923 2.5580539809455485 0.61995255948191 -1.0859771539472973 0.5603428805365381 0.41832594054038275
Ni 5.485514638910001 7.027892363227572 2.4364639042066174 -0.19910674303061193 0.8325067485641405 0.37665170073004806
Ni 6.842156748722841 0.16653157776028024 5.161206850283923 -0.33197929752333794 1.2910241737217443 -1.261561131265621
Ni 5.162333558702088 1.1563990828901598 6.869553261056725 -0.2680511314108094 -2.0017549919269526 0.6438474261190976
Ni 7.761761902184854 8.21780569816175 9.41848340349692 -0.28984225914397177 -1.1846581501599789 -1.5092010460099299
Ni 8.313932349811767 6.25662017834271 8.345000616941414 0.950084581681325 -0.5818023359618948 0.6170364765738405
P 5.119987097693982 9.08585260034389 3.6202307993805696 -0.06417139247158625 -0.2729688804274008 0.08161504186933041
Ni 3.7941743965293693 5.1389846792393765 8.81002845440547 -0.31100578059546435 1.156081624073867 -1.9197231742351777
P 1.9063036175767902 2.235650579514348 3.535745258371479 1.3854335391422656 0.12394594142705749 1.6869048978847334
Ni 9.247711624787424 4.151536310589912 5.741599631040945 -1.1225253853849766 -1.4944562836005875 0.944553881671083
P 6.856849322754294 5.255192107873779 12.245516105529685 0.08529891847882083 -0.8761892770537555 2.1757646827796204
P 2.0917059411772154 6.713506459661046 3.1388892979588414 -0.3993748533591767 1.0368384874391177 0.47207613767864504
P 3.763974537367051 0.5976081817724509 13.814770963855265 -0.21104566056004295 -0.2566997109537321 -2.8424830999596207
Ni 0.29073150744153403 1.4977630335440542 11.854283503319131 0.14711903710941115 1.5385990395560727 0.7599954687682912
Ni 7.461892669116953 1.245517367469092 12.808591646383851 -0.2765995352014527 -1.0710536998682456 0.8608233361206465
Ni 3.673393476041446 7.567268143361437 8.0218167593093 -1.1758698624443877 0.376587423151016 -1.558366194880671
Ni 0.5553283789452051 4.994725266159288 1.118158580661479 -0.35715296857548817 -0.33053485176732755 0.406001614647075
Ni 2.997266586255035 5.501308924541796 1.6745525646923933 0.5380077073744476 -1.138735933706568 -0.34585297018163663
Ni 6.8243904919072405 2.4989411358347566 10.874757274303386 -1.162452046376585 -1.1971696523634285 -0.08135098957466634
Ni 4.108514009692519 5.539313345713261 4.105257942719072 0.0942854382481473 0.1958345000372434 0.24839684751499158
Ni 3.0458900259608894 3.971031511666637 10.570461752864698 -0.6294127387510063 -1.7824188092233428 0.42567286782375724
Ni 6.702387504770198 2.7209406523440247 7.916965292431028 1.0490394003806836 0.4266779120495039 1.8659290112328577
Ni 6.772313788109558 7.711934911991231 12.642941437903843 -0.45322326663820006 -0.04547613005492813 2.573356476096446
Ni 1.687581461626523 3.929092406208237 12.700218405616754 0.6671583329308961 -0.20358200519314615 0.10945057602435988
Ni 7.326030335209221 5.548719555679206 0.9503521651922316 0.9272372447695063 0.25717690770046675 -0.22254131990446835
Ni 3.6122716274241484 1.1666200039555183 2.259634563311375 -0.9171088980862527 -0.20577387063814237 1.181478981101049
Ni 7.8095891469526455 1.20218954990942 2.1243230852038137 1.9177071722464134 -1.018210587925285 -1.3063173524353888
Ni 6.197572139796644 8.254384374909243 6.9786995515601955 0.47100938697702754 -1.1053195630296513 1.6022739520072147
Ni 9.242453034963942 6.582560166591814 13.108592344197339 -1.4572346802449676 -0.530330393334848 0.5844613708512967
Ni 4.203251949241264 7.8769509419449895 12.555394249615484 0.597526688675687 1.2533986500594865 1.60362840915258
Ni 7.095726320334349 3.6617560686327906 4.451192607802284 -0.30775513486865064 -0.5837612594604785 0.51297133323111
Ni 1.8565877243512692 1.4781914509968006 -0.04659129099766009 0.5814989457888631 0.5360600967297735 3.45856929680505
Ni 4.549457876088258 1.737880613934578 4.89966144217078 -2.4392006840159217 -1.9915153164768153 -3.2958531765883303
Ni 3.8024326044915977 3.352360270550167 2.827128060263719 0.3680932696370757 0.7807180460276232 2.978483144337735
Ni 0.08979319866015012 7.161606822418671 1.9704880392814257 0.9880451200854983 0.11184607283972996 -0.8767436068953288
Ni 5.090620465792426 6.093215054426426 6.761613298465226 -1.548497015396075 -0.7768045699058299 -2.1626430577959983
Ni 4.2714932618977475 8.163155247936379 5.599133508187633 1.4764891575992054 0.06263721521524696 -0.7934627472878012
Ni 0.8006860329978605 5.316119536796899 10.800448215572414 0.18391126623709617 1.9728761041090734 0.7273547999151345
P 2.7849602802126427 5.921283238208335 12.920759774419686 0.041817193146102175 -0.39777768407538594 1.3822682540404063
Ni 6.3833077543013745 0.6926738573770953 8.743117527942006 -0.7613113593662372 -0.592158225274922 0.12189394399403523
P 8.206677485190228 5.867447499082375 5.512575082915378 -0.05234406081935501 2.176443711124516 0.6546761413034854
Ni 6.560599999230375 6.9040007276328 4.655311993103648 -1.219560618464119 -0.31629531112917786 1.4313866088336122
P 7.7750379898730095 8.623494793346543 0.9101813531427837 0.11248139243088369 -0.3316993043890739 -0.016341417472500886
P 5.35170759891215 7.982594900529054 9.106586072015872 1.1564865728217697 0.26265927097127667 0.9376070180396046
P 1.1483075203800843 0.2020863107851017 10.41913379518914 1.1170144828690762 -0.6984144627317005 -1.474924384215247
Ni 0.3081922475948548 7.793952248692328 4.233699924965676 1.665031751960726 -0.4990719495411986 1.7449496086332914
