# total energy = -340868.4974640724 ev
CRYSTAL
PRIMVEC
9.30031389118797 0.00000000000000 0.00000000000000

0.00000000000000 9.30031389118797 0.00000000000000

0.00000000000000 0.00000000000000 13.61194946988913

PRIMCOORD
 96 1
Ni 4.377778599837987 3.6256343235917443 7.878977515161312 0.0649910601594042 1.21466395249345 -0.28963862777359795
Ni 6.270308751033368 1.399808827499591 4.315192138262441 -0.23992969058424485 1.2256926995037858 0.6764744681254996
Ni 0.5177865993614793 2.885450250865251 2.3751215731231237 -1.1235201451980779 -0.3228871054140826 2.3077270667532512
Ni 6.880418635247256 0.1610154024238444 10.054493893897531 1.5715058175864225 0.822818317631783 -1.4844338663675791
Ni 1.1411578009927934 6.72249000696665 1.6571047982887936 -1.1615704151025803 -1.103615178744035 0.6535893359972099
Ni 4.085488338392672 6.129957715795006 12.21446479815221 -0.9810959424611749 1.6781076113080777 0.3996535609418601
Ni 0.3145998541382957 2.426414663676872 10.422070195383569 0.059445447750826656 -0.18056060459730838 2.5890887992300375
Ni 0.47009366027156857 2.5046024016166313 8.28887396446715 -0.7152325627303038 -0.20767494431559716 0.48070167456412694
Ni 1.6283361376763208 1.5627875261621749 12.82365395130198 -1.1435377259705855 0.27369675973236085 -0.5830866019909571
Ni 1.6609616384129302 1.1648270995602594 4.578624456083005 0.5946686504016017 -1.718539494070879 -0.2980749314664092
Ni 1.000155743789904 7.520363926064064 10.29479912144394 0.21132693924588766 -0.7126226359112823 -0.9483786547338118
Ni 4.58578011750454 8.452171663892353 8.163045369194643 -0.7337882142453039 1.329199399239885 -0.8474749398381985
Ni 4.310407126823163 5.104858530449918 1.48119773344207 -0.4846136080240235 -1.323646844852772 -0.7239758561405725
Ni 5.496271536151442 8.983972906087356 1.2299730074877762 0.8071479580843777 0.5195309887264987 -0.5436430512833541
Ni 0.8985302850957747 8.485429585965932 13.605987046074743 0.9066517073086707 0.5199819602209883 -0.049591437774882334
Ni 6.599363152846932 5.86985584033869 12.398553349030289 0.05295906869553461 -0.8955106030901867 -0.2515492771010442
Ni 0.4459398153562184 0.8271717675639093 6.7217980636214945 1.4765266957053602 -1.5211710738876123 -0.876572114314471
Ni 8.807304145542135 2.242826469680101 0.4967390592483035 0.022328488293871223 1.5306401897203123 -2.7523875314231048
Ni 1.4335131646345605 5.6786320887293895 12.965545118502138 -0.10146447249508976 0.2521740551692367 -0.7657706806891715
Ni 7.760525928778279 1.3202818443756608 7.918397825144833 -1.08353100639965 -0.5869070041783118 0.5649158446192012
Ni 4.5311035727980045 3.5993237359110517 3.8583067836197587 -0.3353952651834224 -1.277213235980581 -1.6128036478939451
Ni 2.512907581821247 8.637378112486664 11.732166336108504 0.8066522493948817 -0.5402381393668632 2.0806451786659523
Ni 1.6814781306093272 8.106479000728221 3.8421223775816036 -0.9598452606125146 0.6398568169024658 0.2729187439157558
Ni 7.239764159038908 8.317066005625328 12.274452752057911 0.20084866542238314 1.1632742851675644 -0.5199025131333047
P 0.7355859975941729 3.572585333796527 12.352013648848969 -0.8594940757862617 -0.0882636575340996 0.6512550314370784
P 6.6879393412777945 7.991815432147361 8.333929334569346 -0.6342793228146882 0.5464288415586073 -0.613232529446718
P 5.224618670981651 1.481818994402505 8.976508474248357 1.0980119736246443 -1.0389737886145656 0.027214869851895068
P 2.7468104733622183 0.04572127256877019 6.414971411739658 1.2220047091292374 1.568319963659273 -0.6910163704954164
P 4.8309456890318385 7.862336463716609 3.5190424973396475 0.7827078227641423 0.7642082212980581 0.626986902918333
P 9.137827996932774 8.241900869663732 2.682193753288725 0.0805914857008225 -0.9047647746986031 0.6052261142024737
P 3.7708959245053997 1.2076457441986146 11.706862042378697 -1.3434229990384345 -0.1899415315915761 0.08092238667767998
P 7.800098763907775 0.5760214441198471 5.759229537969278 -2.0096287382480744 1.841272389026442 1.1891498673827454
Ni 5.493518643272869 6.4616162054666795 9.17230333008002 -1.487192917169955 -0.11359056633466244 0.7462277255602374
Ni 5.5324125554965 3.625299512295701 5.884949319570572 1.3951885616465003 0.0921028287745317 -0.10521288379392847
Ni 6.6507752874170505 5.197378051923062 7.632328543586268 0.027391504639075404 0.1680843265071686 -0.5047278622753952
Ni 7.888879559241776 7.265581830089316 10.08479338615802 -0.521027113656051 -1.156465489775847 0.85817124320978
Ni 6.894545811877504 8.53594889041327 3.090824429889247 -0.8237871093029555 -0.29907071972077526 0.3428620058741127
Ni 7.2740544159419525 2.067980570635558 2.3089814616526354 -1.2422513751934154 2.6880019660581835 -0.36616597070737583
Ni 6.227936521456403 6.475678279900475 1.2474287664195158 -0.9397466900904268 -0.45448953494513344 0.8977911715942474
Ni 5.247432340681452 5.74700799563234 4.159676011376098 -0.6270552942624232 1.8187793501302483 -0.2647012411019699
Ni 4.591416107654593 4.518306341038149 10.510180438094105 2.1150902477176996 1.3053184788572292 0.2834170723439184
Ni 1.9082941830507276 3.7716771508628324 0.9425747110901975 0.3778297801985493 1.3954682976704484 -1.8450243998697065
Ni 8.48239768367399 8.197594174820741 4.906699534855643 2.349985975422462 -1.913839461760891 0.04595898322861762
Ni 1.534012355330057 3.3117952351205675 4.456279758352097 -0.021182804725202228 2.0265183149145614 -0.5537765401729301
Ni 8.544700485679277 1.0075959948130762 3.760137321525893 2.346520128361049 -0.3376205549695153 0.33527262356262905
Ni 9.269948254476752 0.0636411171580801 11.44349761684872 -0.27569142156488646 0.6091581022670283 -0.5155879449183508
Ni 2.8268210728026553 0.3353218832692078 9.714589746029427 -0.38911023820837504 0.4032605615668281 -1.1075340541824668
Ni 5.066383132346339 8.360498470973095 10.701782712474209 -1.6590421100361945 -0.42965293551742784 1.613503502174447
Ni 8.335462026280121 4.936234541323502 0.2406372487483202 1.0768847047277261 -1.018974205564187 -0.048684609689896796
Ni 8.297395841982818 7.190705003854867 0.676481573497472 -0.12019573035600589 1.0724760341370692 -0.008722467474662396
Ni 6.076890125372231 8.18214635363388 5.645066326269727 -0.05659795099970253 0.5339705611905965 0.44463269675571165
Ni 2.956681354098344 3.443682984820071 11.953591926683616 -0.8081712571425694 0.010776521790213697 0.4618110083072111
Ni 3.739116752322676 2.665451328423832 9.834238282795813 -1.5448313936190299 -2.0147632312611625 1.2427275434988856
Ni 1.5082504861623238 7.741543988355411 6.517346475724372 -1.3690381285033777 -1.2366155170638766 0.2812676301010833
Ni 3.4035428305500584 2.49616701701911 5.725784679588742 0.32199364706553574 0.1824994734912341 -1.120777035235302
Ni 3.408890510972963 7.229552414509604 5.305869932280202 1.471933419907723 0.8530130960476083 0.13967723611938526
P 4.7854113527700255 5.5968451293571695 6.417435064859706 0.7008654953753541 0.6401105847844847 0.6922445864755628
P 7.8563098603878405 3.4861017159659307 7.67708537361616 0.8985535036815686 -0.5879986945805937 -1.787353013300167
P 5.1091366747882425 2.0033991917544243 2.209777804666549 1.1872127982610328 -0.6624557852489042 0.1689605584645348
P 4.8129774828108784 4.199872897560163 12.688568753725269 1.714244980460583 -0.9376373570569078 1.5993264393431166
P 1.4962995829563537 1.0080424098744662 1.573840949088475 0.04865607044480653 0.2558944414436174 -0.8778566374538493
P 6.765104044701868 5.221158954255876 10.305443330563968 1.0030860735790208 -0.44205516583652255 0.03330169947592329
P 2.8552707326525093 7.081789029189408 13.967084748982353 -0.1154168209101238 0.42265105027829786 -0.42762227824064414
P 0.6770228517594078 0.2348059520089091 8.952170483120184 -0.20270988700083797 0.7893718650478793 0.9307560565560422
Ni 3.0619051041935554 4.95782056960448 5.354137630761652 -0.05034065723608105 -1.30348811051671 0.15005189448548997
Ni 3.6365528919682486 0.14265286289865578 2.5078928526316284 -0.8344443319064855 -0.9541230134167569 0.9519645723128574
Ni 3.125370445421213 2.3582805649321736 2.311377222482097 -1.887974163958355 1.0110935172645297 0.609411355928415
Ni 7.880890589705644 6.288872177336183 2.890606344824309 0.743477673618926 -0.081174354787486 0.4113795911295367
Ni 0.8143754658354313 5.577398173245355 8.39357689699074 -1.480415232126489 0.84021594428294 -0.6471901173390854
Ni 8.223886161873876 0.2875852327045359 1.3822795960889975 0.2693492813969426 -1.3766082275411518 -1.5710345343769587
Ni 5.795918345795918 1.741669761386789 11.294896273257038 -0.4136262210718683 1.0649265039245852 0.08179836152473009
Ni 8.615801384519465 2.722220443730635 5.607714406070647 -0.697915668718411 0.09904069354494556 0.06592514193789936
Ni 4.311058148787691 0.42806461227304754 4.867401989014003 -1.848300499517817 -0.8724645199040006 0.2390714563490076
Ni 8.734705896183533 7.929261521670042 8.01432126146108 1.40400153195244 0.34338496825711834 -1.268811899290763
Ni 8.966702223399817 5.20692947417406 11.150228032362483 0.11027769991134558 -0.4325464550151389 -0.30438004774883065
Ni 0.981248205877268 5.8334265112664845 4.718378411176757 -0.27157277141082264 0.2821618597805786 -0.96616606062422
Ni 7.450193058601772 3.470532990699944 12.028580356683412 0.09212905402677682 -0.5285578748154575 0.5656208411060258
Ni 6.008356113135037 2.3025437844548358 0.17453526856432594 -0.7825954655559941 0.47599012802107055 -0.2068737885705405
Ni 5.532672964282311 1.4267239355759158 6.905246752911581 -0.2038249744418877 -0.39123576919181 -0.8135371494401731
Ni 2.2834595405803997 5.180795592455167 10.111949372361222 0.5934414628627199 1.9280921150251633 3.120604985342871
Ni 6.926231980922438 4.14157853079361 4.080630784505919 0.9832407567183197 -0.993713374114869 -0.6855854292878322
Ni 7.286823746760471 3.228864337153536 9.712329769781139 -0.2042746603847966 -0.5976112779696934 -0.5072202896799458
Ni 3.1901936324605993 6.831480384142341 2.6197281957923058 1.3692890681719192 -0.10684579141166116 0.1620679451097596
Ni 2.716807661111277 1.8536920408544235 7.709277479730669 -0.2517274545501213 -1.4689874499055218 1.0880368646898035
Ni 1.1807399364360687 3.816895276456161 6.748695501101639 0.7980663074980836 1.8181478871938366 -2.2864735566911136
Ni 3.2242885827742853 6.210777442534213 7.97435595309011 0.2095482500789101 -0.33008516582441866 -0.5380344468473249
Ni 3.4943231933465366 0.7911060807604606 0.19648958927095087 1.0361838845742541 -0.4469397476223335 0.6504932135703894
Ni 7.343295252026348 6.258376448454956 5.122898349086976 0.6602022133280372 -1.626136103336793 2.001280109173063
P 2.230066439175361 3.826381596510705 8.673642826004983 0.009048997576145705 -0.7570204453003672 -1.475272254472969
P 7.510607896909929 1.168658828837193 12.577414193533212 0.8161632742091105 0.36616185694231773 -0.15846942912522385
P 9.190765382962644 6.22580674960102 6.47754578290729 -1.1505982323617927 -0.23639133841368318 0.5263079024390162
P 2.0725563250148085 4.94271686002744 2.8718764429048513 0.1586262664180623 -1.3522591092728258 -0.19050486029421385
P -0.3301815998435738 7.065504179762439 12.23835358412486 1.4201022941690447 0.3525645778738573 -0.4578003444859213
P 5.584392009207136 7.578369983103468 13.167546073718503 -2.3453785585574383 0.5175424975415602 0.24904193729815824
P 3.2055112492545548 7.456972987346638 9.82820888937291 0.4217179969410672 -0.7144028677401567 0.203927561458023
P 7.886963694603309 4.281194841243434 2.174086920508392 0.4477149352254612 -1.468294280493239 0.06127067388502351
