# total energy = -340871.551745309 ev
CRYSTAL
PRIMVEC
9.18157076396181 0.00000000000000 0.00000000000000

0.00000000000000 9.18157076396181 0.00000000000000

0.00000000000000 0.00000000000000 13.43815690045488

PRIMCOORD
 96 1
Ni 4.073715990867325 7.544404784792268 2.599100655562834 1.1638622964605503 0.704564027272864 -1.252397976709114
Ni 1.3188958971342841 1.082736718527216 4.724197217540775 -2.693463246283071 1.18353637785071 -1.2224325406952754
Ni 2.60113896424643 8.157843882848153 13.381931714255488 -0.8171032695248766 -0.13243443851404288 -0.5617513308482907
Ni 2.8306047778519607 8.56531280658374 8.14164208328476 -1.3529785039373536 1.0885253742904477 0.0779897864119173
Ni 2.890551252605102 3.9154348944866535 11.99389124489407 -0.8575086699251167 -0.12327154106785221 0.7438607679899576
Ni 5.260645173094748 6.4469500085181854 4.705746851325973 0.29634097949443805 0.488383616589417 1.1060299588331146
Ni 1.5884300850425728 5.797050893423745 11.435414865044228 -0.04999612941246874 1.4926025182213003 -0.3976894952369538
Ni 8.215605143787348 9.301390143769313 5.49799336510058 0.48276215663758143 0.8970370670370422 0.17731792929029463
Ni 8.604655836805401 5.866922646046108 2.332917740940638 2.2598199586593273 0.8656107302069609 1.5970996068951269
Ni 2.005135668848871 4.464024559063992 9.328795295835965 -0.4565628725343943 0.2642798372938352 0.7483044055836081
Ni 4.579638896648853 4.062119667140381 3.7073860125719147 -1.0069486418582207 0.642504538937958 -0.6689701893286544
Ni 4.234760740012692 4.899322823430117 6.055945477266488 -0.07441826701057506 -0.5025102857987861 1.2242299989153302
Ni 3.623112048232937 3.0751834567421703 8.24831357105961 0.9363114391566326 -1.0274287640894435 -0.9707269405220249
Ni 8.887374760162535 4.17403383175457 10.299850143486358 0.10162953731804432 -0.6689563053715835 -1.4482173072377058
Ni 3.1395462669764362 5.888187163664162 13.516232384420775 -0.703514502962427 -0.9276331946563442 -1.2106543171134247
Ni 0.4708851140361666 4.0355022938352265 12.447402072795246 -0.43936244949570785 -0.8932806853184034 1.1899767341594152
Ni 6.031860381145729 3.7063980755703154 7.273133443717598 0.1537260009029675 0.9105124758156578 -0.22506048678189625
Ni 1.4150912128011035 3.2239340827914345 7.2817604474973585 0.27493911677989424 -0.6711042049525217 -0.6414421591117146
Ni 2.839437448814209 0.8088743382160124 11.625215375298396 0.7209051876350487 0.8630679091804491 -0.37311411989043486
Ni 3.2656459582399746 2.05906821482834 3.8861135486260077 -1.546145227334447 1.1813128878368302 0.45510839947605486
Ni 3.0147962665979815 6.396295283259634 4.2645990083007534 -1.5365724960443474 -1.1994970149450246 -0.6423731555664163
Ni 1.0349650064517688 1.9237961344886199 2.394450791101551 -0.237344703465888 -0.7009557410963154 0.8264577141565831
Ni 8.641694292794707 2.269188459081003 0.5933681846219195 0.9002722861448883 -0.7325288879169062 -0.9696781875425364
Ni 9.167274941331092 0.036761172555770764 9.115826928368655 -2.113098414098651 0.7607955960720832 -0.41038046044106097
P 8.114910858503585 1.6748562095411668 3.914306479454158 0.9026739536078454 -0.10337711613677035 -0.5301023364844419
P 0.8690411706646777 6.723177561428011 3.8446973197522953 -1.8347104195382078 -0.0972568621716454 1.4517692862550224
P 1.3233856851805834 2.8010860282224077 10.780546683915723 0.28096783947247744 -0.27417498492036 0.7785233523691496
P 0.4125931583135837 4.249634884460553 1.1458765435513243 0.7704318336102667 -0.6881706735165052 -0.08971658793054227
P 7.288587863430339 7.45954870887428 1.8873351992930003 -0.003639653635116312 0.3330424486805296 0.414069479256874
P 7.7659836292121724 3.6113780009462904 8.656807158079385 -0.4496702591796191 -1.649728288834436 -1.376786404990229
P 7.379430323410058 4.011657754865413 11.971422105207152 -0.4361575694051649 -1.1799023806425486 -0.08269439097643823
P 6.607994757663552 8.72264820118779 8.567161056754948 0.6195080780427846 -0.7169665147022749 0.6662710452299365
Ni 1.3121382611382186 7.884857424376658 10.046943780019474 0.9599527327246564 -1.4950275827230253 1.5261800970664299
Ni 4.674961963104223 0.32458229472134725 7.277742592182306 2.8967986826830496 -0.21975244430542157 -0.134358137899317
Ni 0.21642614697290508 8.969632451587469 0.8164610700414865 -0.19425944224063965 -0.29768618066842284 -0.8099250066088826
Ni 5.254273163065848 7.002995108460749 8.927155751304047 -1.2555658329141344 0.899686074624115 0.9155760063814942
Ni 4.656672274375741 9.081675158190713 0.4868766556317473 0.2467919649217169 0.5424320616943885 -1.008481019342347
Ni 7.927166101917241 7.1058011549932845 4.721671367455832 0.547287847124793 -0.8965323594864818 0.3806037433992607
Ni 2.8297967996350395 6.326285807077569 7.951545926455764 0.30866530538774584 0.06308998648194941 1.088529745165822
Ni 1.8624081531439265 7.1534535066503215 2.0710483282083216 -0.9373949020287985 0.6874435655424934 -0.5010666113737242
Ni 2.935706217046203 1.1700718185198458 6.14350828021116 -0.605378323509622 0.8491129896622537 2.1996867408128566
Ni 8.910622497040304 4.913535894791407 5.027402979482177 -0.23173584191954283 0.8848490096112824 -2.167695275507925
Ni 1.9129710626960095 5.492993999883382 6.146263669562273 -1.6514858949554911 -0.8207130983633218 -1.2503758040727628
Ni 3.594695087081004 8.011774275427763 10.401469012934257 1.089005656360976 0.9125611308145704 0.9454763934853524
Ni 8.14861640434809 5.986163704036465 11.34450537959879 1.6284902053912664 1.9197491423771067 0.6152436463394758
Ni 7.664224281733375 1.5565792164687258 10.810956964055084 0.16588063398763045 0.9435467805628074 -0.360849700700785
Ni 3.7060032680325024 8.90576544616813 4.46013800020919 0.3208484777174991 -0.05792952532693249 -0.1933950373578153
Ni 4.535126642153029 3.153796064620314 10.713059385190343 0.6719925210947458 -0.9990484131745374 -0.578865364820758
Ni 4.7640415615197504 1.1836697246477985 2.4969437460750297 0.042456369391997845 0.18245242230338254 0.15934848929606749
Ni 3.930896659455912 5.682161899919984 10.451754639052806 -0.4364681586670483 -0.4403852343332674 1.9936231068484374
Ni 5.529380564356763 0.6993014741167646 11.28915336279732 -1.6346127733492366 0.8800248487497617 0.31137447678879276
Ni 0.4151841975501186 0.9765885802792351 11.969648225758185 0.6715510626819531 -0.34637516123369383 0.12333941819131017
Ni 8.856506319647899 8.773615099848334 3.138185558206576 -0.14543265054592372 0.14886430193529201 0.050801141812267345
Ni 8.598329734629736 7.608841047591707 7.102254314252414 0.12100485652086257 -0.15739650777601924 0.12728631865420015
Ni 7.53336853687478 6.6331247165239215 9.036892047360809 1.4916764068626054 0.23467255595036357 0.37792105436077494
Ni 6.240373850535198 8.153436728937676 3.531386321156994 -1.4088935699374185 1.5176908286484958 -1.5476801759217347
P 0.7437650662881595 7.8999611080906895 12.244283694317852 -0.1094444053767728 -0.2331895436469339 -0.5905062914937959
P 6.100033543198429 3.2504780035314145 2.1845334595601824 -1.8324874437449603 0.003546579700677763 -0.9380425629151263
P 2.7195077730253394 0.2279150463232812 2.3329443674955135 -0.10315677259584814 0.04870723539771612 0.2248774242368127
P 6.099950909062607 8.879735693384374 5.447761910248848 -0.9976751869760947 -0.8878093777911871 0.9950148665351121
P 7.0428155803560415 5.39715676547179 5.9092680498692784 -0.9560073749236631 0.7519939386200531 0.8734564515036247
P 0.6722534851482733 0.28011502992169357 7.100547460269169 -0.06472058010683693 2.053627769536844 0.547484022295999
P 4.135921131999586 2.3232036391962936 12.869198837525209 -0.11898422654640799 -0.7801459755742371 0.11442206109702228
P 4.42321247753884 5.0632414041879406 8.542085269161396 0.5866784331072735 -1.6686112417818681 -1.2529564203157453
Ni 6.186074041729856 7.1995174465854594 6.861710935661485 0.17047468111621608 0.1560639050075248 -0.7263659536393039
Ni 5.335943233969385 6.59332260776992 0.8719535648738516 0.7589261469635123 -0.1372010066647508 0.356336900432096
Ni 7.34127171580184 4.807644840521537 0.6111583959072139 0.03387994057689649 -0.219473479612422 -0.6379709127336626
Ni 1.5263167596167801 4.1594075897141725 3.0717614853620976 0.685633251806632 1.0395497157226936 -0.37405617208873
Ni 6.495015530854332 7.759648345465861 11.09047060109941 -0.2959432298353871 0.9992502447726984 -0.8604075887394665
Ni 6.005619452237094 5.695897529607638 11.954449971866492 -1.7242422008826113 -0.8445950471872422 0.496337581329171
Ni 3.5095911087555534 3.1430260822515836 1.5596458610647665 -0.7562642838606329 0.08270776071287692 0.527777545006007
Ni 8.5283845294422 2.530330691418091 5.929720916642153 0.7951501622925531 1.0025075753677315 0.2395874767534777
Ni 0.5251151429045927 6.246791768417331 0.27363192288796817 0.266365001957638 0.31882064865419285 -1.2058946909412522
Ni 8.993752437676687 5.002936848179573 7.3580225732899125 -1.3023887068049442 -1.1770919077769468 0.28199679495762403
Ni 6.703648360662208 3.755409299683085 4.633839544491209 0.2894673923030563 -1.064785864581663 0.08568535528396211
Ni 6.440596361630581 2.2527167213405934 13.295080483035948 -1.3446807827049359 0.6095064867453825 -0.19729488663285377
Ni 1.3287477224383308 8.154804782964053 5.567992741554933 0.7789851224969165 -1.9675999433117988 -0.4924274476414874
Ni 6.2078527273041315 4.70299329828899 9.742864850709559 0.5167775943510778 -0.2540183074668271 -0.0554286132819497
Ni 8.159074213314828 3.4829094644558705 2.5186462246129375 -0.12613960664426663 -0.8025289712551276 2.352774079690561
Ni 7.606371205087711 1.2650735300025773 7.810270017070083 2.3870443137273405 -0.21456164413310144 -1.2681709232726546
Ni 1.8962330594068415 1.4510095171714954 9.269479594986262 0.6298927637112184 -0.2498497779114342 -0.8094097575353608
Ni 6.287466126382779 1.7262179157395239 5.879220441770469 -0.698487739171797 0.3338178933939735 -0.38485429114549846
Ni 7.427661114017846 7.254230426069908 13.30159848003813 0.9026132755732391 1.205418522635782 -1.1175883530946753
Ni 6.690032091392962 0.49948111581571303 1.6182224454774012 2.4939034748754407 -0.5080630972962152 -0.7471124421580358
Ni 5.0432347617485025 4.2453929988217185 0.2182137987778425 -0.1892185373826225 -0.4664857880750611 -0.219267534249203
Ni 6.040417604988574 2.042164943267529 8.96501136708092 -2.136865434611262 0.23975562690022578 2.0373233759498652
Ni 2.202236445924332 1.2938118461271497 0.5157159690334346 0.8209383270002507 0.29681277692453395 -0.985815202313715
Ni 6.4544880780192315 5.492314563655516 2.9960373996094463 -0.36296520438189106 0.044306792337175306 -0.9294314242073478
P 3.4095303518464193 7.471796924117149 6.074866858055473 0.8988435241181617 -0.12022761203520584 1.5604228202993837
P 1.2086252336658776 3.5202600938471678 5.093182506067248 1.5909762676062082 -2.3441696258510016 1.2544900833514523
P 0.5969701147866703 6.472190146226316 8.562068039517152 0.964740383921287 0.47057358499118956 1.2940213086768553
P 4.3373464288497035 2.7306633813612353 5.748117712661474 0.535761077432116 0.433338354788815 -0.09417333815031524
P 3.2474021773647266 5.414721110119172 2.109991960106843 1.4850193065574038 -0.8728699828725355 0.9447875949484438
P 7.325047880468895 0.38470689194503704 12.7386736292099 0.712198146779354 -0.7418583928479481 -0.612792356585506
P 4.503578765410528 7.261759314000307 12.421761618606913 -0.17109020321302792 1.2531520812663193 -0.9588918955603098
P 4.1211479848288395 1.0126996976332105 9.389643400826625 -0.9296376266808828 -0.11024787511467465 0.626946793709017
