# total energy = -340857.1068579714 ev
CRYSTAL
PRIMVEC
9.32891510393001 0.00000000000000 0.00000000000000
0.00000000000000 9.32891510393001 0.00000000000000
0.00000000000000 0.00000000000000 13.65381023578769
PRIMCOORD
 96 1
Ni 5.6353085230053965 1.0408643932163448 1.8931550258967593 0.6421638677690876 -1.2618053860659433 -0.5172784452468963
Ni 1.4168290078309673 4.327086746839734 13.655312617900071 -0.02903289689724032 -2.355541358023053 -1.6313968375151002
Ni 5.629002176277536 5.111088786794397 8.159694339374411 -0.11427036601050643 0.5638112987011129 0.03962507059078982
Ni 7.972267102526135 7.870330045284528 8.131608707038767 -4.226540070469334 -0.8676218470997187 -2.548461769737295
Ni 8.666133163065734 7.045150173293217 2.4012413360261595 0.3343184871794758 -0.31246051076411996 -0.13533644265218628
Ni 3.3075669117792224 1.8275998053474325 2.696300000001672 -0.26487479056535673 -0.8207285249822898 -1.2273716298681057
Ni 8.871537219654524 5.116490228740301 8.30667792981841 -2.5897791404288433 -1.3569968810681274 -0.9533719941833451
Ni 9.188683023441989 3.5336998181155037 4.488061844417526 -0.45320963979144524 0.2689607877092723 -0.8035160177587454
Ni 8.185376843134467 6.289759916495871 10.324288148654569 0.3312915274276939 0.32823499998955724 -0.2105196128532439
Ni 3.8091546995260384 3.0871526305082946 11.673215713743817 -0.5566026967678156 0.7613478690311275 0.2056283461992136
Ni 6.18304645463198 5.620009101949641 2.2793805144255432 0.334664814775301 -1.730734236364858 0.7043190011415934
Ni 0.862530050089437 0.8330394831129414 5.2743578646390255 0.6388237476522611 0.3207222365522799 0.7807887513645585
Ni 3.636784331936292 5.438095254030604 0.9996790980474745 0.7707953875972725 -1.3837731207207071 2.459318023591087
Ni 6.153846949812156 0.34744798639313984 13.136262966536082 0.35633535777019926 -1.5130373890368845 0.7577136147126499
Ni 4.3089420066242194 1.5655878908523506 0.012512874062246429 -1.1034837953724932 0.9351649842570153 0.26252634493783816
Ni 1.4835773966443373 7.034981655640307 6.475060160660786 0.0556453572784461 0.6311685450998484 -0.01960620426670172
Ni 5.317836207183204 7.057464341460045 0.6734637228268336 0.298130467294693 0.7000262873035106 -1.725615941301686
Ni 2.8966748383641447 8.128750327397618 10.675354821284005 -1.4546394087139658 -0.8963539249270884 -0.6533905897228425
Ni 2.4628522911959903 0.9236698950377338 12.039698418869984 -0.1059001396689402 -0.12609332678736349 -0.5946167141177436
Ni 7.559154747274917 1.9609193335838924 4.836424997399427 -0.6807998349737308 -1.1718306593780077 0.5221540281716427
Ni 3.743105979358511 4.929911923182313 4.785592670941682 -1.5856913650581852 -1.7946608598154896 -2.1283216588063087
Ni 4.468522431367966 9.208273745525577 3.3921391261225473 -0.22281282839830013 -0.666817918872342 1.0803050432631847
Ni 6.574758278235697 4.263538175966683 13.49006021266736 -0.935044913739383 -2.198687867234697 2.513571385618013
Ni 5.819479968421686 4.7863772327165535 5.649905476740726 1.1773343628050563 -0.6274638425547516 0.47043166009668663
P 4.670903919406715 0.9342628783357885 6.285654260882068 -0.8418596505339503 0.820485041512916 -1.4946162062172195
P 3.859894669722533 8.75022400538072 0.1621365475298911 1.670570422390768 1.0353205081326944 -1.8484475666186426
P 6.492150733449898 7.91047236772533 10.198058596029313 0.6800801831988869 -0.10794673778532378 -1.1555483772782165
P 6.938203488547379 1.611458167273782 9.927985565842597 -0.4529527865856328 -0.1318284294989278 -0.9070749108890185
P 1.6495014837770556 2.6029072962630937 10.561645605853219 0.76335204394535 1.0309804859964438 0.7810584600861774
P 6.572715245789837 6.569571401341184 6.744900900857082 -0.05162286638261432 0.687936446018512 0.4157234699205292
P 8.329667175737738 3.936662313544367 6.595446080755966 0.022439045729806515 -0.28630287853214564 -1.6143807625730777
P 4.386959725093292 0.232438320172613 10.451746319421925 0.6759152531879198 0.8184183887918743 -0.09254917228333093
Ni 2.6666517743569798 8.720306174084495 7.687846200642011 1.893118941384088 0.40783481120107185 1.111207389268996
Ni 0.03699194775145438 0.32821456176469466 13.294715525422731 0.8907255229967177 -1.4966700034224547 3.0672427676716465
Ni 3.7433298733251803 5.677671127282338 10.79392440157458 2.36438903822167 0.06230965667249914 0.13352330070284746
Ni 5.07425822927725 7.583820399269683 8.364311035513744 2.4296063554592675 1.398021145999289 0.15422530913688923
Ni 9.064132675566755 1.8973521048802862 7.172141898296678 1.4924935034472617 -1.2346522226899188 -1.3038470365180255
Ni 3.8255549325845855 6.707200888436034 6.376261350518665 0.9694915254530271 0.5153483181037188 0.0653579565805197
Ni 2.8199724969492563 6.291691001958396 12.852140589940852 1.0201826240499914 0.9301505617615593 -1.1155612953623173
Ni 6.242592920850813 8.744897194757039 6.299554344646138 0.1677084312249886 0.053224149431463176 -0.3008170129879207
Ni 1.0172435797327035 8.9311489882803 1.8206124478042858 -1.3009074942737273 0.18650833754031104 -1.6055045431293704
Ni 3.250138109328474 8.892583252521463 5.399686244048437 -0.43409245934602014 0.4532821449005935 0.008626308216430305
Ni 7.0282834944707755 7.051185981478018 12.159838055601828 0.1957951621588757 0.21438089558086304 -0.29591417636966455
Ni 8.47483442637713 0.0005849229879242907 9.623519623700853 0.0725776142574105 0.41220285836178044 0.7543205298707009
Ni 0.6161832501290037 2.126171738816602 2.8480077531423995 0.056912654026643916 -2.4680803431647496 -1.299315467196259
Ni 7.828014085583977 6.113042274386623 0.3490852110244112 1.276929643301891 -0.5088958776101558 1.25977601434074
Ni 3.256043312699384 6.511265680854313 8.688889186103115 -2.784509865878946 -0.4929858912481187 0.0629568033381948
Ni 8.126567361222591 0.750771510843258 11.787280360846692 -3.3692291183773198 0.8082846427919822 -2.919839109442281
Ni 8.949275070665259 4.29010692667814 1.4564106624635667 -1.1041988191616467 -0.9452300818025012 0.4281529539331336
Ni 0.4677368857694299 7.1752885414199135 8.804810287346292 4.102075537534645 2.8223079105633264 0.2540995543267237
Ni 6.334865221864515 7.889986069775062 2.641138123963453 0.7051065300398953 1.3200652981491008 -2.8113696663842678
Ni 7.716197707063074 1.9093957345040542 2.4353347898007707 -0.6530059526899141 1.0849677388461767 -0.6655369952773892
Ni 4.890805110337359 7.705525427985158 11.850825200153633 -0.8947331014942138 0.5337761857916032 0.35955000805275494
Ni 0.727296228437952 4.940117756496336 5.984328431622862 1.4857312450227638 0.6884930898529303 0.43388137177647856
Ni 5.729567882973291 6.915030462997077 4.54594030058467 -1.1324752975088368 1.817990792790682 2.1654825841273224
Ni 8.840378642626339 2.5014926582770496 9.430973611039592 -0.8470987874457024 0.5037534141772679 1.5650670039396144
P 0.4347806267671948 6.584749546498327 4.304759853905137 -4.278200474958102 0.5163132531201495 2.6207809881269957
P 8.305654547812425 2.460865232241798 0.06310078293971136 -2.367446079880439 0.4220273006513699 3.1750102995666287
P 3.151885973621638 3.3699586971578137 0.6294144506676483 1.8894836586243458 -1.967110662380206 0.3197588441977461
P 2.121441978770707 3.2841699922622514 3.479905561057025 0.3212356858535887 2.6297307411211164 2.5187449593991524
P 7.061130605164259 8.959396943741778 4.2057698009998195 -1.3495792484478177 1.1382985890588333 1.9228792033656559
P 7.6561288215886805 8.23417639895316 0.3025898972793607 0.01510703084476753 0.4173643479580618 0.8134363621962507
P 1.130030165442507 5.421909586023448 9.442934213317388 3.429395760564887 -1.5682973379514538 2.1889976365301265
P 1.9951937683148948 9.23025266992031 3.506188846960978 2.082379130637923 1.1503184963378446 2.056787655322064
Ni 5.250192242503155 3.1967300693625003 2.2049945426741573 0.26196841555183914 2.1698837985188115 -1.2647593264879446
Ni 5.279652956950761 0.8654882491240588 8.256377351531505 0.6523549493694765 -0.09116283345876558 1.4765590916051927
Ni 7.097345454273063 2.6783782208612994 7.596639261753044 -3.0752566391150586 0.18006900967287054 1.4218575862972544
Ni 2.4717427474558282 2.6907390336045163 6.105697619388334 -0.9611123002503963 0.029216216552640006 -1.0647164447963082
Ni 8.315729776312557 4.280479486111348 12.23610846823935 0.940968992533302 1.468658348700877 -1.805591904905697
Ni 4.714236730872558 3.1196825580823293 6.556163884303788 0.06718086872187139 -1.0234900911566693 2.3789088291044
Ni 1.8109383626611042 8.243682563621338 13.433833907395933 0.022728037725135052 -0.5937397108294291 -0.8422908245340979
Ni 3.188884451613787 7.846056207731434 1.8758694787783392 -0.1933374446470025 -1.360970778114211 0.9956609847595433
Ni 0.6393338862826388 6.337365371158992 12.091118466990238 -2.368053631557451 2.252448605895921 0.5491336420842801
Ni 5.280977662920223 3.309115511715354 9.620597807435814 0.8643190079787308 -0.6349740348888677 0.2701828330418315
Ni 2.326351602849767 7.024673204258228 4.059673390398748 3.749446682081756 1.979068091852398 1.2048996740178346
Ni 0.3178240159281704 2.4386250982192856 12.28655924206223 3.1400281270644887 0.3134375299654086 -2.5301794264883393
Ni 7.6064336899033105 5.869529598887616 4.77257976702054 3.8271497904911893 -0.6947673528974164 -0.24942014657318337
Ni 1.5199228505670332 2.859676360371996 8.438573865583463 -0.9191143585520558 0.6706648034222579 -1.897785493621822
Ni 5.0166148617751105 2.430341021452511 4.320652593972566 0.436319548904326 -0.4925428901734291 0.9135134674255107
Ni 3.351524760568685 1.8503810164560628 9.327123193274488 1.793419788319537 -0.417928447991648 0.36663082615893633
Ni 1.3212169551477766 5.3866836019341005 2.9117298418396187 0.4230058625145554 -2.9667434873033036 -1.5138256892661348
Ni 1.862322028011774 4.730086557929709 11.379304506347488 -0.5362071638305992 -3.07559988138709 -1.5259312142804171
Ni 5.995544586461481 2.197435322624475 11.749800510826205 0.013308029962815791 0.1827154461567821 0.42562478819464117
Ni 1.4412894236896194 0.6927932352826411 9.580346336686262 -0.8956121616650575 -1.6420599736559007 -0.6301866408025534
Ni 1.561026051281458 1.71991613629464 0.6296495393326514 1.0841313589878103 0.9917806758685307 0.48494913698657127
Ni 8.95552544390145 9.228638767577232 3.6098629482273297 0.07642449880732644 0.2590041907171926 -0.5070256571706365
Ni 8.724709422095664 7.948217158939711 5.796889067184725 -0.6924908981584138 0.45668654259645214 -0.2637864425971844
Ni 3.2191474527752924 4.207760591520122 8.936309744212034 0.5216855731756563 0.6862361754979536 -0.05708646060034685
P 3.153761085592496 4.685373067002737 6.794313366409531 -0.9241079551119052 0.021889343873923592 1.6370023566273357
P 6.932372916498692 4.003084190323011 3.8134823833234557 -0.5712353590793259 -1.4731904322432756 -0.8433786582816377
P 4.272997696058473 6.346880864742449 3.2684489042359353 -0.6971355960192769 0.04595409813261118 -2.8680794603714865
P 1.1224924018979643 6.060912295813722 0.8703700704889834 -1.1947677277901552 3.7489046935353567 0.44709555647390736
P 6.901699443064958 4.682723655063814 10.132096634773868 0.11109891026106027 -0.9013781176145572 -0.4104871612222543
P 5.164067696657588 5.301137448835763 12.552016324969438 -2.3204475996437135 1.9982045555715329 -0.769838680110958
P 0.8291595872488631 8.712497871996893 11.24679379506562 -0.7454923900561097 -0.5875600643812784 0.9321488231385108
P 0.6972272687142267 9.271085332091676 7.422020625581324 -1.3188787340401673 -0.5956394989553032 -0.3137000395981759
