# total energy = -340897.63318924897 ev
CRYSTAL
PRIMVEC
9.01813113817244 0.00000000000000 0.00000000000000

0.00000000000000 9.01813113817244 0.00000000000000

0.00000000000000 0.00000000000000 13.19894648738431

PRIMCOORD
 96 1
Ni 6.661242530341271 1.9246495374337427 11.423502927959902 -1.4242314858460696 -0.10020874571111774 -0.49611826622951327
Ni 4.499749816065515 0.4115234742608951 6.050093706250775 -0.14335802740508213 -0.08512794011859533 -0.5647726341731176
Ni 2.7635431459085766 1.6852361932308049 4.746459730134152 -0.1902978864897303 -0.11308560167378588 -0.21150743068780994
Ni 3.235164347572771 4.287120321202743 4.559259561321684 0.22724232492456348 -0.3457465265107594 1.1847915904140498
Ni 5.0682167275155825 4.576728583057992 2.8285341112418334 0.5546270610986835 0.39475689497119115 -0.5456582819411699
Ni 7.08019784643423 6.000547192223904 2.6729578227260515 0.7449043787631234 -0.49594163144233294 -0.8205444339959418
Ni 4.919661054054116 4.918984694222295 11.27067266036132 -0.047582634874969665 0.06785166953665088 0.2693464531834651
Ni 5.534859920817564 7.708301658788848 12.21884527595714 0.4509861497775652 0.5068395093017594 0.2797509363462408
Ni 1.685461646508079 6.401574463708026 0.43329504634070276 1.104553631397904 0.6283051075091244 -0.5227361259273577
Ni 2.992991455255998 1.7325723633272796 0.3932788932507639 -0.1737790628991007 0.45738999642137995 0.0352164000001329
Ni 0.5178246944956446 -0.003452140581621388 4.544054090489207 0.3532814014352238 -0.21824912028701765 0.13767640363927258
Ni 8.582916084514995 2.2512050823686747 1.3986264599633016 0.8458366329038272 0.7054772831157528 -0.4142782528335704
Ni 6.757258572066775 0.6558580126001725 4.645488225374164 -0.07003839277532453 -0.25380207769096286 0.7314030018425791
Ni 0.7478357352231424 7.227797598000054 2.45219307180612 0.0987262476283203 0.637935688620353 0.433868259150356
Ni 7.354989318907023 3.5803423332105457 3.807843628055428 0.6545686691913437 0.6078136724239919 -0.8573716301266202
Ni 7.568241064815072 3.83448228548503 12.602789501715645 0.5698323080842123 -0.015597340217624751 -0.17888630221867902
Ni 7.897069178784927 8.725970698010972 6.823776306993732 0.25431681254385236 0.6723876996506356 0.23774913799315828
Ni 6.941967933071919 0.6887254931743034 0.3390059767191186 -0.6349251839288033 -1.4313542129337802 -0.24333100295630994
Ni 1.7497789574488412 6.47031065888336 9.135637339080239 0.03501199729881067 0.26435979860215114 0.02764038742508788
Ni -0.0667188392502861 4.926235271619431 1.295806238329665 -0.031157399439410854 -0.6628717897404003 0.7806686808469265
Ni 6.2994621653650285 1.891841576524812 6.956082210042388 0.5882138959151935 0.2748149324972041 0.17382508564568774
Ni 3.5662740487086406 4.3296768818210065 0.46278523682126727 -0.10255076358073306 -0.5926999567110051 0.16758398983198233
Ni 6.001025153171726 5.617502074135168 4.902300249890899 -0.841905673280537 -0.09274971832991122 0.0056682540293708835
Ni 5.133174325763803 2.9686875919658475 9.29752271210726 0.5855941989041592 -0.5596569102131072 -0.4240376462131794
P 0.02290334753172372 5.588887544183536 12.391592987883229 1.1802911314405349 -0.22456812052651004 0.014455513303697686
P 3.7751249466442984 6.225098656388932 12.7242195386686 0.6546465736171306 0.3460110930260557 -1.3581970720238157
P 2.5195305548492466 8.421139830874175 1.5215480957986998 -0.2895134150496433 -0.18235472038325368 0.200776417423551
P 6.262893643791166 7.706885812207567 5.773720453584627 -0.30130912213299077 0.17536569065993024 0.2765252303200915
P 4.915151988508635 0.9981357672790931 12.538629106255867 -0.1512608271919266 -0.053696975302823656 -0.24905376437270008
P 4.140043621240196 6.200055306349322 8.175413794907561 -0.8088207178011102 0.19610060921443648 -0.5255522552199142
P 4.683214674980106 1.0251180155032602 3.7866717616931695 0.36113277915884257 -0.16736698872516984 -0.009100162529055296
P 0.10608929415411184 5.448204699164482 3.5537902498394183 -0.16736801716643432 -0.11463134889435098 0.1703751794238743
Ni 1.7005489798232631 1.2068784476416592 2.4810321532219173 -0.7374088417170268 -0.0797461069813917 0.6122912485793713
Ni 1.7651278165656632 6.4081937719287945 4.68665509199131 0.07828212084135551 0.5042635210444669 0.5597854653711715
Ni 6.146803242257175 5.72771265419785 9.126147559733216 -0.9096544986907366 0.08981788939509693 0.6726743776531189
Ni 8.691205802655302 2.1854358523222674 10.229606080023688 1.160336285585163 0.022629050253425546 -0.09624616151894393
Ni 2.3074060753275685 5.185452431698128 6.983667771236541 0.5085202394382919 -0.2014089088012273 -0.09063035799406327
Ni 0.6637299392294759 9.011223202549285 8.938220529554815 0.05110016110992489 0.325063287129795 0.024410053413248284
Ni 1.758283055067621 1.1877780459909952 11.573311219829904 -1.137982600480311 0.869759719378328 -0.16084821377004557
Ni 4.143984544526948 6.686394097953971 1.6193262803393782 0.12840577697062402 1.0481896507858786 0.5183909615847847
Ni 5.537015254148304 8.03568687178415 7.95833114691207 0.4154979841732844 -0.06612440243289902 0.05792258334839701
Ni 5.279105723077799 2.8482865237703745 4.911195734399028 -1.003398719723433 0.1199221649796451 -0.179672031344768
Ni 0.586098259546013 7.017900596857844 6.832540126787932 0.3581014485316865 1.0478906314882213 0.138093179461717
Ni 5.235890838889894 4.4033009040476445 7.210056228704798 -0.7035404711043561 0.04788011151073045 -0.18117561247348798
Ni 8.25157191197076 7.118759374979196 9.110955616097375 -0.470748420006157 0.659277901741555 0.5817879377841916
Ni 4.782251790621084 0.384700846957038 10.353808290474003 -0.6279826911726991 0.01712740370890599 -0.33753159480013484
Ni 8.049538721139871 7.0528909454907875 4.667886557564793 0.6449450300586506 0.46868202439543155 0.2400201934155221
Ni 7.22935773467879 6.058019741666624 7.046204903099946 -0.016522166024739285 -0.3260153666304192 -0.5875430951004139
Ni 2.3070092775595663 5.268698799798825 2.5064668901508744 -0.44345590283879105 -0.6457927227709265 0.18839655570195943
Ni 2.2301026556158168 5.306755313002697 11.456500269621744 0.21006272782148336 -0.724660798022739 -0.3656712904591444
Ni 0.970639485582741 3.337375845357768 3.7948953954350206 -0.4584294934294879 0.24110802716306215 -1.1404012372241328
Ni 3.780851459887061 2.7094073049695138 2.661739267648891 -0.2681640028395898 -0.5172432211335867 -0.48378956946083135
Ni 1.1858752203308018 3.3344900434086595 8.318978834623287 -1.0502203080626624 0.7041804186812002 -0.19910237215523774
Ni 3.424671354318309 2.721680981384317 6.970099993010185 1.0868032493930189 0.7772069475505712 0.3557753715016711
Ni 4.018100452628167 7.01870321052494 6.002735892639682 0.04217046272046286 -0.6964336848562458 0.07276787589134565
Ni 0.9988031089798246 7.405977832095339 11.438483847328213 -1.086190041289052 0.3251111096485949 0.36785389993276
P 0.02411989341589489 5.371649784333281 8.17775039267323 0.8382907022357691 -0.5383419507854148 -0.15893248480457145
P 8.496378098566094 1.7624404135005558 7.849690623472324 0.395280628685145 -1.2594086036989922 0.35583913486007107
P 1.8510886421247414 3.3161652010318186 10.554722331236501 0.535891175252077 -0.7187894268436266 -0.028592466925712046
P 3.8670557749855954 6.254091947846384 3.8742071529407305 0.7007392542101352 -0.7131440556323911 -0.2626723835973992
P 6.726759252717131 3.936116622880205 10.508024644821267 0.3520683549637292 0.35066838929240896 -0.012815920817745671
P 6.27106407055958 7.793667287695923 10.063114245635402 0.7260049707554594 -0.2971609042925721 0.3769355505190541
P 2.1582281508208263 8.375273616145526 5.952118024639204 0.0751407469988964 0.23478285627598275 -0.022503066198522534
P 6.941895788023191 3.890006918612101 1.5434846996774718 -0.4941228330660393 0.7919504244083329 0.9625482613659745
Ni 5.4950989808375 2.7630651849607553 0.48348094586192275 -1.1895391324013644 0.59148228225382 -0.6376214998140438
Ni 1.5150009326266591 1.2873382132352484 6.8846360664742186 -0.9873290678550803 -0.784600668911481 0.343372369851628
Ni 6.98374893441636 0.8401615577062235 9.141207838655125 -0.5523943151134229 -0.5457477563311827 -0.38119998222236284
Ni 2.713654844713358 1.7156453312695386 9.295846241537449 0.38668054572095983 -0.7840576519238174 -0.21690263356145223
Ni 6.382807732907728 1.6826840621320618 2.433423635566495 0.07047008099610445 0.8104610816180107 1.0315165610055719
Ni 3.845917275708373 7.001406435092469 10.472796217527522 0.329102233085859 -0.22322909000011235 -0.7956253021567588
Ni 8.104892009776215 7.2882551488338825 0.2043977448029391 -0.19301888496531922 -0.03969243349361551 0.2073353015879913
Ni 7.479755162550523 3.649006383337153 8.430813580095453 0.380620455569809 0.4249994959058164 -0.4932599708451118
Ni 3.259134540012556 8.5267150915561 12.517682693170883 -0.5236033590236595 -0.8404396302579719 0.33476457357795897
Ni 0.022842024240305157 4.626382412844846 10.358783593396888 -0.16975040135568184 0.23450389158298324 -0.16614648605450744
Ni 8.427218051229485 2.1835781173175284 5.599850886150822 0.7268305519805482 0.5799647685325238 0.6427595923715576
Ni 3.9954739617209367 2.7290307582234536 11.380144655487653 -0.7696872421347584 -0.362275377403718 0.5924533879178377
Ni 1.052460988971066 3.4461345063148054 12.734713036006045 0.11442051843512552 -0.329262155702491 -0.33683739694658765
Ni 3.113140015780924 8.420986522645627 8.05422183661541 -0.5802339630335104 -0.24981455379812456 0.2910761315510729
Ni 5.693560991756366 7.7961743281392115 3.536090363947181 -1.0908149416555728 0.06944781037917717 -0.1840634755442443
Ni 3.1439910422431154 8.362738413929085 3.891604029628311 -0.09208868770714462 0.3047130056082171 -0.6621986749327756
Ni 3.330224467402633 4.514169807679968 9.238509865874201 -0.11602360125618728 -0.27238961088516317 0.356009084779032
Ni 7.2486835896067285 6.075244372050367 11.365929375448966 -0.37691395325249927 0.3935777870614254 -0.8440959960636367
Ni 0.7351192685717727 8.953209565241108 0.4112502248888389 0.04890598167208352 0.6021400190779823 -0.18736425778270313
Ni 4.568972990319762 0.353318652573589 1.6194579450533062 -0.19154435730232172 -1.2516122475830254 -0.22152239172165072
Ni 6.054087836510964 5.657560612441234 0.28656734805137546 -0.47736283999888107 -0.8017434992393547 0.5711404853726744
Ni 7.9750760127217735 8.7347273033003 11.156568051293558 0.20721137441561735 -0.07849372263152933 0.301075665965946
Ni 0.09957279262778056 4.859528155939562 5.842869679163928 -0.7355715313979719 -0.8757920416153367 -0.4022475469212814
Ni 7.912309820328658 8.646836597687754 2.411328312580521 -0.18851739755053984 0.2998515637508578 0.2941622266755643
P 8.439302346891377 1.5751879395277593 3.440991466153628 0.3409604179760257 -0.6356350655116344 0.34696754340205405
P 1.872777247398512 3.2939625622858624 1.6158281472891929 -0.008126485761876327 -0.4864329206209493 -0.316261629677765
P 4.593177654167912 1.1784442803118467 8.114052627338417 0.11913566452260771 -0.1159634374422132 0.7741077397999572
P 8.601051546138926 1.526336723408002 12.412896518959414 1.0014143423035529 0.10880291513803197 -0.05039362196120353
P 6.220282974386357 7.61438684160754 1.2715032768526233 0.3569971597239142 0.6603425955606435 0.6012709862094677
P 1.6157785475681925 3.2577457478245475 5.860596619449438 0.642462372846113 0.1670358306379962 0.6631186156438837
P 6.925591007010726 3.872971668981268 5.954744104412893 0.16817585777971036 0.5853879964306241 0.5898424326575519
P 2.3578805550436996 8.55716932025029 10.323898756897709 0.5636441769956293 0.7575300379469341 -1.5287735688252186
