# total energy = -340894.81716884853 ev
CRYSTAL
PRIMVEC
9.05529958434737 0.00000000000000 0.00000000000000
0.00000000000000 9.05529958434737 0.00000000000000
0.00000000000000 0.00000000000000 13.25334626540807
PRIMCOORD
 96 1
Ni 6.217676475496341 1.9986675817372885 11.440500627816757 0.7019103917001008 0.12361684022241291 0.6573416039507904
Ni 4.548766678156089 0.40717244483719206 6.206011438758087 0.2326349566950445 -0.8998480541232761 -0.056897741628308456
Ni 2.8678404984593215 1.4937531402776456 4.799354885081551 -0.7865277107308647 0.13750131151398898 0.3280290546263383
Ni 3.718766986810308 4.4014731774695175 4.9219084021688495 -0.7877091326334756 1.1038841161347053 -0.3408300630457485
Ni 4.957350844175934 4.826501767271904 2.254884562794484 -0.4867512231923166 -0.945951790459874 0.9070846810810314
Ni 7.359558790145141 6.015553136702233 2.454148238025527 0.30956236328071846 0.14333128793220476 0.3493964645585208
Ni 4.985023839263735 4.5017877846627945 11.677920618296973 0.24746070885396737 -0.007265166202845553 -0.46407872129546524
Ni 5.796297171368164 7.847050835482753 12.527407314037042 -1.4963820398683907 0.8293530334265072 -0.2841259254854849
Ni 1.591649982520516 6.6067283606246985 0.27753406146825277 1.4709597431405441 0.4648981318729671 0.5288964891017988
Ni 2.8823833093595206 1.8067133442139918 0.40224726747192546 -1.2480199022460765 -1.9143968769262576 0.3832265257340884
Ni 0.32297083746696237 -0.06822715362861027 4.999241564914048 0.7101950003063963 0.20402680604004864 -0.3409323929515677
Ni 8.56941018238852 2.1892997455423857 1.4460462007093968 0.8020031806586446 1.0966582878102273 -0.2828768835697322
Ni 6.915314854931658 0.7004871766390541 4.916090372278826 0.0639217383546254 1.5111519990887134 -0.3512332606569435
Ni 0.84335716354932 7.614891068447076 2.835354611719307 0.37123001549384455 -0.3396267867662667 -0.8542235714159417
Ni 7.788707541192602 3.742781640924459 3.6865509479935974 0.1484189868677573 0.08305820207376018 -0.016033913534411096
Ni 7.603037681480475 3.721103254065757 12.761501293033044 -0.6077182844967083 -0.044231459014549626 -0.616561336709635
Ni 8.044709911653078 8.994031283716117 7.0695465260489465 0.046886894359525706 -0.4026342408367388 -0.2142160878682246
Ni 6.694293106206843 0.8443414745984181 0.5107071165112352 0.3712297583835284 -0.4935679890038338 -1.2702982540283025
Ni 1.9001549791325172 6.1651919599436935 9.266050667825578 0.23671555452232132 0.8202086479230777 -0.9662231391144004
Ni 9.189227318438837 4.758215754196935 1.183180818803555 -0.07971319686092723 -0.5004449186293253 1.0778915487256855
Ni 6.612243037983492 1.9943210380062204 7.190987146835103 0.06644141945268557 -0.14725170603253349 -0.46692313272279584
Ni 3.040190012695613 4.123710922455384 0.15127511585021894 0.796877429396305 1.693746346286599 0.725330570396254
Ni 6.073706269704148 5.588695376413022 4.571490046570136 0.04977938541597233 -1.185591460607526 0.37684427635682843
Ni 5.490128442011612 2.8913480558048485 9.302099814895124 0.5549355934780379 0.6717570080451721 0.3205859680847318
P 0.025075935208487297 5.534852565944416 12.381183244214302 0.8446189584466423 -0.7116546155710582 -0.7646787331765734
P 3.945556961278228 6.152342490038723 12.687521307670377 -0.17170778219236882 0.0430693203856484 0.08620291835032896
P 2.391097093556664 8.490447971274115 1.4163185581787228 0.5809574714630962 -0.3481823896457616 -0.18648494050154335
P 6.430620897120921 7.9866292210466785 5.851219373529986 -0.4288438093525711 -1.4905896015563296 1.2032374558240633
P 4.663678428046203 0.9389349436056766 12.699103941183731 0.5017592665653746 -0.27661676159263326 -0.5615739247301619
P 3.9900909239227973 6.062088320522982 8.096442837352226 -0.2522331905419462 1.5096502177322066 0.3225430918111026
P 4.907555752556886 1.0445197350728734 3.9139385722245392 -0.6316670820028218 -0.09391777049608342 -0.33253414158554345
P 0.2610570386077286 5.510846967129704 3.403022278296246 0.286197720412849 -0.009815957649157289 0.42371805809023155
Ni 1.5563795912027858 1.0669949882822718 2.543687944415475 0.04123201006659351 0.6484155051057543 0.5423107056251758
Ni 1.906222029757133 6.462712878335308 4.624052437697966 0.6726982889125188 -0.02332067700381145 1.2143857591313987
Ni 5.833016410596251 5.618541643366356 9.249629787821581 0.6191044148464627 0.4134632131314428 -0.11754106634197822
Ni 8.554659099601206 2.418362600169677 10.205076164425654 -0.16915956184921835 0.03547556719879051 0.6756224045378493
Ni 2.3900557341210957 5.055618953695833 6.9948774323989165 0.22316146998697053 1.4156632845610844 -0.08737405584029467
Ni 0.44483434073695355 -0.04111105945635286 9.064453441928919 0.7938957210601617 0.5877873499007361 0.4261876026766467
Ni 1.2622453548016286 1.1589696646915615 11.325858725849947 0.2525028992635651 -0.5187367749599776 0.21388158734694135
Ni 4.134242235703784 6.914182942501692 1.5550149575772192 -0.18785533848650873 1.2950870309372082 -0.7625945969540351
Ni 5.4909705848595065 7.994434889163722 8.05440270417336 -0.13343074098904115 -0.12745292613905146 -0.504729404937292
Ni 5.079398170024551 2.6761579199192163 5.446171301941353 0.845836118683195 -0.6352576275675575 -1.477611701239423
Ni 0.8345988779312177 7.2644600354291455 6.802863429899317 -0.058923513809085615 0.5049266085497627 0.185734435488764
Ni 5.273045748543077 4.64565838216115 6.981107038540926 0.05259885714263845 -0.910829235725128 0.45115070037988747
Ni 7.946813069410206 7.3525409330793545 9.03006141465684 0.09466519018506923 -1.2395859125461102 -0.3130883741561059
Ni 4.57117854426941 0.4076596199470493 10.353434568326335 0.13545162807381186 -0.8984786845795751 -0.0024816287712731457
Ni 8.153645163912971 6.939094071260377 4.708887010499033 0.21731863805294835 0.40992100430613926 -0.3921189431277118
Ni 7.201199713543225 6.16166944846164 6.806176763964312 0.20184471078706526 -0.07201454266508887 0.8589762556095787
Ni 2.3195240067850755 5.367112199122944 2.4113003721366355 0.061634742092661586 -0.585307778011992 0.2958095324710002
Ni 2.235499883283864 5.221086440357934 11.457331712885376 -0.24717943016812274 0.000559214937579682 -0.47648403693835356
Ni 1.238656299761144 3.335727820509928 3.9024872405530626 -0.2031773135555598 0.19831175793314232 -0.5265583278869254
Ni 3.7387973091709803 2.9119669726291026 3.1001695995945213 0.05854941829911852 -0.6127255079033125 -1.3009321768640756
Ni 1.162709503360168 3.4738664134629373 8.308509800461097 -0.43462827724483205 -0.17813991097095774 -0.18680427151417506
Ni 3.6237316191903908 2.76405771158063 7.279466477660659 -0.8961495222257663 0.5270386099574537 -0.05589681116761986
Ni 4.31403520607953 6.685916954225097 5.9468424300835405 -0.12854950163733989 1.4944776237568262 0.3266144336669988
Ni 0.6623471609288751 7.333859850335201 11.14424835687665 0.22448121723965855 0.1768679862370696 -0.08186186777281385
P 0.15197146837713382 5.637693601681376 8.021839847388106 -0.4851100880444677 -0.5307875354769246 0.370003342175595
P 8.700422254682465 1.8455605788104132 8.10239307461407 -0.29398662032964856 -0.812171636551214 -0.5363778850805085
P 1.8499523990386801 3.2344171303782807 10.37929197587647 -0.5596278567473846 0.5501222312497945 0.5345446885265116
P 4.113061890314267 6.242062396887522 3.722228827786115 -0.5947354990837951 -0.5606655539832796 -0.0703258421087563
P 6.872465177982877 4.08920117629059 10.570338872395906 -0.12970392695675725 -0.08832073602428016 -0.1444348054090287
P 6.150875531529488 7.839706987637135 10.13450278271221 -0.034033178325309124 -0.22521629563347018 1.0524329994432648
P 2.361585872682599 8.58187027441758 5.676978207240736 0.3099621698222984 -1.2452731927388747 0.3294889270013164
P 6.808598151034495 3.965831776723773 1.5745236946901635 0.6436628209121172 -0.9676441878316432 0.3713665410717088
Ni 5.016409507121823 2.8386914895628457 0.5765590650968055 1.4974289930756663 0.5737229013878701 0.22152316305259911
Ni 1.671028737409148 0.9802180537513842 7.092965341459964 -1.2573375801025766 1.8759468004801756 -0.6884668646006853
Ni 6.994512503831496 0.7012514439117669 9.26090816327376 -0.6921617969537692 0.06513247083327492 -0.13134043411891574
Ni 2.6264805471928834 1.513321642366892 9.31038269729264 0.38199471020951636 0.152175368586396 -0.8777121414561851
Ni 6.51143038932103 1.7900606485443369 2.683259085739849 -0.6902280702661661 1.1773413047835917 0.3225772874831477
Ni 4.015165048071396 6.747882368291137 10.516132944419768 0.33559426856810587 0.8917146263828643 0.010752610530813741
Ni 8.261357950748504 7.176469690773335 0.16066998901893395 -1.0557312105785626 0.6613772074727449 0.8192059176901763
Ni 7.618169086844256 3.9372351410931206 8.270923063546686 0.2824896754336425 0.5541370088361424 -0.4544944200411399
Ni 2.8489601991274944 8.472545644281777 12.199254128700725 0.6565098520781145 -0.2866569194374547 0.5012730709575755
Ni -0.1031253721393676 4.811759739784032 10.213266682768884 0.7105014758032215 0.6809895823870337 0.3325619094996853
Ni 8.767712184819064 2.372696725095142 5.766398383678079 0.1851312546871263 0.4838319926629925 0.7472494819565324
Ni 3.608663600922688 2.501454027828596 11.42242262801529 0.16544740310495376 0.270513734018689 -0.0006805710067923763
Ni 0.977555795716105 3.349727313443743 12.535174044366494 -0.46468704430342556 -0.4367666637440736 -0.29817674715159614
Ni 2.979075796776907 8.359970161647112 8.005922442032958 1.0019031090145132 -1.3373066017280517 -0.6517553681122646
Ni 5.883173714192889 7.8415180475250805 3.6744367684031327 -0.4631161002718798 0.3861899792377865 -0.5882180096802515
Ni 3.367430423848406 8.307721083879898 3.726377060459453 -0.012831347436713384 0.39331450609770974 -0.48244436828684656
Ni 3.669216388276131 4.272570989945028 9.179241134216706 -1.445568299650633 -0.1323490778890882 1.1974105647296411
Ni 7.213768469165564 6.316007972112319 11.322333497778063 -0.020910267790105925 -1.233292880448547 -0.1786207072621182
Ni 0.5754307747866158 -0.026656990490663335 0.2768757411989847 0.3193875769012564 0.7115646269604132 0.039563878335551216
Ni 4.627258013699628 0.3457050722403367 1.6830686635442065 -0.5807944635226707 -0.316047713894746 0.3812820004132079
Ni 6.098200854688606 5.719517287418733 0.3811900741547883 -0.07444037849776212 0.07839859181456175 -0.819343214598989
Ni 7.863984245435039 8.884715708879755 11.362915727747136 0.11898679764956928 -0.032067312848189936 0.19379535812002754
Ni 0.19338588036471746 4.975044899281158 5.872053806480906 -0.4225289228781368 -0.9832515553515969 -0.5705200781798561
Ni 8.08514182365145 8.990273334448633 2.445110143654737 -0.2805415505683362 -0.8861150208078997 -0.2058677159035293
P 8.727135388029653 1.546744752598918 3.7047475722177254 -0.4645842001769741 0.867270377297571 -0.19921010137769565
P 1.8835928364572596 3.222699572903277 1.7750342846540568 -0.08603656797579377 -0.1412648923214793 -0.631487619002164
P 4.733911330500712 1.2966917138703435 8.252752699690934 0.2831136821708866 -2.6654701035042545 -0.04662464183707454
P 8.449481796608797 1.589829867333131 12.481869118684608 -0.16306141937128046 0.4759219937872965 0.12478232128542381
P 6.483014859679172 7.806030329020797 1.4457410371182782 -0.6482391274288901 -0.01942751259699235 -0.3034775905392193
P 2.0066090793459277 3.279720793475227 5.922045398097798 -0.794885852887573 -0.8217515669301654 0.09894890516208765
P 6.910017504759418 3.7788488985928854 5.816072134284636 0.9813810778017614 0.942544564550538 -0.10983675571918504
P 2.372243960123156 8.480206427607785 10.002313521491098 -0.6119593191612492 -0.600831584679204 2.1164539608344453
