# total energy = -340856.6464896566 ev
CRYSTAL
PRIMVEC
9.38753357026382 0.00000000000000 0.00000000000000

0.00000000000000 9.38753357026382 0.00000000000000

0.00000000000000 0.00000000000000 13.73960428651209

PRIMCOORD
 96 1
Ni 7.930531802942631 8.818273276576525 12.59297882342 0.7428202425405852 -2.215175323366759 -1.9482189676820256
Ni 2.5059832381999985 4.595319586140356 1.219313843401951 -0.016888291114906397 0.41692160399368844 0.3151727674889604
Ni 0.6072569988139496 6.260452079518097 8.568869046991729 1.9959926355218784 1.002960089524118 -0.2164452343090595
Ni 4.187055763113707 3.2022096450698863 5.431704681373885 0.21141332831210685 -1.0579444161797973 0.851880782215378
Ni 8.02119659951176 5.970292812883682 9.564247977393238 -2.4443786286724354 -0.7804701916828752 -0.5463707346271622
Ni 3.101659775940467 0.49470047459942845 8.136758073134208 0.21122460934006845 0.26751557062231346 0.09849433412317231
Ni 4.432511596194364 5.243547535269723 6.330673644829346 -1.527212652096002 2.153025332200576 0.03862542568168187
Ni 2.835673407542282 2.596835785435039 9.5536278609759 -0.3034405666536968 -0.5318856536371098 -1.71779361704379
Ni 7.998985695734315 1.216605540046164 10.209074823209601 -0.6813839896119749 0.4233105382391677 -0.5710430405628617
Ni 5.519832027693207 4.4268790762169905 3.846525809074967 0.244272798044289 0.08927384396616883 1.3906801322531857
Ni 4.780770306395391 7.106494130252834 9.936083477466223 -0.09232651474956356 0.8988718062529358 0.16453466148269727
Ni 1.742682905932883 8.217414820456872 7.0409428627561566 -1.2257497779939663 -0.24214263907516362 -0.2618252051057556
Ni 2.966648272082816 0.5933653270430864 2.950250128922021 -0.44717937443696537 -0.8183566823160034 0.345923675518572
Ni 7.354156033657962 4.904713908497503 2.444879783978787 -0.8949441890637554 0.26096002889198283 -1.3282825438525705
Ni 1.2292787099952553 4.4479728635322555 5.3778737491967945 1.2824153490068109 -0.842599099803136 1.022863256205948
Ni 3.183218665212841 8.588954613231044 4.903376185002876 0.12947175634129315 0.20617521984161913 0.5142648552315531
Ni 3.617457792868479 5.596377974185717 11.326214754221992 0.08521432918481453 0.35993747329916076 0.6940849821184111
Ni 4.535398961114394 3.1521459300043286 10.825709029032549 0.05459814696085436 0.04994830689366882 0.8299395020575964
Ni 2.4762341451861687 6.391370618858857 4.800851178868058 0.22716827715351845 0.2659744513874387 1.8301793644370739
Ni 0.0072312168976184825 1.6121023177907656 4.257491364184097 0.2843652951898006 -0.19042875564063977 -0.42777474465810844
Ni 3.6820815720755484 6.710800214309025 0.8209031753223881 -0.37727185081255027 -0.495965542701733 0.0833101701835662
Ni 4.188473280641346 4.20171909012147 13.161208091310725 -0.31203936406630134 2.3097734077593186 1.044961630766884
Ni 2.9616259417696575 4.788965622962469 3.3738419163137636 0.6819997688191028 -0.42922896060613175 0.9306881794325843
Ni 0.1747592585846494 6.185060799620947 11.132183828534757 1.1731244384887667 1.2776079003158383 1.300694606931973
P 4.701896251645565 4.879442668865685 1.919972104740703 -0.27667795384787186 0.01172037376072175 -1.1750016009068216
P 1.0218611618284625 1.6448366463926036 8.18336342093366 0.6845310198813889 0.24811222639503724 -1.305247516409978
P 0.24850114888175762 9.101880044970596 11.484358078873388 2.4527509118965307 0.654431372282531 -1.3165351735086552
P 0.5848414468106607 8.444395988011744 4.283720132212068 0.8152641594336087 0.3701969462436399 1.0952112709510557
P 6.982606853350496 1.1370837454989406 7.7715323352546735 -0.006292774987247227 1.269627196103207 -0.11712583318143054
P 9.367819475702303 4.116855789129038 9.609232098192535 -1.0682838504325922 0.3500050446767972 -1.1967690744909003
P 8.917321140378645 4.074621276832029 13.356214381707375 -0.7179751584724473 -0.016197692805785008 -0.01025510206910492
P 4.637037784106105 3.5705764515901373 7.803421785859904 -0.29700226722752077 0.4336653991109306 0.5952949711316908
Ni 2.195621999913403 7.657392134173181 12.749101950906178 0.8644161956782274 -2.1570514226408335 -2.2890246052477417
Ni 8.881395050456296 2.9216350499303028 6.654721906660961 -0.2543363529278781 -2.0799314404283793 -0.79345220576484
Ni 2.367930173554565 2.645772996505122 4.167207701466771 -0.7405797832458407 -0.509438123266871 -0.6025578233416913
Ni 5.150714218509306 8.578618939072562 1.3322515014682745 2.031861838614662 -0.07440978237014281 0.42862320870133286
Ni 7.701278852330219 4.273421069433439 11.450640875535498 2.2467870367347693 -1.0089389328153722 0.5954479517697874
Ni 6.933021902483015 7.453823474657593 3.170743572216287 2.9901878343691726 -0.09185034644409341 0.09190176850731915
Ni 8.814903152123398 9.018218348240003 2.4486854899768327 -1.3290428190573629 -2.0983906755748314 2.052270998398633
Ni 5.735322854494235 0.27948845753727997 10.614668831766975 -0.5165832189520845 0.03836163049733394 0.8192236583019891
Ni 1.0320466354542135 9.127038634202865 9.293261808761805 -0.625861016844006 0.27404308732818616 -0.21721425126460012
Ni 3.111976675032357 1.7266677741305503 0.9320684671024979 0.5366326814037918 2.2758307322652866 -0.6694813246371181
Ni 8.009265044693022 2.552432752946742 1.8959963447036816 2.5990140287635497 1.046000870664676 0.680686192214002
Ni 0.8344249782814036 1.9594034995956382 10.492413108151418 0.14731392672903662 -1.0413214629111356 -0.5292559293237465
Ni 6.37885703697579 1.4137625143208408 3.3996041239369426 1.9097650345812016 0.09342514713038103 -0.18334150977655522
Ni 5.002381804905165 2.2469060943073917 13.027205747282352 -1.849686067011434 -1.3178559492026078 0.050386422872351934
Ni 0.2651152053083514 6.6281148210411756 5.79596913584395 -0.30975802423129234 1.5017736431976072 -0.18545367102355156
Ni 6.450530853687874 4.17799679348343 6.603858373758615 -1.3898807762803418 -1.936813811168877 -2.219326112310339
Ni 0.7288180449656324 1.2179385697741425 1.6456064241228445 3.122796850787867 2.847205959356587 1.2510370918058453
Ni 2.7914111880534187 4.976857101874366 9.282586305898022 0.537114763246533 0.62278983411785 -0.8533689367251304
Ni 1.5874694304230506 3.141340879181066 13.565110466368228 -1.5311945195618855 -1.3566819209308698 -1.2245768407317876
Ni 6.278091254580572 0.524417650000053 13.085557715494616 -0.3597307566049934 0.48010646418228925 0.7897397899102592
Ni 9.03844848249207 1.783884789567373 12.551142342534725 -1.4043758845727234 0.9108348921520829 0.2365422621692507
Ni 4.619436159176812 2.4294560667740788 2.594627837603908 -1.1429908523281798 1.4800527065807478 -0.3917736439731511
Ni 8.375397618288913 5.082157062851371 7.151930730156979 1.6542115214167705 1.743140580449011 -0.10443872463206531
Ni 5.940994321468042 5.7633446413816705 8.266487212006412 -0.780793379350249 1.583361688483744 -0.8296800777486227
P 6.393942802981857 1.6284272381918543 1.203013330587431 -2.924633959727763 -0.2597153578516044 -0.7666569399488667
P 7.545464574689467 3.879679760415119 4.804849329298664 -0.0008754606264178472 -1.1875642680631804 -0.35638857960563786
P 2.2160774349645656 5.984890427158375 7.04970800259428 0.42405847214878584 -0.8301834997476024 -0.6497182830775778
P 0.9845738795782476 3.2838999598083984 2.5360421198125835 0.2136278194649224 0.11517333744075003 0.2085969419092343
P 6.4944363469115025 2.342912397321729 11.380390208871033 0.18728995290134196 -0.07322733202626744 0.24200971304172514
P 8.222812652101856 7.241843585309128 7.6160269074593465 -0.40515752147922485 0.3554943499261426 0.12091923878559174
P 3.201017428341342 9.101542093771954 0.9416672198972725 -1.575917573500873 -2.5831876032542542 -0.6747346026162573
P 9.444984999392323 6.630076815499961 2.3645309477482197 -0.08045830255706789 0.301007788842488 0.04215349343959837
Ni 5.339882401949407 0.43649776816656516 6.413358099343864 -0.8893008747350492 -1.0209760664855643 0.16422047267638817
Ni 1.1376657725632693 4.102680613852646 11.319001373637633 0.6880472605647634 -0.5340950025836028 0.543696787339425
Ni 7.162256078028835 3.900839260463454 8.683814698429988 0.8845906137435733 -3.215112566904153 2.1786710577931383
Ni 1.1901139210859155 3.910301894025442 7.767904992389244 0.7766518463780495 0.04336011215318984 0.8490350852364669
Ni 1.0378481310309087 7.775900354497127 0.7684935156862539 -1.7107945600181376 0.573637026542283 1.6351678745217577
Ni 1.6184858404317894 0.5781143404510172 13.143992293999881 0.082212052023381 -0.3332077706138003 -0.24284403601756238
Ni 5.421478841354964 8.846219963197596 3.805485391013162 -1.0496137848269151 2.1966006456883655 2.443396210154508
Ni 8.800831239713258 0.014909280380108624 7.261888785155271 0.7504574473708687 0.16739038576393753 1.1654584373030767
Ni 9.1297516313253 4.878945129601017 3.823731939479865 1.0791285064565803 0.519393177597054 -0.9823681243053791
Ni 6.337739641140962 8.675639095682829 8.578321354267091 0.4460177500286964 -1.0492831409603736 -0.8017591829686386
Ni 8.38868097790222 8.255518818103807 9.91324830272462 -1.2921130359105488 -0.7198332947271087 0.41598443689139974
Ni 3.9187976116579812 7.596579693484134 7.309153137792075 1.6478508693060652 -0.45458492287241714 0.20480225075349245
Ni 4.822028515229654 6.888327856462553 3.22217035711637 -2.355314072503595 -3.3238378347267146 -0.08213440470791017
Ni 2.7577005559888366 9.208635073608422 10.965989755329034 0.33714387244341293 0.3767149498678158 -0.05706049245841786
Ni 7.225199488775988 1.6125810819888422 5.525340632231078 -0.8504700179107805 3.927798966173836 1.2865476260076294
Ni 5.890001240606217 4.875002365616856 10.402817551624661 -1.5826543780040743 1.494063419037543 0.06046051927890233
Ni 2.4631385362387745 7.406669894913678 2.7305818498044405 -0.9606052787069909 0.794550066814709 0.03556247048564198
Ni 7.977169068355287 6.589701034795486 12.956212526734204 0.8526716535477896 -1.8451812371625447 0.6332933047523351
Ni 4.342625964888773 8.773644943289135 12.714849658170438 -0.7194795109321157 -0.04277852861810698 0.1385420940736775
Ni 7.944331476887196 9.126381506872171 5.168413473784874 0.9294651056587605 -3.99385060638727 -2.1041800285630985
Ni 1.9075092155374336 1.0093288048788056 5.911684565012448 -0.6322959738360723 0.3530983388901403 0.5161929254922013
Ni 6.69746991702924 3.6480048262124365 -0.07111525848099287 0.9448120204284761 0.28740125380264697 0.6322219260650274
Ni 5.536335311226912 6.736343692406415 13.209873063915236 1.1589730866890493 -0.324967384981879 -0.8250685471185403
Ni 7.4027740685959955 6.0942176399192025 5.062232962184741 -1.3557509244761683 0.5327659993595341 0.37732301576545985
P 2.7764286849136046 7.900548021596411 9.260657966872776 1.1612179168591679 -0.9667931526852576 -0.8688652325885166
P 5.37097391222451 7.290668145979664 5.582607401594369 0.06345071225547783 0.26430272011197065 -0.7220084480015565
P 2.927070431708469 1.8228430527442088 11.827160754722998 0.5056280054921615 1.0730357632952812 0.18768590278818
P 8.845853849399067 0.2761586994773224 0.4536459752376799 -0.7836172219522891 -0.30437207732903065 -0.43668541688417695
P 7.147076436689813 6.76241287236836 1.2614779491992425 -0.7763127178710759 -0.2786075667704169 -1.7560179506323113
P 4.25308767231512 1.2015197740400976 4.6432025772213406 -0.1332160538750738 0.35120909228722735 -0.18927510165217082
P 6.823150212791042 6.851603826210075 11.141417406284333 -0.9809331916310656 0.4530384043209036 0.23971551769090974
P 2.1300876299766576 5.179355582594252 12.867674945209863 0.9333513280870442 2.2374619026791014 0.2830779438369448
