# total energy = -340865.27254133596 ev
CRYSTAL
PRIMVEC
9.32538144288852 0.00000000000000 0.00000000000000
0.00000000000000 9.32538144288852 0.00000000000000
0.00000000000000 0.00000000000000 13.64863836566991
PRIMCOORD
 96 1
Ni 5.722231229230438 1.233598757417093 9.750887396809334 1.61947643192843 -0.09125179362814607 -1.6706511550300325
Ni 4.991606244756772 2.7963555032572085 11.305139394783009 0.9386192613542028 -0.23220635379805815 0.5022930275816575
Ni 2.6001401525359347 1.4028451050355717 12.713638478581107 0.26082915974107335 0.2858171971449787 0.1115110580978144
Ni 9.248950606281202 8.852808403028517 9.242980497088114 -0.2125836944711242 1.0184113910821815 0.9923067235753298
Ni 7.166294520197669 4.278746111912023 0.22179207437619755 -0.9156348846438876 0.8183813649063518 0.7360345870773194
Ni 1.0182104224705946 0.2939089791463084 0.9164910268811494 -1.8986653251236139 2.659665581007336 0.8060344133052249
Ni 0.6590442891359237 3.7655237447742755 4.152611935194144 1.8712157135530934 -2.2199969131251187 -1.724923800330668
Ni 4.798831959784091 8.610124676629086 7.745916400749258 -1.237875357612907 0.0901557323504899 1.0495590203295795
Ni 3.652397542616594 6.744572795675631 2.688085959749574 0.36747723331963167 -1.3066611089280529 -0.39834024144707525
Ni 1.6714440664359265 3.173772340593429 11.112394018492768 -1.7274113426392121 -2.0505900111517845 0.555145909716631
Ni 0.3182239786934141 1.7734637393074981 8.28874965154963 -1.0166699829110426 -1.1989609399358963 2.5326435717581153
Ni 4.475455707849219 2.8949434357616197 0.07806276797147414 0.14252473287050937 -0.1902102118719305 0.6401033856956331
Ni 4.490460246574115 5.742318100836047 6.148902866216846 -0.33210271047507967 0.7368910215403438 1.655402456401078
Ni 7.809298220731544 0.3399651729651492 5.541606051188021 -0.580199253140833 0.37681753688395103 1.1259601220981381
Ni 7.099907129779686 2.4703867952841017 7.931401035056153 -0.015752891958882548 0.09408514931188312 -0.1009052575575101
Ni 2.6261952682583445 5.799305506770066 0.2902478343959081 -0.5593964574628689 -0.7493436454813998 0.1510201719360302
Ni 2.4773528552141806 8.501959577393494 3.7297907482012143 -0.13888790744887047 0.5256892950184108 0.9718255729028423
Ni 7.4136875642205124 7.722357689636329 4.261077311711861 2.7985326625205995 -0.5684914777856015 -1.0912157766384174
Ni 7.618202504416714 1.3737499149661654 1.3291661988755166 0.9223513774321146 -0.8283384761190637 -0.13053130795405907
Ni 7.140314007526717 6.789045539727233 13.05662880528296 0.23900229367396902 -0.20753636185520385 -0.6712065348583408
Ni 8.443181698224436 6.979469828578924 6.39399160848772 0.5926773310031856 1.731595298813573 1.6844330393054734
Ni 0.28364826195612647 4.217319824416132 0.9543063811280882 1.5040704096515838 -0.33016564135336685 -0.6892816471924967
Ni 2.0319260110907233 4.858309242560589 9.786278151883824 -0.0948762777546108 2.491309231785703 -0.9215193684491226
Ni 2.245794308863724 2.293726769426784 6.847903617176613 -0.024707787159325187 2.582902210803352 0.3759235643147719
P 5.182394223484329 5.484154241258661 12.675681378536394 -0.493634323465395 -0.4111985854669821 -1.5208486575511873
P 6.081174485948871 2.9052106807188043 1.5898479114396773 0.23336489288253356 -2.061582505607546 -0.0465397954327521
P 1.7639984771535084 6.307240382635584 11.92342337421561 0.5288597223265924 0.026961101969876153 0.6448414146012508
P 0.46621125426021787 2.4068343208216008 2.1907428521150916 1.7503682085457017 -1.5027817727471473 -0.39049580570199194
P 8.148052026648612 3.5524854059487674 12.173506790781731 -0.12576653957556402 -3.594331257030429 -1.2660132534997035
P 4.419559371542802 8.907874780387441 2.0226052923489375 -0.10424229235054304 -0.22569606348336615 0.27140256438154553
P 8.119814771670995 8.660146022633027 0.18744203186957645 0.9748486759998822 0.6556786144260708 0.49796791784374234
P 6.033148771571486 1.892520884056251 5.701227672630013 -0.434797970053477 0.4639864186919751 0.5429817635502713
Ni 5.35984690676341 6.809113760569977 4.226642408234204 -0.48431227473352073 -0.8934267239779645 -1.0461363678012758
Ni 2.8225691504639716 7.438138714336533 10.560661556191363 -0.3978776999883599 0.3560353100312772 -0.8585006015247408
Ni 1.0487137451363087 6.938121087307209 8.829044533524073 -0.44159570970160084 -1.7544832591553399 -0.3568835169641854
Ni 8.035457371232583 1.6990565208575648 10.388169975834373 0.6609501472376552 0.4386998762110444 0.5201094869377881
Ni 0.39149629822301196 5.393045264663118 5.537115880028271 0.38108402546978887 0.20782715362274531 0.9880273794736856
Ni 5.444372164067608 3.961748420876982 5.035501747697702 1.061511050485133 0.6820781874655221 0.3855670009418069
Ni 6.816863152540386 5.069482505099597 11.301331841544119 0.03212927643437693 -0.19373725118858248 -1.1859778974126671
Ni 1.8252196062578843 7.232812465955704 6.492835056443383 0.24698659743102627 0.6281652394971504 0.41346938377902986
Ni 5.885891673370847 8.777655154063984 13.31739910897073 0.7058619201486811 0.023202149148076168 1.2541848934062079
Ni 9.124512716445896 7.503173924446802 11.30934327673278 -1.2448592451299076 -0.7013894861996243 -0.4883715324045589
Ni 3.5705859713092534 3.2525718136980712 9.516772763408229 0.2668982487532887 -1.1998184028401853 -0.8453411813246473
Ni 4.464880725304762 2.626978600298675 3.5817988099436944 -1.3344431641373278 -2.0698845977153386 -0.410576378501951
Ni 0.2022833764194034 8.338289807871652 2.561166585915079 -0.4491395834871298 -1.2592983033733733 1.243356435332136
Ni 6.939762354439329 7.614369772647956 8.879189907101066 -0.5093530197522325 0.773573721673358 0.31635367517093904
Ni 2.426529526407045 8.696515010219784 8.591353616343604 1.0332116893198076 0.5047335187023502 -0.22578245254958534
Ni 1.2803282437753605 0.28602157153069824 6.905747093126135 -0.8464107602397423 -1.7178653508219899 -1.9920539625891045
Ni 2.9687165282741432 3.8243389254690654 2.0830412243366965 -0.6439865228001233 1.5723918197358016 0.18333199669485847
Ni 8.097405880088694 3.4792065586521663 2.670383588176256 -1.6231870480107982 1.0405694152364595 -0.2280383384632976
Ni 5.083507878774078 7.977164411898013 10.788538441952268 1.7224915367400917 0.33527210934199675 -0.2892133673107212
Ni 6.703587744279784 1.7055376609531536 12.74900219004944 0.23019138025055844 0.7792885126699481 -0.38120461020805313
Ni 3.6690619992364746 0.6147888264716991 10.157412479748967 -2.5386347563445435 -0.06423952670536033 1.401969846234392
Ni 7.9313861144458615 3.7024748409091295 5.195504777240284 -2.461184387375865 1.8671101760251523 -0.08617746442903224
Ni 2.1822045328754927 1.5909380485291367 4.203057586053263 -0.44773164739600957 1.1860522022940283 0.14346678506880453
Ni 5.074051942001522 6.4594399329954495 0.799679433981343 0.6500862079399579 0.6589200041815039 1.678082414497097
P 4.541404805339873 0.6141024783982669 12.239457753348672 0.11418757648871303 0.9180843746256445 -0.6778934599602132
P 1.4317537874763278 6.3317474850402 2.3075479172478954 0.9316795968115761 0.3896553120785677 -0.26616985522769643
P 4.058182190270485 8.015034785895404 5.554258728715639 -0.6186439302702765 0.1942339883193429 -0.41951533286279363
P 2.842152451472226 3.886828306448261 4.77527604628559 0.42983059874587265 -1.1350993653952453 0.3343745372283919
P 0.42951494578517935 3.6536098422028185 7.6428140510933735 -0.2351440962701434 2.3183359526173493 -0.4219547955422217
P 7.861091389207661 9.074444743534793 7.655944188150336 -0.3705574149068521 1.2819078132427728 -1.4344505924709168
P 5.728619115511701 3.8438849249515896 9.42772842626184 0.39332530473098715 -0.37194683905521103 -0.5666245997801919
P 8.393384161374875 6.2646327148704835 9.529547603432615 0.7640570404321745 -0.5750675883412225 0.7991605690035269
Ni 3.6612380042146055 0.8724211393074315 5.916111504441013 1.9603394050946432 -1.6472682573297177 -0.9984511459101707
Ni 4.350439644365097 5.5354904660445845 10.399470473054278 0.6596831075997736 0.34567530695319176 0.11924622195854302
Ni 2.8611855549759624 1.5748237894137733 1.8169610484612604 0.07925014118157964 -1.6977017313899212 -0.11055383639086766
Ni 9.263134511440038 2.2257260880209797 5.9382770035679275 1.3996013460022154 -1.1426589229100579 0.6222185349954122
Ni 2.6882370309287804 6.02865393772102 4.716096243176789 -0.4075527611842787 -0.21111739433824286 -1.3993043835870869
Ni 7.966962444610855 5.063887276240095 7.703113832512218 -0.16602975797098504 -0.9458849417776807 -0.06981007881460236
Ni 3.3940378500291257 4.293769301399783 12.02899508487482 -0.6948791958849323 0.8889026108553659 1.2493579043312097
Ni 5.542344621397474 0.13401132641391308 3.965352680800644 -1.5953206606178332 -1.519262801121306 0.46749468895554974
Ni 8.819628695891675 6.473064315268335 1.0404654452592605 -0.1646670732955035 0.8654911739099609 -0.7874723340323212
Ni 6.238055377787853 7.8609608338676065 6.19066751950045 -0.3583940400714408 0.35509377205361425 1.1904148501380982
Ni 8.967007024050938 5.6187381460925305 3.2135171162587524 -0.6823083011984571 0.7162957138874954 0.7017517546350496
Ni 9.006863704293451 4.233182298232817 9.803311893608432 -0.18870765918447502 -1.0160722014260437 0.17608945619983224
Ni 6.811445105928102 8.150569879635388 2.1120991128803728 -0.5513702447242828 2.479756236840781 -1.5302216141256548
Ni 0.14346539811018358 1.66418891968144 12.617729728162253 -1.1288610977950173 0.915160001889998 0.5202827792908588
Ni 5.417776176222112 4.498787812193339 2.687034989262131 0.278385680567598 2.621808400950246 -0.25480737902702566
Ni 4.648553437999321 3.3739976053306795 7.276744337884222 0.3085940858301782 -0.666434053170362 0.4575077529461669
Ni 6.838600616659548 1.897481986978342 3.7114878220636425 0.3299033888309157 0.9262553404722111 -0.036539489686930625
Ni 3.851102770180346 7.721639635266026 12.792772732879175 -1.3934093582588907 -0.23947769064849078 -0.07837288078294889
Ni 2.19300332457433 4.791809947565417 6.971382857800657 0.8672966025498161 -0.1996980967577077 0.4897283035427694
Ni 5.472861204343902 5.8982011768617495 8.404435670910532 -0.1749345166597826 -0.3321309926098538 -1.148519752566209
Ni 9.276469806888514 5.233749099033118 12.263123706348077 0.19142582944658645 1.030457009392806 0.21931458543705454
Ni 2.495733182017642 7.989893557553379 1.1785351776725985 0.2055833518938911 0.8307296020590595 -0.4811863275100293
Ni 9.154027548679764 1.0816323415930404 3.7680891572063566 0.49776377225273627 -0.24006621616210913 -0.4582250907281657
Ni 1.1674072000091937 8.814723545258179 12.56021357310101 0.8720480011918723 -0.8879795848204641 -1.5963491018823475
P 3.2306385165688263 6.46246135657958 8.091445096277038 0.35792584218577067 0.11227518995734857 1.277153329276923
P 0.9744184312635652 1.055297464427655 10.726601123553875 0.3632176867123293 -0.5287118838948185 -0.44474736795670505
P 3.85950493885103 1.3003032108037798 8.068201583056528 -0.37289480479077713 0.18706318160251653 0.5843037622275099
P 6.78817827925401 5.76067045149521 5.9747868044143155 -1.3761654835767785 -1.5182497864757596 -0.7043038316329419
P 0.33723003859099643 8.268713137003754 5.245772313314044 0.42964059422225365 1.4731986597733917 -2.0538645681379983
P 2.1529228351774363 3.345340708188601 13.641322760795688 0.3645598025625205 0.2848152382430256 0.2043798185040932
P 7.132732472422093 9.01994721444325 10.671214885611816 0.043264210005273876 0.09991306884756987 0.21409113225458615
P 6.918798896979065 6.1605334819394635 2.2189549285628396 0.23857857587298908 -2.349058835622503 0.953887500367183
