# total energy = -381164.70286638825 ev
CRYSTAL
PRIMVEC
9.31948884239654 0.00000000000000 0.00000000000000

0.00000000000000 9.31948884239654 0.00000000000000

0.00000000000000 0.00000000000000 13.64001394921178

PRIMCOORD
 96 1
Ni 2.801112224596114 2.5397378348600412 12.389702446985776 0.255161934152967 -0.8394063038974512 -0.8132548423130639
Ni 0.1662438414187043 6.688075395698279 11.527053263090396 -1.6961906940620337 -1.8515688858564434 1.8221408104033137
Ni 8.637041500551925 1.2798361109628855 12.16661997383487 -2.2858431221959665 -1.5545555628853291 -0.10270785798388764
Ni 2.8138799245867867 7.921099713191711 9.388162495156514 -0.32952697932810343 1.7403563328356542 -0.0719276393782374
Ni 8.052476550249025 3.5364478686574885 0.8921118165599881 3.0775482633627127 1.639324577002609 -1.6817642342240584
Ni 0.09813515158524624 3.9358625301175394 4.190293900515618 -0.35514236590336257 0.32163369262295577 0.6071230741148704
Ni 2.3374862836209256 6.503437678752866 11.115384405486012 2.7125246337898963 0.8058567500767798 1.27120893876803
Ni 8.291092747738949 9.04124637938074 3.3809093243039565 -2.2350070133807054 -1.5403952122245472 -0.31431453325372316
Ni 4.22738546691188 3.9819101254853613 0.3207563100284601 3.172441510398188 -0.994756470667403 -1.4050646831096318
Ni 7.81596655728311 6.883346649643224 6.546852518465677 -2.116844511404645 0.7568504953814061 1.5428069069898334
Ni 0.45175570777947993 3.0742944069512976 12.75541876801059 0.244740738819643 2.1202576508512516 0.09979145566804104
Ni 3.8083066835683836 1.445834849819725 4.743628311082208 -0.4416733570170716 -0.7962230836417578 0.15212548918506705
Ni 8.14350931923362 2.2905999342391175 6.890157332236789 1.021591588582376 -0.20740574981461055 2.035640331820488
Ni 3.0037551943750898 6.969961980820827 13.283436786588375 -0.11883818788684694 -0.6527681256474952 0.4682701336689935
Ni 4.700237702040913 1.5715827154942892 13.535667825623097 -1.0746247050489557 0.28930104192852113 0.3142479416818459
Ni 8.16213897783315 3.3609246119973877 10.860042521008307 -0.11936063604922025 0.8572556733740462 -0.2640291547356098
Ni 8.797700172186389 1.1597451751382035 4.915656759350702 0.6178314616713102 2.3930586382422203 -0.9284469488068913
Ni 2.6235107218791365 9.101366403205434 0.8439962265732389 -0.13156463431457988 1.105602641487709 0.08346546481450788
Ni 2.4223588703472467 4.185270695920747 5.10874445701257 1.152980102330408 -0.6706632607603611 1.8879854768122646
Ni 5.560109678201094 6.371613506221427 5.573459846257035 -0.787263817565941 -0.22806713481870403 -0.42986350886633706
Ni 7.995497194232254 1.313078728383857 9.945261979296994 0.0297854587925487 -0.9264034360143013 -1.0570157337179409
Ni 3.0838841611778687 0.944772521353636 10.492758661926246 0.4864802289191171 0.2793498442530802 -0.2907184911013381
Ni 5.215922308817488 7.428238535084595 13.402282638676738 -0.2180048654866955 -0.49736088038736276 2.0949680230465275
Ni 5.155718409591394 6.909450538456272 10.810379895840207 -0.3345596566560044 -0.7329045260887701 -0.2007532774950994
P 4.399348678757064 0.4727310817714566 6.831560112921931 -0.128745676808546 -0.40338397451856983 -1.5036580047045134
Ni 6.749351036164466 8.970548735490778 10.76861367373933 -0.5738841095560826 -1.347074736858409 -0.3604612070131147
P 6.148859079084879 6.835071696393817 8.716896474376801 -0.05746904075074619 0.10245126188839129 0.009734453678944524
Ni 2.356507360760315 3.352695503171282 2.999562356254065 -1.0369798981129883 0.07583108819770165 0.9342658694815136
P 3.8775784456345685 5.682027233878457 4.000521145106802 0.21689363470038778 0.04329532035352543 1.4753547868844463
P 8.606650646778505 9.158299161776984 6.404654822679041 -0.2451991665133003 -2.18707213737264 2.449157023897685
P 3.4718824485586683 3.485405027161929 6.990670817426137 0.5061314274911412 0.7489350971890715 0.922591775577695
Ni 6.689333526719257 2.738587772597992 13.04721942557845 -0.3343773654418693 -0.7599952116579749 -1.6229556487262822
Ni 1.523615305383344 8.15703189783688 4.178209319071891 -0.6743530509071225 0.06146402084275221 0.07349806918915085
Ni 8.400941565103958 7.498125383427702 8.768142480733527 0.044882719445303344 0.015344343666554216 -0.14330172024584997
Ni 7.373421300526099 4.302696257878763 8.441736696446421 0.20311560707968887 -0.11273078943752844 -0.7386979928420956
Ni 9.007155688456738 8.413317846554772 13.138553214059176 0.9261278137554115 0.5483522838335653 0.6178106357357037
Ni 6.849022971493115 9.230105824863214 8.295269742728598 0.5028712686826307 0.16552170798631494 -0.8975330328368543
Ni 7.06259770192104 3.6049833910891746 4.576197166759262 -0.14151094689401436 0.13941884025167603 0.4421621237280321
Ni 4.066521766518443 7.5874992833624155 2.085258040432916 0.44400329070182887 -0.1745758477687832 -0.279053396058584
Ni 1.2321016880780475 3.027547849905154 7.11952859659478 0.059008360213408044 0.3356557179336606 -0.26730294039087515
Ni 8.254895852290938 0.9161365273672554 0.9659622435936313 -0.7878412873359658 0.07597815529852721 -0.5267678727945703
Ni 9.200283459921497 5.979542602128274 0.24325916693178737 -1.0038684602710002 0.7979498365248774 -0.9002216354126108
Ni 1.1536968267484613 2.3628166548432974 1.3996157758534882 0.22261408212393274 0.808380287829582 -2.8221557012561784
Ni 1.5144262891856772 5.755352973678907 3.7379911387292384 0.9444795767897218 1.0120749073411925 -0.18485306132507517
Ni 6.309536389697431 5.313199135461755 0.17336859079306166 0.5918802890231871 -0.48169154928122204 -0.010995322669239128
Ni 4.536932295517872 8.958097898127612 12.014738396982315 -1.593790854236868 0.24883676326588758 -1.7761021229766958
Ni 5.596250656714839 5.88607744650312 2.535815261921301 0.8443461644012298 -0.9765036951048022 0.047541497224389086
Ni 7.494425546277121 5.836879863838329 10.214679088078286 -0.33767223414305714 0.035419517149874485 1.02513045497357
Ni 0.19369532834755598 0.36402856155889335 8.382689345810723 -0.8465490855898194 0.08685109345728914 -0.8422903103134655
Ni 2.4577170117812717 5.411603620280381 8.78550562077194 1.6967722775971166 0.2782105884423144 -0.3504192493960803
Ni 8.17337828162056 2.415797950060069 2.785713632848238 0.7992171332730752 -1.16023884077535 1.2535362040786153
Ni 0.8410838862468991 1.8195370410065883 10.328805550914625 2.2851499527836836 -0.1992044449507408 1.0382525941778247
Ni 2.3676441501682377 1.1150768641489361 8.254718781999095 1.2682678538618353 0.11353065963100449 -0.33568631406127997
Ni 1.7563229468191899 4.373682805929097 10.777030104295225 -0.23285375757406993 -1.9891285614121939 0.5224851862588162
Ni 3.9471577508392155 2.950093576458085 9.824302467093386 -0.4384772186772771 1.3221463490478456 -0.6125347320487452
Ni 3.8313258215077726 2.148589560182273 2.0369178507601995 0.6283727275222663 -2.239472762461543 -0.49572900121089464
P 1.1769955493591786 1.0548263674776208 13.091781494392613 0.9543772955194079 -0.7846996563831904 1.4370080687854476
Ni 1.723788610565584 6.812593088818998 1.7005001393928152 -0.5770671352697545 1.6987461134940358 -0.9715664057041848
P 9.10313710612385 7.245259687189065 2.6160998641911197 0.8518653555964103 -0.9227401282301011 0.5307777652849117
Ni 4.693863171534621 0.49294598545741947 8.869092118010148 -0.24381822700537362 -0.34005076167756276 0.9935375106586373
P 9.276330490522877 3.0632508124338176 8.963030703678752 -0.4058704883858494 0.928780163776594 -1.6564401536369733
P 8.082867404022444 4.696910644452102 12.476043785185478 -0.6770629936391178 1.1612749953493484 0.4050811597153346
P 0.9499727962403481 6.820365542681933 9.597495926120382 -0.6479709613691679 0.3241376899917321 -1.7399943215105451
Ni 6.028497878077912 2.9453219980674104 1.6336784709963732 -1.658458212508266 -0.923052003043565 1.003784385197626
Ni 5.748913206749304 4.140332119749195 6.5316841180971945 -0.763784503497078 1.1424336942731292 0.12977668917622165
Ni 5.891520028104983 4.182568044097904 11.341698877437477 -1.293250491949102 0.9814762086187291 -0.3847535039015761
Ni 2.187507746431215 4.368603684399961 13.647788734417105 -1.9597102561510766 2.0004362731155294 -0.6857702916051286
Ni 6.31307779553426 8.714039119035824 5.8963186330138875 -0.11664735088311524 0.7400077127924546 -0.007807154749244619
Ni 4.768046304327145 3.376003545271044 3.830157157581619 0.30369047788097375 1.4282190097389083 0.2334620805820302
Ni 3.375444375928387 5.158225352144307 1.9875953869422152 -0.2799514823928211 0.60611828699944 0.1459934081454002
Ni 4.15340736287833 7.387950383946142 7.653548366117086 1.304332460794876 0.0713915643691093 -0.2647521489445634
Ni 1.6892599036565008 8.303953642620064 7.020242488112564 -0.6354980257131377 0.5233958709985438 -0.15829845076499835
Ni 6.231317918148731 2.3354080375640494 9.245965731318782 -0.8748957550533126 1.1912268045164325 -1.569549465191
Ni 0.26962120559136193 6.25994738849278 5.60164011722915 1.3065086425105887 -1.0075721343748325 -0.042500335256055836
Ni 2.4538680628059812 6.324932185598593 6.208525243793118 1.2094551545990009 -1.1365983185382749 -0.11263951527530278
Ni 5.349218960617924 1.7503677933198905 11.24027208232179 0.13888405079412858 -0.5649754942125431 0.5417936567794411
Ni 7.379898345411878 7.807047806267727 1.4557852682723103 -0.1689746995319219 -0.7013534907553662 -1.3488737377403608
Ni 3.7446359344178153 8.143052664270451 5.325183998372708 0.4523418924745113 0.8728075050657161 -0.4386361128526446
Ni 7.195782519852945 7.163574365715888 12.47540260433923 0.9222567608357793 -0.7555821701919438 -1.015736672463496
Ni -0.005289741981537285 8.736536365588732 10.723642479356124 0.11156787947767882 1.0037931269483744 -0.73269266718828
Ni 6.292127584162703 7.797672400289174 3.653614348820073 -1.3382805356055467 1.602928297761762 -0.10353549609150556
Ni 6.441388520696003 1.24932410383189 3.880447916311305 -0.8774917979152629 -0.21275055906629164 0.08834978949000268
Ni 7.681253343147942 6.125849260634535 4.242603260572296 0.4315758635717535 -1.231157579273099 -1.2959815177270195
Ni 6.413458012030276 0.21995298872983454 12.970862055991892 2.7989162711122635 0.016701371915080913 0.5801277764729493
Ni 4.654096911782648 5.015450779985831 8.478523515550934 1.4424860611808834 -0.09386300599874801 0.0702538512202403
Ni 6.067406744837811 2.011005943421464 6.286628153677669 -1.7982166954875483 -2.586342089722836 -0.6181739326123934
Ni 5.758847782070514 0.18474116327380505 1.5089948909706667 -0.5271034017571181 0.2801900807661884 1.620395858418906
Ni 0.42455118731030184 5.276685377386239 8.108783971105703 -2.5403985331131858 -0.47421735239136403 -1.277368787721839
P 1.3569735217824488 2.227581549321649 4.568681930793949 0.6626779285620393 -0.5924657292130119 0.1892049105358677
Ni 0.664042484821484 0.6694645635474501 2.5223933337997186 2.3119030525078115 -1.0765648594944621 1.3900586966191029
P 8.329032387638241 4.337280881722112 6.301850607082607 -0.10294105704061626 1.4563947008421756 -0.22171239624526978
Ni 0.7758232322653752 4.655737141854442 1.7802805573053382 -0.411914123476768 -0.6900604343400504 1.3811703929905375
P 7.258987294551299 4.465228146811128 2.5423761822084785 -0.10960304244182414 1.0623998808479895 1.495493209505534
P 3.274654101914423 -0.1940336257998636 3.2649553096660338 -0.4027442840520418 1.2027373762591933 -0.16668744615964198
P 3.8008417728439094 5.136613457050606 11.944614833617484 0.45851048317906845 -0.7449282900225235 0.3506961572065509
Ni 2.2398739553710634 8.90452947510105 11.91507112139819 -1.526898463289693 -1.2575666653942472 1.265790081745304
