# total energy = -381168.72253160476 ev
CRYSTAL
PRIMVEC
9.25897273547342 0.00000000000000 0.00000000000000
0.00000000000000 9.25897273547342 0.00000000000000
0.00000000000000 0.00000000000000 13.55144250967116
PRIMCOORD
 96 1
Ni 4.345069305401764 4.424464997744151 4.242211375812076 -0.24040097379370853 -0.21379494117040598 -0.9130491261945824
Ni 4.754260352326483 5.775478764793373 10.14496212985326 0.4999942042451518 -0.0024227505088796984 0.2432919221882584
Ni 0.8539772891428559 7.619810606245205 0.7119918661106374 -0.8356725478866318 0.7232281793412706 0.1965227843535196
Ni 3.3752104154332083 4.773176433895636 13.22379560147631 0.2228575655933065 -0.01430510376876246 0.09909854336607449
Ni 8.97494461622065 9.409523766749198 2.181145497468045 -0.7469162669868298 -0.500432577334151 -1.0634928568018522
Ni 7.282728440015824 7.702011767366572 1.6170666488196659 -0.980336181477015 0.9390607197669956 -0.5430781799188195
Ni 2.128017511151938 8.622381447356112 10.01667072769269 -0.958256575969156 2.052929715028555 -1.070394726128008
Ni 2.566263214936179 2.6759635254752583 4.210501245534034 0.6635986406040959 -0.5511365314469219 0.8501409167061359
Ni 0.9684144902011612 2.1150456901639862 2.7715411246989032 -0.19890825386656066 -1.0101941453787118 -1.067193445581891
Ni 1.6916236019412798 5.7139991849504055 1.6330707834218605 1.7427294610535211 -0.44374952281980995 0.3430298989105447
Ni 8.28788253455688 3.3182029194854437 6.693423519788806 1.7617070305972884 -0.49058859466053584 -1.4045016115173103
Ni 8.948639874302899 4.449390152704583 8.787080982627904 -0.43301439579049295 -0.778622339840859 0.4981327255563809
Ni 6.734504656506467 4.147353198780268 10.34709569243004 -1.6212988298491495 -1.0338269543063032 -0.9779993058137223
Ni 0.8194394685509524 1.320848033445549 13.771924943462414 -1.5326263669124056 -0.42306422655631654 -0.02200118686143953
Ni 1.2492669142036834 1.5429522746011386 8.557654745728366 -0.3450343309350832 -1.7794787527584126 -0.25427824599643306
Ni 5.648334549371139 9.145198609315907 4.025103276416014 0.42081708239335264 -0.6678101075822821 -0.6788805064638308
Ni 2.871809319577436 7.591459631323645 2.4232556012993425 0.9102723347803935 -0.5808785385960448 1.1116534756674792
Ni 5.05633434214227 5.201922431517395 6.44058041460902 -0.3882041814543379 0.9134913559383234 -0.5518605540971399
Ni 7.554044121964393 1.7109933731809621 12.497289369497928 0.6388867396797125 0.7528948531677678 -0.9881410222334144
Ni 8.318631583451232 1.0169037311104419 7.718914948234241 -0.15201107509438982 0.08352177197374004 -0.18833690610861756
Ni 5.675759627005909 8.556096460594695 13.11421936117366 0.7966061780127893 0.32131359027937567 0.18669165719571074
Ni 3.2103081086556085 1.7702045046712904 6.913905588897937 -0.17189907226756845 -0.8650301751131424 0.08992947527229674
Ni 6.106412973038458 7.349383785691958 5.648200294264554 0.7560699084616398 -0.7370285755594725 0.27601666611478914
Ni 0.22536525139967017 6.780142133772429 8.392815399966269 0.30621838650915006 0.6919028868654277 0.3122548225112171
P 2.9886390392248106 4.012274043610228 2.048219053489796 0.29464765095241513 -0.7794764603110382 0.26663239668641175
Ni 8.172747206944333 8.560679652164314 5.932265581852244 0.7136014548847839 0.3246668230223247 0.3297882034092901
P 2.772210548437254 6.4544670221163205 6.803013648550757 1.528294058085639 -0.2602352349108163 -0.05476064068064763
Ni 8.48202467765136 5.765414261285948 1.9357012375070102 0.3278655324652805 -0.7241537764793334 -0.2913275854402467
P 1.3162000290658546 3.285426155533018 7.38502157226057 -0.7538163365407727 -0.29079305309301534 -0.8991505138356192
P 7.446325231619048 2.8040058612656806 0.7353504028618181 0.5509699239620706 0.19545500521063758 0.9303246254455785
P 7.487259150668108 7.85189602015241 7.795372768485638 -0.01914931923494121 0.4146348648420407 -0.018163301172588072
Ni 3.4281809992105603 7.014403406303594 8.842465380631923 -0.5524879032684936 0.8144177522729135 -1.4984754320623097
Ni 6.815289194779042 4.918829336080837 4.602354865763577 -0.18233132334448598 0.04743325378129896 0.6480385813823096
Ni 6.725236424665682 1.1277984491494821 1.8704514039122262 0.9187903995537336 -0.546422156690388 0.504705236567576
Ni 2.9362332527924013 4.001089204385784 6.0590801778403796 -0.5063034342926312 1.1309313500604847 1.1856796494459578
Ni 3.1144407035811974 9.40804233109033 4.367751937133587 -1.8107490236266042 -1.2556545359731988 0.9344620446527198
Ni 5.601669326116838 1.9065336211784984 8.933151464489448 3.355172640284254 0.04921631382365072 -3.512187853461455
Ni 8.940677157636491 8.915798297540398 9.465032234989646 -0.11916214688516896 -0.5283452445840191 -0.3743973574782326
Ni 1.4919538520446527 5.176413961266284 10.686749075424842 0.8076058715574026 2.1135753537350697 0.9558837048616055
Ni 7.946022738327653 5.780302689657558 6.797959175262161 -2.0007512332527866 0.6129311961562154 -0.22349031408129896
Ni 0.08404740031122858 2.886095914712631 4.658796638469112 0.24179502592775778 1.6315858135974544 0.5646811029005758
Ni 5.185561826459785 8.754349587642531 8.944819622097597 0.63247543683673 0.6802663310677639 0.2420400520590283
Ni 9.204807876639554 7.353744761912747 11.313814864699086 -0.11428065042315158 -0.5867910474257377 -0.043117400014764454
Ni 8.156349565995253 8.7533773954914 13.056299856398406 1.4347478119963615 0.7807386148529135 1.1306030201867883
Ni 3.4149591859551753 7.309607238251387 0.17455108240325562 -0.17401123351456482 -0.4890749862294867 -0.7972358411769883
Ni 0.705957793492616 3.7098389538525915 1.1666194705900839 -0.5299652966859454 -1.0324802104704218 -0.23818648264089304
Ni 5.077629979738479 8.763756704076336 1.6311736198812243 -1.763129879086744 0.6908693033945907 0.9748227078579533
Ni 5.819264447485752 6.110940610770869 0.285663386304692 -1.4238095678173026 0.7805403827991783 0.5124416859798852
Ni 0.6874111449408917 7.1273350983735755 3.2257854077016184 0.3501713950513324 0.7525541819988976 0.8888712433967981
Ni 0.8302298755312226 5.476423200132526 6.219380775102625 0.8324041615480051 -1.7224956505051494 0.5223034092653135
Ni 6.036600317614365 2.6441959895654352 3.674541897485519 -1.2811218270063678 -0.7586600377863193 2.4427858302640186
Ni 2.798950462079798 1.5880064365764222 11.457311352103348 -0.0018658495641451737 -0.5323175989682059 1.7675706884669171
Ni 3.7498284576691248 3.8206318231900847 10.67582626513256 0.7822383393268916 -0.48099349477293285 1.5679024165058804
Ni 7.264914176217952 7.0562539636665775 9.739109868544713 0.3332787330610518 -0.983195762412997 0.09601784755822172
Ni 7.4260758579569135 4.6961417796345675 13.120750640634691 -0.10527253338727031 -2.3255417263371694 0.9910319706279642
Ni 5.60254892853929 6.690607866139673 7.941687687230894 0.602435438831214 0.16256185402704262 0.8030581042857202
P 5.03375170731742 7.036615682213727 2.802452205618444 0.08873956872925363 -0.06438659380618589 0.6535268581903906
Ni 1.7234466916883102 4.816471391026015 4.011145374817629 -0.2296596761168045 0.7880863134672363 -0.7602716052478132
P 3.5597232267450556 0.14143266235200375 13.205799861810227 -0.3921279419887763 1.4427606549985086 1.041820256924425
Ni 2.312308107114955 0.3819391120825784 1.6985650539003572 -0.23259741858888974 -0.4412882057635109 -0.8825892670428284
P 4.683503281669862 1.2709699466060806 5.304224822735009 -2.018675164721059 -0.44756324013894533 -1.36974261076957
P 8.089629407509044 6.68221923672134 13.37191324223895 0.4287592200585648 0.49124962528330235 -0.057830794965539105
P 2.7356653825275856 6.903758680531987 10.936935781288826 0.49978183112402963 -0.9470398813177302 1.2675109210911526
Ni 6.319767484833867 0.9531464439419663 6.4662740643174885 1.2963016200705997 -1.2912707425149117 0.9382731908686938
Ni 5.433193055812223 1.7262706784130248 10.988241601744525 0.30427488962953403 0.6928379970851875 2.3362046053676537
Ni 1.8985246096477504 8.662667238304419 7.625342842533787 1.0538931289285591 0.7944289678558125 2.0696956216329836
Ni 3.9311561823144086 6.810243054566027 4.712757932343332 -0.6874276247028935 0.08611370107063235 0.1743249081002417
Ni 4.194703586026794 3.6492389764320756 8.402029929764419 0.1894396522544931 0.9959643749325751 -0.8737459577195856
Ni 5.9718615793218905 6.972830618126647 11.676709195489645 0.04346861270659611 -1.9174978844490846 -0.863159697563307
Ni 5.363028559419148 1.5833121373323882 13.319753744484828 -1.0361728288306606 0.5232272066311634 0.2043026854092546
Ni 5.298428705719692 3.0299618351343236 1.5768188196601183 -1.1633761008527512 0.9309033807671839 -1.2203188367863822
Ni 0.3219918922492506 0.9853769284951849 11.276981744733225 -0.5282220887425935 0.5306096151381635 -0.48955938206507305
Ni 1.3825127927458754 7.6895584488592235 5.834546382204248 -0.923733602491622 0.6318326610464087 -3.33222605879041
Ni 1.6569117126594595 3.1151073496276873 10.076012410700457 -0.2313954278609886 -0.9915287077587247 -1.4611041905027031
Ni 0.9622665322168644 0.9712384769258758 6.048130516526782 -0.3260696169071223 0.27107731983164285 -0.6098846960204077
Ni 6.987987556711427 8.962472779767566 11.196947183262953 -0.20089648794118303 1.0492229771463994 -1.8213813065294695
Ni 1.2714421542223444 3.1281995372629217 12.409638376946504 -1.0316548863556492 1.50374722198421 -0.9339699355076496
Ni 5.757275624135049 5.076083731269537 2.435045051452061 0.889076674539385 0.8155220410806858 0.1957887344009725
Ni 1.6157463192887012 8.716647050124374 12.264625269786476 1.4127713077252702 -0.7164970312650242 1.5542385458655428
Ni 2.036455528461108 5.040427426755189 8.347485320599521 0.9211684128676071 0.00414513251662512 0.534333343846654
Ni 3.881296613420676 1.5019998376063424 2.7804177019873757 2.169227395881735 1.222237908185966 -1.0078256451465353
Ni 3.5945647416470266 1.5464521663452113 9.410582993245287 -2.3695060477332612 -0.9842000353077953 -0.7179548467574732
Ni 4.347328494781536 8.561438887939484 6.527824938251539 -1.0273398039200627 0.22599354011912692 0.49287636225344794
Ni 0.6417616310102011 5.406943867731679 13.15521161175179 0.2778210663133796 0.6943495486337073 -0.7833192310958961
Ni 2.9155950022698147 2.4955246622252942 0.2890021719208628 1.2394727840070137 -0.8078786656028152 1.7052726017586437
Ni 7.720492677210934 7.531072610279091 3.889684316941722 -0.3774885948090467 -0.5304756606634606 0.09350587976964542
Ni 7.838720501761365 1.147084889633353 4.387997607206574 0.39235085663285973 -0.5739381027224697 -0.6356389221663762
Ni 7.780990805929903 3.6421280852695155 2.7376893939965123 1.5091629936831428 -0.4527689527096009 -0.6785573187964572
P 6.668451144066748 3.4483470421168834 7.830307799013576 -1.8226167215984674 0.6570019612231847 1.8782078286002106
Ni 8.596169295167039 4.878941680965851 11.278852057252545 0.8050409390437039 1.0705538774136918 -0.9123140478007707
P 5.434581901742409 4.202055210483921 12.271847268623452 -1.0361126650166865 0.25640506253144874 -0.6373631039463346
Ni 4.306413093678211 8.97166693982541 11.234525650544679 -0.3296689042226064 -1.3946923387363723 -0.8870935826710851
P 0.6776660759974092 0.06943118574193502 3.9894228985722093 0.5386540827091949 -0.13709739120735098 1.683254188506024
P 8.86814236418923 5.491672728445985 4.491178674949353 -0.298622319329447 0.32254463447299936 -0.8414526449035187
P 8.82711585541149 2.8648095360892905 10.628789757066258 -0.7502453313600628 0.3217900156951619 0.08132450721210509
Ni 5.299678667056861 3.028804463525834 6.13242050192715 0.4707401924760409 1.1037905279796347 0.08013614333095877
