# total energy = -340869.32065632637 ev
CRYSTAL
PRIMVEC
9.27755366370941 0.00000000000000 0.00000000000000

0.00000000000000 9.27755366370941 0.00000000000000

0.00000000000000 0.00000000000000 13.57863757633235

PRIMCOORD
 96 1
Ni 1.0117265267757118 5.612669595722027 10.58741365977767 1.1728539584361994 -0.2029050337307796 -2.1425493723699165
Ni 5.02391602730737 2.8628768499048696 6.506014535151835 1.3627008734314403 1.2619431971953878 0.41894069130624617
Ni 5.931826726308736 3.6156761257999532 10.971200086114305 0.020194215559687805 0.08367243861899139 0.13914578909594746
Ni 1.6944617158654462 2.1648058642725974 1.2850089367551105 -1.1497086306679878 -0.8619646488139413 -0.15618140442199555
Ni 8.34194966993873 1.0186104717451994 1.2929384620454354 1.2180398109442183 0.29796823068521583 0.7337097955988847
Ni 7.615378038826315 2.7480763983517185 7.248005460791592 2.0413499806107556 -0.023744137694475233 -2.850181754155459
Ni 2.8474390002697927 7.6632966045505775 0.5726802063396736 -1.2055866727825302 0.983017327853604 1.6939407216855924
Ni 3.3166234544435396 8.7700716706961 5.0940663953636856 0.6761692781802549 0.3321500187732473 -1.0658842398521644
Ni 0.9583620369313831 2.513280065079766 7.007296542440051 -0.3550919722814013 -1.027981808379436 -0.5802061951193684
Ni 2.9804234574027215 6.596925285496859 6.593962962547051 1.2480906075830118 -0.5486322769678293 0.890824253358111
Ni 8.164228848057999 6.404304712105351 9.989355632589566 -1.6368480904376586 0.8941142369632925 -0.3337937250242574
Ni 7.8224437635891055 5.646829549061181 6.57966439652687 -0.12627998887687283 -0.22634398148001017 -0.8201613396249102
Ni 5.392169972959481 5.523317474426698 6.068986082681921 -1.0699733223198735 -1.0822343990754135 1.1724896331182453
Ni 3.866856619201441 6.729362366951622 12.353029575027866 0.9913366463525765 -0.22978591728202363 -0.4275202054451411
Ni 2.9553369517457218 6.81076362458273 9.939128811463135 -1.2477026281159738 0.6176064901446976 1.175918456294136
Ni 4.688671618314877 8.149950692656326 7.0253831337042225 0.3495579298370496 -0.7279194141693528 0.84023985554234
Ni 0.29097934398114705 5.686880749106029 4.128421478646524 1.23218293521382 0.5041007702143576 0.16964344346417234
Ni 0.9452714084247162 4.315500569113133 12.465134897182585 0.9704842283835995 -0.7144380918534664 1.153426188728891
Ni 3.6896367852295415 2.6915575401925307 13.352105229350217 -0.37300844755050594 0.7371121364122144 0.1041607883803303
Ni 6.141360280400211 1.0445041245886488 2.0641295607269234 -1.275901459147693 -1.1450173958399055 -0.04109702715062599
Ni 6.5115717899183085 7.394386705708807 11.905912710482722 -1.0837168971582112 1.2136985032563872 -0.45069972888539794
Ni 8.278955079180212 3.8203946294343343 10.944042830434137 0.6254180157693164 0.7912258875374825 0.718504548613356
Ni 6.809733816103468 2.602372414866812 0.4357017622669004 0.8931264191287264 1.6471530719080925 -1.8229807898061057
Ni 4.801579448879113 3.5404444414905547 4.022073806421809 1.7094228764815917 0.3984379433672041 -1.013723755798525
P 5.069700755642169 2.8727852774350753 1.617242779517686 -0.9752793357793978 0.5765488008724393 1.145302531180492
P 4.599069003065133 6.2131778248864675 3.382085874530741 -0.3586778898604468 -0.9598349761998695 -0.7213548735779577
P 6.399647380064001 2.406328424098295 8.739130100793489 -1.5520441093173851 -1.065411413980804 2.6321385792316607
P 8.248190710556464 5.768430447599015 2.4829220533154035 -0.4374701175690014 0.7728252735431078 -1.8367143373421142
P 2.959409797893437 4.989403526921261 0.39836239121744454 -0.28557962721287594 0.39449284267652707 -0.4070994756969441
P 4.100112878531434 1.023685293710576 6.555033418764752 -0.5017716078605489 -2.346125978246424 0.08487108691278286
P 5.70740269826035 8.351542660637449 0.23325069279767158 -0.4117907105250263 -0.31377614425174993 1.1164069311920644
P 1.9080402834430354 7.481558601845335 12.253268038293502 -1.3520279670986264 0.457271982786277 -0.6324476689225882
Ni 5.7456633304088225 1.4154578384161247 4.411468514071186 0.6018564263992926 -0.8852408457330625 0.7635559324260398
Ni 3.7496440036428096 0.6608874774877855 1.011202344982213 0.996558042652516 -0.33443341549078537 -0.049316329736624746
Ni 6.892220547537043 4.657944359906599 8.620547190528667 0.527299319818008 0.8078933208908344 0.5612309395684464
Ni 0.9204456020313853 1.1894102384409735 5.0499636875450165 0.13369736438686652 0.4097911635964942 -1.3539480669394746
Ni 5.515134671915797 7.479888642149233 4.847614671168327 -1.3579669582908807 1.220724299754917 0.5864372636307449
Ni 4.451231182190763 0.7899178411624996 8.794748108472168 1.4008771273908454 1.6363379835704595 -0.11794601508988074
Ni 2.741814049491336 8.576690337887479 8.504653843129956 0.8957923959966637 0.20553604359572344 1.5706480975718176
Ni 1.1904586020279708 4.7552102346506775 6.581049535319249 -1.0777331687709504 0.7944035139345157 -1.4115456628482852
Ni 8.653842475847396 1.4863940152849942 11.580514569409525 -0.444255515921951 0.056097357214200165 -0.008142683711792428
Ni 4.745672909275162 6.612622906640219 1.1378613658884622 0.7437080444621772 -0.48992139339018204 0.6719506121132169
Ni 1.4585149659139565 1.7977208904077584 12.337183513022632 0.5642116194633251 1.1464890952894256 0.525653813794785
Ni 7.023692763389613 8.30099854716876 3.1075797551962543 0.13490912530678056 -1.52402962638233 -0.014981818120812907
Ni 4.891376892760069 5.953443426819391 10.408392124844756 3.9492116275216564 0.41764459820264205 -1.5139035936919218
Ni 3.569863564803553 4.376639649098204 11.1544438358122 -2.272360000107867 -1.8933649959566232 0.20913867334531722
Ni 7.718637213368627 7.34597642962958 0.8827796610858029 -0.16744360759937613 -0.6891356085329358 0.736891535760976
Ni 3.126016110241222 0.1974541789563367 12.205972924189119 0.8348711350312589 0.0012492990260688163 0.6032875024188642
Ni 2.9548730740523594 4.793313148383407 4.545259190635178 -1.1140430589455783 1.9120705427859264 0.40079924451052906
Ni 7.32578847241448 3.1965811849554018 2.8026850081696435 -0.2203409698190399 -1.726297283639427 2.089483345782872
Ni 9.170101238343486 6.685878471975897 12.145548215851825 -0.7925988566256091 1.4941703769290526 2.0585892273071775
Ni 6.35607998710347 4.896089890124623 1.7063323460385718 -1.0460062699813146 0.7852398451573768 -0.028806382708731034
Ni 9.176048150372383 2.8314444974026816 9.085874037804418 0.8075503357291189 -0.16043246638886566 0.21836173460548197
Ni 2.3340191692570746 5.1439768519032425 8.490667930675102 0.16174398611143756 -1.1999582708521594 1.1218440430472356
Ni 2.4859483913868954 7.269696381733184 3.1415133362210486 0.03256687819242778 -0.7491652109220065 0.19659966033804205
Ni 0.5468941731210841 8.718841018241235 3.4234053161892404 -1.39491962425583 -1.2878732867975884 0.859162660588772
P 0.8861826678443042 0.5752640050916983 8.517241628217018 -0.6969664174312642 0.3195441570837787 -0.8167345733315483
P 1.9687618735040806 0.05613383967369804 2.106970521219649 1.0453483246823416 -0.712645775839734 -1.2786795361134624
P 1.5509008473238708 7.041978822061931 5.236696725252377 -0.44078529798516347 0.5527555551075835 -1.7889478685911127
P 5.395556280121021 6.404480985628829 8.24198866579622 0.4824135150489111 0.18582853786446707 0.09015650368143827
P 8.065107462540473 0.7414082952568944 3.484156594422661 -0.09343877397713585 2.438235234778859 1.0274814717042497
P 9.062834160530528 2.751462705513259 0.0625650400144645 0.31273407614048077 -0.07017029036749851 -0.753284889517335
P 9.061952792913141 5.77827393225215 8.166817285586957 1.559109757914915 -0.9286184413877491 0.29425761460284805
P 7.487793118044117 7.8521783237335905 5.3537850215891885 0.7653312791589076 -0.5395107742825354 1.0431883409165454
Ni 0.047807235077855705 3.9699302426664085 1.9103782270175784 1.3045273504145016 -0.4892603627674154 0.5437993743555602
Ni 7.131488661773003 5.7767616909717905 4.408073857111165 -0.09818117375812768 -0.3948520257881587 -1.940981569393322
Ni 6.032005752967126 8.44219363947419 9.513329910194122 0.24479344643444936 -1.7632183250354925 -0.003511612697684275
Ni 6.5009953785096615 1.139636161943264 10.674764612703838 -0.8842617696492449 0.851494859630869 -0.24100518303661073
Ni 7.921797087953314 0.7523047822739605 8.867284663383135 1.6538037444553904 -0.3313411497187068 0.4982947050555418
Ni 7.703802404734921 7.999116221882839 7.769560778790487 -0.38095778430456967 -2.06874354213236 -0.8305869058336082
Ni 2.402969949598356 2.0126910910654323 8.866443189247377 0.42389083622267 0.957882223348873 0.47197303644187755
Ni 4.714435385404186 3.6599300577466587 8.873666692688406 -1.7753670445828842 0.49546417758528216 -0.13611343002752688
Ni 5.578407589290332 0.9637801283898476 12.805130341510491 -0.7382740179307995 -0.05578779639358134 1.2402276598951671
Ni 0.7057769218743963 8.793237722702582 0.39634173998516103 0.047526327715737504 0.0097539940629703 -0.7202503276598693
Ni 0.8050578813184385 6.243645311786464 1.0615182306257689 0.23658160004761833 -0.27985043803858256 -0.04312845575835798
Ni 6.324870295894096 0.48521235623478026 7.160762127490285 -1.3646585113784433 1.758516548684449 -0.3858338814499484
Ni 2.917762858583425 3.7969409732579673 2.4030933410647903 0.953907554971841 0.46045732249279414 -0.9921663413427235
Ni 1.2375978532273855 -0.10139253070422463 10.731713949362465 -0.4782979502186408 -0.3327758252827043 -0.32298326467231475
Ni 8.346412173348869 0.3886923968216268 6.14100680559787 0.7682960182141865 0.038995150316274776 -0.408613084127993
Ni 1.7368508594848373 8.707661565831218 6.633992824218005 -2.915477747149792 0.6149227726649474 -0.5599122207570228
Ni 2.9702923685797025 2.42582984232722 5.29460999975781 -0.5704077209717079 0.7833426281346638 0.82489988275116
Ni 8.941650751916722 3.6242764182348792 4.946847387332259 -0.16416467973778825 -1.013215962924171 0.13167596308146354
Ni 7.622094987826193 9.097318828255037 12.974035631706574 1.1195223368925946 0.9044809249095972 -0.7854496471753376
Ni 3.3317736999087324 1.2547427727740337 3.291883001545787 -0.3023247078816987 1.076142684355379 0.05677741400036028
Ni 5.02103070805466 4.717784582350257 13.018587373132418 1.1626723899175073 0.2662559871835995 0.4201866478982053
Ni 8.065432176925826 5.015473453288187 -0.02978744220152752 -0.2689772427695045 -0.928750338979923 -0.056108412957793695
Ni 0.5740319459381297 7.661756530608617 8.724478059970966 0.35698661820095295 0.059692016543993975 0.8047516899380592
Ni 4.571412614986909 8.54747532075956 3.0408138387907067 0.14776181289973261 -0.21317119154347802 -1.2782596749672244
P 3.4247997325354858 4.382864887743117 6.676983153327993 -0.055340681553833725 -0.40648112538665476 0.5483797946373911
P 1.3828101263573287 2.9019631843475255 3.657406563094771 0.2612348798199243 0.23511838523853057 0.03138545628981691
P 4.01761686954399 8.650029401207961 10.452047654567021 0.31454259010412927 -0.41350023701696526 -0.7915195075185014
P 4.4285939507547125 2.0344376773302284 11.392640392576494 -0.8252924902038883 0.526687654375938 -0.9836058533672223
P 8.320462855182216 8.512517497787822 10.824931099598883 -0.4237864494343218 0.9501074644994605 0.06251045982939557
P 6.807971080868693 3.760350300805597 5.4896121212270375 -0.5376199850177257 0.19425532847558158 -1.4108278108456542
P 7.077289192080623 5.5026006966411645 11.628514777607819 -0.8123099619012915 -2.864636239017892 0.4904361282430715
P 1.6880509261431877 3.611482671451964 10.213457729518758 -0.34374672247191124 -0.30842156480805594 0.38601180178870936
