# total energy = -381172.69759981206 ev
CRYSTAL
PRIMVEC
9.20787821583896 0.00000000000000 0.00000000000000
0.00000000000000 9.20787821583896 0.00000000000000
0.00000000000000 0.00000000000000 13.47666051546993
PRIMCOORD
 96 1
Ni 4.150552368435644 5.317494391611904 6.54538520192181 0.1299309553658988 -0.44008467237371307 -0.9151543454630433
Ni 0.6266964748344721 5.254438841954664 12.501259944968664 0.17372764083587502 -0.44697908550070115 0.5450671853243904
Ni 5.27618785017464 4.38570316095121 3.015672177021432 2.7033460526144215 0.46387200460129785 -1.6360487344648147
Ni 0.49319329093108494 7.034036246555303 8.484433591087942 2.038923887667766 0.5542714775314777 1.5439029682674896
Ni 9.119657481888765 6.382716984726317 3.8478562648707704 -1.719731200386135 -0.48348926461159314 -0.15983082824912473
Ni 6.378665518334789 5.055005408831684 6.944402156581821 0.06673323966149151 0.29836366635142164 0.025977397900368168
Ni 7.124043255594368 0.7769174823298111 11.35234786802252 -0.047414484728221566 0.7574387637847084 1.035327964331862
Ni 6.867042168199036 2.0331179140505213 1.0050021491434262 -0.8257527176697586 0.13233802214549467 -0.556931540862144
Ni 5.950987201318165 5.827905493919168 4.642561526235022 -0.1447029714687508 1.2585686242962002 0.2056599707680974
Ni 4.045131371352444 2.870316612347192 10.37170516055816 -3.4587862979118627 -0.16336558087526057 -0.9470231691471819
Ni 8.320607022819598 0.4907430745520266 13.51924704389694 0.03473380393675953 0.5409588195829715 -0.17588659616040675
Ni 2.2863253556428766 2.8171779474710332 8.453544843003804 -0.9529973844527457 0.9022317238641042 0.9183666817527538
Ni 3.8880357620209356 8.183722706054917 0.8775559074953737 0.284605950445697 1.1494965146571816 1.4187362670594534
Ni 1.6244078260487798 9.353915110222562 0.4790039506825734 -0.20732784538882357 -0.08344875264395951 1.8058749833637544
Ni 1.595531920130978 3.388968765609951 11.314976773711939 2.0697516716819 -2.041415286631052 0.5986898557458528
Ni 3.6020206505353634 4.121280523756852 4.468375174245978 -1.7582715225531782 1.1629361851018551 1.019925770844179
Ni 2.7161767319058656 8.34197850803491 12.235729600031348 -0.3518143299713941 -0.19317803625100277 -1.6026411055386462
Ni 8.689852145016589 8.014454281792498 1.5956902956353745 -0.18050789698250203 -0.3627847129399688 0.580839200717677
Ni 3.626163707077607 2.9759678063844546 6.680933455565103 0.04807011603434947 -0.46910059999008885 -1.9737610778171877
Ni 7.680723945668517 5.909303136876236 0.18777810094480615 0.2671772134462882 -0.8023957881113729 0.07991374290750754
Ni 0.8087537210768772 0.998649633999073 8.323225743369031 0.4086961307601026 -1.569139117126459 1.5878369506462784
Ni 2.4160827747097327 2.222606838757932 3.9985652899087247 -0.7489631222135296 -2.0986709258194116 1.2913321918804663
Ni 2.3429445984644848 5.5100863712600985 10.603167277081804 -0.5149084023528229 -0.4795117680210839 1.4444598970778026
Ni 4.536436126472388 2.8639171370242096 1.1267984367509292 1.1701861817960493 -0.12131878821685559 -0.655351312993639
P 2.302227361229625 4.220642737009083 0.3331833881611239 -1.3002598333873994 1.4497723104296516 -2.037226188250369
Ni 6.978172049743025 2.431938740905668 3.3970210550631132 0.4771612655110364 1.0796728089958245 -0.4545818375486235
P 2.954504242387517 0.5113051872768489 2.3378775031116255 -1.4337461102047242 0.8268199825920084 -0.9432873562538334
Ni 1.0415859698711103 2.410981610207672 -0.0955114786046469 -1.3789427892115993 -0.1242310767676441 -0.4726970590920956
P 4.642842366518981 5.67103087366356 10.774320554004099 -0.5428393244351362 -1.3006159311752374 -0.5774522865233153
P 7.66421422012304 4.594077443770041 3.3244491633248625 -0.3952153226648484 1.0710146191001941 -0.20620015954228357
P 1.4206006507985818 5.003404459608673 7.7237707760785055 1.3908567670403658 -1.0821858052256652 1.5644936479346474
Ni 5.433734645536116 0.39853998657118905 13.148571017433486 0.16303365145713858 1.0406861433199819 -0.05642131621252219
Ni 3.207260497949907 7.298661457069238 9.488404457877161 -0.07843201615565848 1.4933792484863249 0.4491349555014394
Ni 1.289572544545292 3.7818228874157565 5.92316743902561 0.8002671718041444 0.009021486772319946 0.4168236449632435
Ni 9.165512715138336 2.096016929778998 4.295186956249755 -0.541087631851352 -3.0307618991367935 1.2663413262630836
Ni 2.2775962871447657 2.7392332588249264 1.7271419642841421 -0.3205800545474608 -2.3876364387853846 2.008842237791037
Ni 8.375992409967422 6.30430269429392 10.534462694171829 0.1168124157060698 2.0172471740252806 -0.05158558538677567
Ni 5.895463695997902 8.503079544367134 6.473446812201144 -0.4291279162518932 -0.4427786742661084 0.9893255294598189
Ni 5.2695673857757575 5.880436438836597 0.926830025906704 -1.2510370918058453 -1.360804684849992 -0.8307733108128014
Ni 5.843512847404715 1.0433354667219976 4.751021123111867 1.3961398698161762 -0.6252786619779748 1.3408855773285617
Ni 3.461232193429755 0.30983128835304463 8.51782872360793 -0.9095526830055497 1.2556460513327667 -0.19014644851353057
Ni 5.519736227574467 1.4967958425938013 7.102024456544228 0.4159821228985545 1.491822445522166 0.4592460757935123
Ni 1.4599274984308939 7.5576054067568705 2.722555029109074 2.530479217116945 0.8908111407319883 -0.5070544535260428
Ni 4.094329064375026 4.046494137320504 12.612994784107933 -0.18753009393660605 1.6871090434757394 -1.1293164401648808
Ni 0.7980698200448537 5.517185645323436 1.769943865135006 -0.4941765691221102 -0.2960455597412063 -0.97982247506539
Ni 8.553317727622085 5.344335356455779 7.503898615798082 -0.8552502129082431 -1.1415703178315693 0.6459305339003715
Ni 6.479123469088365 0.04736440448041447 2.466161661672471 -0.6249361910368915 -0.4609643440361997 -0.4458112904448451
Ni 7.950754180663878 8.61103270794504 9.917595629275894 1.94859589140547 -0.011279686678877347 0.4587920189752292
Ni 8.18574843925068 4.053105393841226 5.413938628274419 0.04547844404777329 1.257928162498724 -0.18931598219243526
Ni 0.7977760887314679 3.8586350070478677 3.590478575258589 1.5420697717134924 3.738935241027471 -0.9263029058806951
Ni 2.066091325750664 8.202359451455948 6.785741207962675 0.1796748595582454 0.9901112585859076 0.8299796112669126
Ni 2.4572972373653705 6.488893027818846 0.40646796966915694 -0.2365587172294829 -0.42782462405943733 -0.6295819173390189
Ni 7.388162032809363 7.337573950184234 8.15630440725025 -1.2385808683203638 -0.927318491629403 -0.43428632052438115
Ni 5.636823606289634 2.544145944194677 11.620964693719927 2.660290101965212 -0.2891696585569794 2.513918484544787
Ni 4.916426842485091 3.478819240720253 8.434354704125203 1.8633944177364619 -1.2719651002077643 -1.482892747132704
Ni 8.378533784340291 2.8583832022485085 7.8343196405104365 0.08135201801593085 0.8140261732614497 -0.00011852785573527974
P 6.216441120866731 7.9360123677256125 0.6360866689846552 0.4084539328423095 -1.220054784491718 1.2201208618429633
Ni 5.861753654044755 7.314093860869695 10.150000632523385 -0.2670103488511208 -0.9319752736751239 0.396066357811234
P 4.462570527852297 7.349249539694365 7.760683318056594 -0.2040771996620098 0.31003364649018217 -0.5588331287602312
Ni 1.4230131148771739 8.998960614933873 4.615756472115982 0.8228671685918474 0.3653396181513386 -0.042630175965700776
P -0.13369470776916853 8.280911860060783 6.790538512485371 0.6088444276813515 1.3007653122689082 0.05242967855462584
P 7.424017510374387 2.1636948342738456 5.939123771093517 -0.27499285283596514 -1.1410134168868349 0.5695692842308127
P 1.1058293358113214 7.4423043564052405 10.729968967258475 0.19880849506390277 0.10257955993613946 0.4865339649751879
Ni 4.11463243572348 6.848387007041681 2.865893147677896 0.04410984583502081 -0.8099162648581341 0.8889216370187595
Ni 7.792746991394274 0.5943970798158291 7.913616045670808 -0.6331547222919419 0.031647708812268076 -1.313053642717958
Ni 4.586646686092851 2.2449083196676622 3.338303336808257 -0.6425832146946933 -1.1010875272261746 -0.6060002733643369
Ni 3.273548012842207 1.6844339837905367 12.767397089076892 0.037826583929470345 -0.2525170403309522 -0.6924428185292978
Ni 6.832392922673307 6.566727221927002 2.368765330407947 0.976293378866209 0.45795383934465 2.091495748227211
Ni 0.06506655024794432 7.568995552043963 12.789135047843073 1.082633177175729 0.08998475399026439 -0.6437785205543751
Ni 4.175413639474567 8.96326167129761 3.816981328603876 -0.4737252432462939 -0.04193289278836004 -0.6811664742845301
Ni 4.618772973002038 0.3828663363628721 10.928129871619388 -0.9255174338649221 0.011558908482192997 -0.27852169192483
Ni 3.5667268535382544 5.08195686821351 8.6621097289006 -1.823063322217583 1.1120465973408398 0.9873300962963448
Ni 0.7262106180763858 0.5971345819935595 11.721137200250466 0.47415950257023504 -0.5809075920617673 -0.6122639948858617
Ni 8.183805576958381 3.1737806529508235 12.609868709471744 0.18063336681677278 -0.23728042588685586 -0.8092336369688127
Ni 1.4448265782442884 1.5128175505966632 6.284705567200533 0.5874883306030786 -0.18971270341022164 -0.6599762133601601
Ni 4.641120493302581 7.00544578486054 12.443337787387053 -0.13814588707652337 0.07826977954618133 -0.8232692891262725
Ni 0.9627757406777225 6.211827973907287 5.989768942563253 0.30094119727061075 0.782219313163498 -0.017923674357956228
Ni 3.290333974732562 4.8037316216534665 2.1140975193390092 -1.1230370349140724 1.0082244232468507 0.44561177283952935
Ni 7.712647659258128 7.029082408103842 5.790516904640075 0.06757064796112233 -0.5025902471071022 -0.7767652320274622
Ni 3.694817646657686 0.7407397290290959 5.78482919829906 -0.8511881270237277 -0.08405424743844232 1.0964631410802859
Ni 9.328685524057137 4.375703405266665 10.14246766739859 -1.2135992586743616 0.011081197514826077 -2.1593075656648617
Ni 8.329142725876295 8.99116154213018 4.083764865759116 -0.43389834105734304 -0.6236203004389453 0.09009248321272226
Ni 6.3371103641871365 5.087407932085748 9.245016297557363 0.6143255054005807 0.09542495116922921 -0.015572914737592536
Ni 3.930309130665268 7.305245089955471 5.547222664677537 -0.3792693408585533 0.5860158598226102 -0.7579681539256172
Ni 5.7933207035405765 3.6014865936019347 5.2294431358945666 -0.6881035677239956 -1.423941979630109 0.8061146317238569
Ni 6.854574701166924 4.954961812595423 11.446010404692124 -1.2976257381986618 -0.6358443533089629 1.4128636103287602
Ni 8.916568521135247 2.067021321445083 10.27808313855247 -0.5587138295735475 0.06532144691562944 -0.9036082924966568
Ni 6.940079057784496 7.678357520980739 12.146204163020185 0.7445729635656338 0.41126980502454974 0.06184531544157091
P 8.533456334425434 1.1912047821346177 2.301045069673552 -0.11963265876368429 -0.7934012979222466 -0.4473074153743974
Ni 6.452945471472194 2.1788233780949384 9.45456458484192 0.8037592441178028 -0.547017881292858 -0.04369512689510539
P 6.110854381976607 8.033809241690207 4.417487835580566 0.867996713940634 -0.9086281143087512 -1.3160206957660818
Ni 8.64385879359458 3.5069401006287246 1.723786613481704 -0.011013320391368129 -0.5357137691339483 -0.952295730400031
P 6.264929807270795 3.803111501727605 -0.1295364299909545 -0.27023914020106365 1.2557476099076372 0.815976097898969
P 2.240838437519809 1.3689997015755715 10.26211299466732 0.33454860091241095 0.2881255335631812 -0.3539851123704678
P 2.0482372499934516 5.785945193132362 4.178303992429796 0.9055669588849243 0.11784831316975189 -1.0941157238940318
Ni 5.7011130116206585 9.070468996744346 8.86849142688505 0.38875079798642725 0.6805869476319762 -0.7398210507029453
