# total energy = -340895.60800282145 ev
CRYSTAL
PRIMVEC
9.00606461657741 0.00000000000000 0.00000000000000
0.00000000000000 9.00606461657741 0.00000000000000
0.00000000000000 0.00000000000000 13.18128591332957
PRIMCOORD
 96 1
Ni 6.443578182983116 1.7517786688073018 11.177585520414338 -0.2592345615604439 1.6167178953466868 2.096737970462757
Ni 4.5735138591942714 0.6892611567460413 6.184396246752581 -1.0872843027944952 -1.3810541791276472 -1.549804678463905
Ni 2.61823415034106 1.795169888976411 4.862998501631324 0.5281171877336132 -1.1721309642272457 0.5484052485586878
Ni 3.3838127001367138 4.2875893141695975 4.775382099693343 -0.6905810827302107 0.9437231582396715 0.23056187621609972
Ni 5.17358795630256 4.6111772221555025 2.47817363190479 -0.16042218197622046 -0.3036619386358834 -0.4309253744719482
Ni 7.300964557271069 5.940238227808493 2.446447066854616 0.5955654511842582 -0.3450754685856638 0.8150211901848674
Ni 4.917671619165698 4.409252243448239 11.40414568875435 0.9467688870445309 -0.12851299197244964 -0.016094334458701315
Ni 5.588740525031374 7.6989695786354195 12.200031447788916 0.532362079052896 0.06302596601323339 1.0092559498351585
Ni 1.8651019820883106 6.495092873594845 0.45861403620330193 0.6767395488614281 -0.020995114194428358 -0.393031170529336
Ni 2.823815591353981 1.6685716361916108 0.4390816828818483 0.10719674699317668 -0.9818649594167156 0.07697291511162872
Ni 0.470991071047305 9.146649463667266 4.681979301126335 0.5336954531523389 -0.16225846385401088 0.5393544512103292
Ni 8.632520242871516 2.4409587709702127 1.514411222716578 -0.7499044030808762 -0.5659139468664124 -0.3241382042123644
Ni 6.691515146714037 0.6509934868372489 4.535562302159686 -0.38002704496018425 0.19153587266188948 1.0622790389994092
Ni 0.7368428988629889 7.34492315952209 2.4712803899127938 0.09780836379974123 -0.3162986535632875 0.015270810116141443
Ni 7.544137312726884 3.9542928683376366 4.10133038516847 0.7375800771875684 -1.4258019156569832 -0.9075708766888305
Ni 7.7260508154657455 3.770992431620767 12.53119795929751 -0.2338418325189521 -0.6563956950977534 -0.47681596635647555
Ni 7.885404125899995 8.88082645525892 6.643776699069703 0.152301352641299 -0.22964399238752065 0.7098507295931
Ni 6.976782249008876 0.5924801832754559 0.5188934290708572 -0.9961430666022846 0.3011918798288361 -0.4851669094243322
Ni 1.8958847115482556 6.332173161502859 9.21913657736073 0.11120149727719558 0.9277396383272215 -1.171319009848912
Ni 0.24629425751281195 4.786912564446874 1.34964526734218 -0.21176916898962886 0.03952736867066095 0.0007723593896502828
Ni 6.372475301448223 1.8004114186855062 6.932381448976554 0.3212809372692273 1.0248599749210026 0.8664113717313853
Ni 3.4635253796130074 4.136215377141291 0.29281958822962756 -0.37749553678758213 0.6361428583859883 0.34504924333341863
Ni 5.9067897031700385 5.46037708354729 4.631139164767547 0.20015909555452624 0.5990647225867684 1.6021088871842601
Ni 5.276122003962441 3.0094936291760073 9.255780453787478 0.2869153153051639 -0.32323960365749493 0.0347641429540627
P 0.202935459176955 5.38095259814435 12.351774633473706 0.9138626232348133 0.6411197427752895 0.039039630400965024
P 4.1124663842841 6.0910988191436415 12.614595920486796 -1.2860830276663853 -0.5942737289560281 0.16774596933114339
P 2.3877239219831634 8.559517081665454 1.452841260764292 1.1707669940001837 -0.9312486799217445 0.4292361596949833
P 6.242508780431118 7.790912494099603 5.674806983218607 -0.08862952551395059 -0.36327733630567116 0.5992750388253615
P 4.906062801648474 0.8190754752681574 12.556440157697256 0.12004814903454808 0.73178481066203 1.155416222575726
P 4.091932556557747 6.187391663902487 8.101601015483553 -0.6169115209602021 0.9227123603159593 -0.022049780711187832
P 4.538543309605926 1.0868518991299472 3.7631121249275394 0.31044965098167826 0.13850507018815503 0.3330925851921747
P 0.18320137000415468 5.419300422029793 3.6093263637478645 0.3428010707291903 0.8990191304640776 -0.14943431550614908
Ni 1.3395710832655576 1.1353315459066835 2.5846397274529718 0.5382396208795956 0.12317332492709111 0.11298635709176026
Ni 1.7491669100175464 6.651014873343244 4.638375537828129 -0.0008389509615275874 -0.7259486635962271 0.6875860046576286
Ni 6.000713952888519 5.581598715651111 9.013917180152458 -0.4048962973980381 -0.09244195728150532 1.0499814525789788
Ni 8.74929287896796 2.2550645875931723 10.335446413819682 -0.2813033684350252 0.5645515193012471 -0.5634153488142749
Ni 2.392181924055332 5.201290611603553 7.075793124122024 -0.6718907054095589 1.1634480917412673 -0.6429436833579055
Ni 0.5736043720773579 -0.05960393800813571 9.233424699153652 -0.12951315110218983 0.12067858352969539 0.10524168014933487
Ni 1.581663110946301 1.0526468650489436 11.416180493136247 -0.40063469390820683 -0.6177437870535103 0.10752019177086643
Ni 4.374407778766985 6.805964218094078 1.5385330666561676 -0.6575529486306481 0.4154676451559812 -0.00115931041542381
Ni 5.540675157235082 7.898192737905005 7.8081329905888825 -0.008912729108597552 0.33872612932886825 0.5329408343745016
Ni 5.169183990619145 2.9004662088009066 4.898640903653173 0.6200433817209644 -0.40929931156174026 0.5262721641050744
Ni 0.8826132623775522 7.567445008409253 7.017321248458275 -0.661699366698854 -0.9163051712380348 0.41306572058270796
Ni 4.862032150879115 4.657162188984782 6.774350228853808 -0.09101782324046906 0.5335208752476877 0.36393759559748934
Ni 7.956705140860318 7.231446743139614 8.922162491442434 0.5626512169547407 0.27311466197664575 -0.008461757614108008
Ni 4.563327999914225 0.16985978562090062 10.526390297725742 -0.8093534503761287 -0.3504722141212029 -1.867795889238267
Ni 8.109024714691813 7.256186403123952 4.542350173193614 -0.3177613541517431 -0.9475615581491553 0.41610553585029625
Ni 7.027342296752623 6.115253084916484 7.0040607186581525 0.7993210058407911 -0.5419990879220279 -1.6286889516656338
Ni 2.352537226839803 5.207054493070599 2.6254353997489517 0.2300052323816813 0.017147458313564016 -0.45540124812612537
Ni 2.222057360129539 5.313235996971345 11.369676776974933 0.20994857084112228 -1.3083598367867144 0.7645257525384769
Ni 1.1955551011725267 3.3787242735290866 3.898642592773303 -1.4726430443802379 0.3681392923836628 -0.4617220481378306
Ni 3.6772933335220928 2.860758469131832 2.6590604432573337 -0.48978281092978876 -0.7538875560983404 0.06607092348714427
Ni 0.9471137978132398 3.3333877433648493 8.251485349395221 0.8506317402996253 0.08644923003318015 -0.9840917918647053
Ni 3.638098939546177 2.7810638017851224 7.312028507868361 -1.2229907271915905 0.025435409353969096 -0.8791470741304989
Ni 3.9646588489135275 7.099444851479458 5.843106017811009 0.8568047018795566 -0.4612872745932572 -0.08423705287320976
Ni 0.6737509119608109 7.165549367054647 11.144540467478576 -0.5290808371984631 0.589076758136121 0.5934987984632166
P 0.1782939652988522 5.679557682396525 7.919303854384542 -0.04741037096316351 -0.2898540862185137 -0.06907268642794556
P 8.484712707500943 1.6353752813673401 8.081934471796695 -0.2322354072637807 -1.289927598223456 0.3618804559581445
P 1.8822315173231892 3.2053395141484953 10.274865317781586 -0.5110859432829392 0.5007038287176667 1.6316999705778157
P 4.099191444780309 6.112182016822322 3.7332570201411968 -2.012643613814998 0.19062287392931687 -0.3267653574225663
P 6.938119212855703 4.019793977571744 10.43590096111903 -0.6244883048661956 -0.5630775058588818 -0.4615009332659601
P 6.311486230675038 7.804322524575277 10.12226565533505 -0.35709768985752044 -0.502923719187121 0.0919696456307771
P 2.299770693221951 8.509020076375254 5.765810566124958 0.5335352734253909 1.2342513877070742 0.026188485469909734
P 6.959562653126074 3.884027550828423 1.4335439657339162 0.22986073638401705 0.6564797701711275 0.9165028890711376
Ni 5.42793723816557 2.7677888622813316 0.41854965636845376 -0.4475511559540873 -0.512735048850588 -0.5474973920324377
Ni 1.4387368626931334 1.0353101903238429 7.1649648734496285 -0.3435906565100212 0.9147450258397666 -1.0681534955023153
Ni 6.71929885659816 0.7714667149568328 9.199615031317029 0.3181259365800134 -0.6752745342801273 -1.328183299270545
Ni 2.557001915818484 1.4903236018231991 9.252828265748574 0.7310592453499152 -0.15301766198203323 0.12213485636024772
Ni 6.1936778971274835 2.2066930135939433 2.7841114541108234 1.0209081893621064 -0.04774512859476293 -1.1598233505044866
Ni 4.077027519326557 6.43558079744759 10.41208262156294 0.6067183824772842 1.9223477563422182 -0.40268077780395806
Ni 8.245133371897241 7.079343314863133 0.2330544416617104 0.399379481344867 0.11974707285436151 -0.009525680102248111
Ni 7.551062976552132 3.6474562408653357 8.281749329523132 -0.19956388517268858 0.33125296088027467 -0.3240117059368291
Ni 3.0900979090667353 8.329475168676755 12.430585805864295 0.5209939464252705 -0.20006705006135223 0.35962971225075485
Ni 0.08360420007302963 4.817929451591418 9.940878106780058 -0.2053090151865819 -0.09534653252280999 0.9973936511799337
Ni 8.562813301379423 2.250930803853525 5.940515614604094 0.5571264304817696 1.129798522007622 -0.5345668000136987
Ni 3.749395888248927 2.3365874860927107 11.508620543376963 -0.43241841407770687 0.7273103198304441 -0.7083173236677092
Ni 1.2139995218670752 3.238887105499664 12.478394500814009 -0.5305918745263507 0.3807600664714668 0.18702461505509727
Ni 3.091538879433497 8.518251292787319 7.976194265070769 0.186666203274414 -1.6869725178978754 0.44093262219630514
Ni 5.676945923606769 7.608737815481765 3.5645365017165176 -0.27244720359597596 1.0545878410027387 -0.7215158246358542
Ni 3.007593349504841 8.45512778465837 3.6442563860446455 1.018062492383195 0.04641329715721684 -0.44198086095516137
Ni 3.3375125210397045 4.36012416000646 9.1925497734875 0.3671697293815419 -0.22212120164791424 0.4969333059316409
Ni 7.33950150851715 6.075031999554249 11.172550229588984 -0.3057365617767251 -0.08799703413627424 0.5173571210036315
Ni 0.729690282204976 8.968995829575144 0.28814544060244457 -1.2786383984628817 0.3494358024368885 -0.4153987395912588
Ni 4.550872612306529 0.3569355646986856 1.6034379744010274 0.16022677813596276 -0.4131359116990111 0.0334456812529553
Ni 6.198298008365913 5.64455110854901 0.27104922780729723 -0.4943462619307551 -0.5634456878315781 -0.5425583028596075
Ni 7.909441312830538 8.731550931327208 11.47192353116794 0.08047064385224206 -0.37208182197117856 -0.719342214023303
Ni 8.969184956935782 4.9552179032846295 5.836555006281119 0.20402346360593895 -0.16561786724454702 0.42062347832530783
Ni 7.93750421072322 8.82249417359945 2.597702123827666 0.07742414371643441 0.5313578061580978 -0.037657662451773856
P 8.458351955853997 1.7767164622170701 3.701951038316822 -0.7520875267751241 0.25893759914531533 -0.5002991370800803
P 1.7794633119787093 3.118358940384847 1.6117947019217658 0.21248316433751796 1.0770150596580033 -0.24449879801216604
P 4.530789087819789 1.1404199725143103 8.330836885673346 1.3828966316530247 -0.5465512260690845 0.3154926127222244
P 8.430352100414861 1.5744762712420775 12.425827001228066 1.133291622762545 0.46112760908694134 0.18519193272173268
P 6.4892929678686295 7.653299824073869 1.3556955416696201 -0.8436123715589987 0.13661428092334535 0.32051783385095767
P 1.6957069094106907 3.496883843603539 6.095461356929013 0.5084076251198276 -2.04632995032385 -0.6697356067397692
P 6.722063718489383 3.879029184868719 6.206500732178704 1.1148295594026154 0.2081567690480222 -0.7965200460568862
P 2.3865261153657924 8.190259419118 10.300423629055542 0.4621290537682622 0.933910543024624 -0.30825238622004336
