# total energy = -340888.3618733437 ev
CRYSTAL
PRIMVEC
9.11730369120892 0.00000000000000 0.00000000000000

0.00000000000000 9.11730369120892 0.00000000000000

0.00000000000000 0.00000000000000 13.34409554326784

PRIMCOORD
 96 1
Ni 6.6455388184015804 1.909300146462604 11.39034684405285 0.9345294075555453 0.5797649938168918 0.4923747400266811
Ni 4.758566948608206 0.5404190572854113 6.031117342479524 0.3227153557229087 0.1265311856557305 -0.35855216291585995
Ni 2.55105803395565 1.6158961973027395 4.430133407047014 1.0689896182503655 0.7500635543665598 1.309605022047725
Ni 3.6517171666885417 4.195017291931273 4.566576591546008 -0.1254351243780743 0.4043023725677811 -0.04356194375135078
Ni 3.952925527783425 2.401643661536152 2.496934072494147 -0.4098091613186233 0.7478454636693185 0.24600520735436343
Ni 5.232147052744525 4.502735407841114 2.4897149914542545 -0.6901895037187468 0.43007511065651094 0.7893518104432212
Ni 5.186496713306862 4.983363187708472 11.648073872251356 0.6525912337499987 -1.148941156374344 -0.7373178246651173
Ni 6.204936001612182 7.765398992647497 12.488124908828421 -2.9073258074666186 1.9920778738485048 -0.5119063823017055
Ni 2.195337314263245 6.404285846190673 0.22660146522542113 -1.1815725692561199 1.2460681778363443 0.4028232169190934
Ni 3.0807095556157607 1.8409568382092139 13.41908913887516 -0.906806230608664 -0.7080237036866904 0.6821674047452188
Ni 8.295105218129581 8.965983773520351 7.076160011141377 -0.4347735445734448 -0.6634415462009412 -0.02132961471571165
Ni 9.019848803557842 2.5128656489138343 1.2950537227708658 -1.232817483474025 0.6062370719654914 -0.1722888515068194
Ni 7.581247693274235 0.4593589338836983 4.831923862145553 -1.4692052223432825 0.799446732785378 -0.6877829511597832
Ni 0.8678542540955698 7.53816843346937 2.29080733610339 1.4256412217094028 -1.157056843502943 -0.5360786086725349
Ni 7.795969311827542 4.279133535520624 3.8581119518069737 -1.2124916274324797 -1.4468283973099791 0.08560153732090418
Ni 7.661707898094962 3.902297140546089 12.740968709185346 0.611357166800876 0.1270502913839941 -0.4462044121182057
Ni 8.585290759096617 7.332245012950285 9.18885079116565 -0.7594285405212275 -1.5686380091203243 -0.8586942055927856
Ni 7.463196845453412 0.7049444487949796 0.4905464945216881 -1.240107332267219 0.37986737945386834 -1.992870544953129
Ni 2.136703934410317 6.6731916004096545 9.043507294831416 -0.6629913460374001 -0.04060003290954943 -0.6667222738347421
Ni 0.30691761664828177 4.9970391432020795 1.4058271388083579 -0.6158900216742231 0.2567742729454094 -0.5858291977331008
Ni 6.8100332110786965 1.7297986719571687 6.717711394193181 -1.0060189309550998 0.24271753774202712 0.895213383564742
Ni 3.5505150960358427 4.535794750920996 0.29239466364443645 -0.9069432704071606 0.35546709623263295 0.21550678165519013
Ni 5.880998202486921 5.512877949813646 4.834632613063654 0.4171038952078236 -0.0825285548225353 -0.04683958606135804
Ni 5.133962809604082 3.0929723290416957 9.63135456576866 0.5337599878416872 0.8209187866162249 -0.09177372756988712
P 0.2699050107003813 5.813575741903435 12.596492268429405 0.07165484533282498 -0.7706956287946147 -0.6026228722516719
P 4.087196058819668 6.532776006704951 12.523099797407776 0.1296512193419509 0.3065518585891688 0.7512570604540287
P 2.3619833906046894 8.510674745923492 1.0124446611472893 1.3912838272754555 0.6942405338596689 1.2488459976917974
P 6.693204081948635 7.835729873099291 5.842739261128371 -3.0813105586186222 0.21565307742506734 1.959893575806476
P 4.881349677029819 1.4993041180679005 12.305884596302802 -1.472994771292702 -0.85347255218253 0.684415320239131
P 4.150616023095359 6.317352355769639 8.044487863327019 -0.39305251068557473 1.7333161381594213 0.41435410037682835
P 5.215626498508246 0.9617296595251597 3.6277523340119093 -1.0559392128243106 -1.1976964714011762 0.03895529821727485
P 0.20165743413544648 5.90278855824007 3.5232680340407447 1.06274852243666 -1.0721988692162825 -0.11170286239364634
Ni 0.8406637193831786 -0.13789465924204883 4.342248981853991 -0.15726049641878723 0.5174062290740121 0.4925889129200162
Ni 2.0490957635182645 6.843293134839151 4.505259989225234 0.5694525561472903 -0.8413811682356349 0.5371178485703265
Ni 6.014192891691001 5.67126374903695 9.467835724583422 0.422335318810092 0.12965507599669285 -1.8908489144029883
Ni 8.587041281399799 2.476277909316602 10.048290685711187 1.5707144320333788 1.0445019175216463 0.8117018960036473
Ni 2.5031101339950603 5.2248440925109385 6.694225219958825 0.01299075583271311 1.0304420969944705 -0.27639076162475623
Ni 0.36776558956080846 0.2105212767560369 9.123371227992623 1.867843711757067 1.2812298133391418 0.5497257671423242
Ni 1.7621286307440578 1.2203510952129482 11.242613702428699 -1.1673463983544088 1.222797123123546 -0.3323263964501115
Ni 4.32593265521975 7.139259046328151 1.5131806542420814 -0.177166748424411 0.41200308364614846 -0.4822515355497501
Ni 5.953271068618808 8.134941544692108 7.961914267517347 -0.28979495084580414 -0.4362532144427648 0.073814314877989
Ni 5.617298428659174 2.728726930424942 4.654300552194573 -0.29274657727496034 0.8409916461067001 0.29107844554391804
Ni 1.2187738016793521 7.850445201210413 7.006944176927494 0.43482933751204467 -1.2053753281026727 -0.37909733405706325
Ni 5.098906777022133 4.715050058227546 7.127374641004206 0.38373174750528105 -1.1230156947578336 -0.5416087944621447
Ni 0.9676650242093855 7.587538632801294 11.205810794465036 -0.7497642779585861 -0.11755906406410722 0.6257671715786192
Ni 4.416230430692212 0.8618368336783825 10.192073299658418 -0.2709623915203333 -0.9021499627835754 0.3338993973641863
Ni 8.324736455032399 7.336393386116678 4.846054771091914 2.1397661531978245 -1.4439413055701713 -0.8620726351467155
Ni 7.316371787274037 6.130538803726955 7.12191702303189 -0.007739020515470542 -0.263097901170592 -0.249979361510763
Ni 2.46607564651837 5.114488248981185 2.5039926889895816 0.9382065992968165 0.7301914980329812 0.014631376759929638
Ni 2.3050184773219806 5.6450515010075355 11.201193791890393 0.21916160479895805 -0.7383848324770509 0.7561758379118847
Ni 0.9405136939027426 3.640812871508305 3.6041731632801968 0.5279508373590779 -1.0772955670128996 -0.04726201831075731
Ni 1.5675289013736793 1.2251650315466982 2.379612608966316 -0.20736281239181706 -1.2892164310890442 -0.7871807709338314
Ni 1.0623755746544519 3.58928187120839 7.856709700556852 -0.5239152338371235 -0.8386288023014783 0.030309449616818765
Ni 3.4058781907354456 2.7652234969855503 6.92059510567122 1.9089821336685897 0.014027424627343585 0.356516877653386
Ni 4.398205521351637 7.145568220462536 5.835399831680134 -0.3240579857937322 0.3252116397822012 0.44420049431429953
Ni 0.6926716463350159 0.08720336260944164 -0.10183389979650342 -0.09915999273162923 -0.2568997427796802 0.2569696767856671
P 0.2729383376288635 5.556084851869785 7.5970206286101964 0.5154041110423189 2.7684384142383807 2.051796629865376
P 8.666699163498235 1.8498370919763967 7.950732806305774 0.1780751191712933 -0.3718450233700241 -0.6416110805894112
P 1.679708205635914 3.8122820014871612 10.296597715765696 0.5050340806619044 -1.8820043195281653 -0.6266331191233401
P 4.14773495513804 6.320789579250365 3.549636187962787 -0.667431898307257 -0.5915329329860974 1.1562508026618794
P 6.949345611040249 3.988710944658366 10.459662515228548 0.8672456947072227 0.44252799170788304 0.29719484285430103
P 6.667493285620652 7.840689686291641 10.123871309611795 -1.17906548656355 -0.010596287458607558 -0.33812346274786287
P 2.731051842858855 8.89578053531983 5.669692837615918 -0.551730713387495 -1.2671980178364242 0.11494862302445363
P 7.062272534202801 4.035099785692684 1.5132335346033234 0.9375208860837014 -0.07933138804147628 0.227245410248357
Ni 5.269482411242073 3.191585085454271 0.33006462718639634 1.8076940388503642 -1.2679186980525325 -0.10114385593087742
Ni 1.4346715524051095 1.2253473776199462 6.76791217988875 -0.24945974156186718 -0.031500641711442526 0.26725434654112684
Ni 6.893948873987474 0.941243078195735 9.264285538207659 -0.567506488164513 -0.6310983539835453 -1.1151707447921182
Ni 2.480435399786659 1.974379460004853 8.973463609444988 0.15680104028386543 -0.335274423334842 0.9913770126722088
Ni 6.75724402287337 1.960293225846437 2.477825115748112 0.9044711547175842 0.9135054970057105 -0.016259913502288125
Ni 4.371163598688943 7.048988622766677 10.416307912853078 -0.29208220421808406 1.653748465737423 -0.36951637523684744
Ni 8.121156181554552 7.3499325820553505 13.57721691840482 2.271809784031352 -0.5572927808563047 0.14830457277708006
Ni 7.465859098122833 3.7971928639258805 8.070202306576467 0.41354240310881035 -0.017645223885588965 1.430332199427169
Ni 3.165436658550493 8.805181888826509 12.280744543184083 1.2576916210078857 -1.3273582322660882 0.15861135401972684
Ni -0.0628419272234947 5.031128741595813 9.707482227889013 -0.1731666261260824 -0.1870014751266457 0.7928778213186086
Ni 8.831220908086339 2.595650766168474 5.586158278000228 0.17035512481921627 -0.102572617957604 -0.15253480880834375
Ni 3.590777109009025 3.3182153160214187 11.5260296454264 -1.123030350045853 -0.8014005140776391 -0.6508307994154662
Ni 1.1257864216264806 3.4093154142161723 12.5358840806032 0.1349212094916386 0.6618700879487633 -0.02186774660736879
Ni 3.5017831079602866 8.62013709369433 8.151053643724312 0.03552158994537753 0.17490366342184718 -0.7595198146834532
Ni 5.8812261350784825 7.917384444699794 3.7680256977794797 -1.0241588350889201 0.28130619664850265 -0.5202742946504265
Ni 3.127435736885588 8.71425501940134 3.3038911202374135 1.4404448623811386 -0.6842204306195054 -0.7515097998947832
Ni 3.299260441707278 4.464761838087196 8.881189202538517 0.12230892004426677 -0.5387358437897238 0.927750436960499
Ni 7.413297842509067 6.1783134749179585 11.461109884698242 1.7648206365256056 -1.3066978757032592 -0.5669984381798429
Ni 8.200048210145345 8.776362091949645 2.291981644815108 -0.5288023867260958 0.9566601780163138 2.1910190378355296
Ni 5.0953783805047825 0.7619576837870987 1.2776679364170254 -0.37546822194490825 -1.7601659113624137 -0.7757087657384899
Ni 6.050561816000335 5.707213277377814 0.37117272593944933 0.10171515505331513 0.05710522965342424 0.7410276694165366
Ni 8.107379935720656 -0.1614938880418187 11.208919795013916 0.5238422145073429 0.7672220684237174 0.9076762919184432
Ni 9.287250202672526 5.068783205721546 5.6202396708206654 0.29159035218333007 -0.46146750892486327 -0.93817780294141
Ni 7.311849604657484 6.135188628594781 2.5985491570027532 0.10137319833286412 0.3207708304020282 -0.5135644867304187
P 8.708483766183038 1.5744580521571074 3.446752886514741 1.1676916975089697 1.1101084997778623 -0.3772402262436664
P 2.0324931535490243 3.1092467160790895 1.5044398952209335 0.10767240107801457 2.0902767882184454 -0.24831894308920455
P 4.899812216946189 1.6655946195665106 8.07401880988955 0.2895859201587916 -1.7025022381023582 -0.027180159959217704
P 8.721202404792093 1.772932635584008 12.379197746782566 0.11910224018151101 0.2462440628380469 -0.41979738287958673
P 6.472063881616995 7.794802296958754 1.48622534596418 -1.4171259851495401 0.7589863107774865 -0.6836822987278485
P 1.9394146004595287 3.2849918614756133 5.640388911914582 -2.157892944705522 1.2253234890898252 -1.0600774033624003
P 6.889864321946717 3.8008215507835175 6.075219563755311 -0.054307098082996795 1.4176168087430296 -2.1131349237635413
P 2.4288132264501203 8.629445860733647 10.03614734896323 0.5893819480813656 0.9486385932634178 -0.08455998343026726
