# total energy = -340887.3550641137 ev
CRYSTAL
PRIMVEC
9.11520211348162 0.00000000000000 0.00000000000000

0.00000000000000 9.11520211348162 0.00000000000000

0.00000000000000 0.00000000000000 13.34101967183378

PRIMCOORD
 96 1
Ni 6.492630985251892 2.3040314548933294 11.188272758734174 -0.07670757726538402 -0.09610783616886673 1.1378800134641758
Ni 4.7833573652123995 0.19139646028818003 6.097526160929313 0.5806576808344903 1.5284488384959483 -0.553252292238344
Ni 2.834235427060615 1.5207256604699715 4.82814217715134 0.10180565788459241 0.7423286476161474 -0.5354142356156586
Ni 3.724134397176792 4.5633528425065775 4.580972528551919 -0.01167126569034119 0.10189744626745031 -0.10927959766413439
Ni 3.848885055850636 2.6753939117858523 2.333317688362071 -0.6274337606477646 -0.7164836615285854 0.4863627295046462
Ni 5.3997182295165524 4.225807786145983 2.7208878864637094 -0.05859184150127974 1.617588727987414 0.551862868089985
Ni 5.419279453651732 4.816390858346553 11.46367127733557 -1.2615001961206984 -0.3779740190858974 0.6237532264723838
Ni 5.619139379275193 8.157130731595204 12.413392408624519 0.14439161087591906 -0.2312758715639888 -0.34171452253323087
Ni 2.1177167198872384 6.557804681694825 0.5806949007458438 -1.6974811307386832 -0.026158917783554947 -1.6797068374743975
Ni 2.8972852813677155 1.9131989258886244 0.17861512362352538 -0.3399327480424597 -0.9098103075423105 0.4356412918903788
Ni 8.235886079464706 8.62927998031563 6.657529552454812 0.39667776614298783 1.3138270305488728 0.31465211909880003
Ni 8.738261339010974 2.449409816371419 1.335649681456411 -0.05446264982425458 0.373834285885911 -0.4456284850100777
Ni 6.804261521474409 0.8089942575444035 4.585041554858509 0.3328002507627365 0.4110232362313824 -0.15419265612674088
Ni 1.1622703300338397 7.814645235588165 2.617281762564505 -1.0588029075253507 -0.6427660201294607 -0.31417080858700736
Ni 7.807799718661083 4.160552052882352 3.6120010015262083 0.7134543877839584 -1.8026117392314502 2.1598693517056025
Ni 7.5872118230080785 4.341087749630426 12.638348309219547 1.4266539792446333 -1.7533604584048061 1.1729604021070767
Ni 7.9864303381285175 6.972519040724772 9.161118308255253 1.482462344463505 0.41066790977449275 -0.6444824885999352
Ni 7.129874778024682 0.7334939484161278 13.529128719398106 -0.4778701186526028 0.3454055982315729 -1.226702628825539
Ni 1.499833616799034 6.802520517835164 9.401643885898416 0.478634250512137 -0.26862525874672444 -0.5338625748578225
Ni 0.27259923997515473 4.949718922384424 1.3433875766886356 -0.6863878705844695 -0.1672104085426475 -0.9578099753500408
Ni 6.475166257645645 2.023821020997916 6.859365653936851 0.7354113516710238 0.04504187073098694 -0.13798673579083978
Ni 3.5947349853300965 4.457115159703447 0.69622006317215 0.10568802365813411 0.6420797926957136 0.39779516757688266
Ni 6.419909901304798 5.817075997213417 4.498845467351753 -1.862990497429824 0.764246016514529 0.8746617846656356
Ni 5.289807120186638 3.06235247981318 9.024599923412483 -0.10009895960613083 -0.4296200253969633 -0.27924082947904166
P 0.384718051302059 5.845497197983915 12.52787114582682 -1.504572288988667 -0.49799234332377457 0.5764793810870846
P 3.889192480419958 5.905593726745909 12.630170149716244 0.7410317831815948 2.163027180608294 -1.234616484355977
P 2.4817232085238943 8.726220156773056 1.1137519312329383 -0.3224518176488769 0.35478061168856967 0.3280779055864027
P 6.525400137519353 7.9327964877970185 5.511201711243167 0.12127430813216533 -0.6712394449788053 0.5923317747383089
P 4.755018201262598 1.2229958077545138 12.648687683188108 1.6760445581314618 0.3313830587002357 -0.1649637786003159
P 4.167452261023233 6.395818421626662 8.092489362966573 -0.23640033727474768 1.5844063276981744 -0.41439883757183477
P 4.787158404571379 1.2095508843624403 3.565801510190354 0.442767875632831 -0.6839756615985512 0.9055625880095501
P 0.4008975353840459 5.750790246089919 3.3427525099164277 0.219139493311771 0.8070949933592553 1.731062309128238
Ni 0.6442397105378185 9.185845117533677 4.725256154233813 0.49840397693989646 0.446958773785727 -0.4094242671753787
Ni 1.9010848220323087 6.774400118740556 4.817175677264558 0.723718745824444 0.3723263338818168 -0.7003499891915164
Ni 5.844321336887252 5.885923120183133 9.320916919771486 -0.15871188415333312 0.47570884933522584 -0.6098859815719884
Ni 8.560606046189609 2.6660599446309483 10.013703286237334 0.9797327435650611 -0.08659963956811538 -0.3920235552004281
Ni 2.799898459997604 5.384404689653038 6.670496839246382 -1.7675771162248206 -0.14022230998957785 1.2037120814676368
Ni 0.3942963058785952 -0.1438351577287484 8.970275140746665 -0.1955442224903342 0.6019682693868085 0.240899767806998
Ni 1.4595626530389112 1.3652111940346034 11.07172578213007 -0.88349635223813 0.4014114241732313 1.7020273553484688
Ni 4.190641335673697 7.113412722671405 1.2710292777930703 1.1643276661327433 0.16434928494476855 0.34219249061091395
Ni 6.219858556433042 7.817261298648182 7.7517594549224595 -1.5946981965424858 0.26150253165901416 0.3321410199121828
Ni 5.3051753512639515 2.828738960073889 5.068467220343908 -0.7091382769071077 0.08583679326016184 -1.1655240004336895
Ni 1.1853044462452091 7.41057743284428 7.102078880131944 -0.22957482971248203 -0.2974722648854038 -0.5037750114438226
Ni 5.071744135570654 4.85430098471105 6.811377759909793 0.5391685604517683 -0.9583169968934464 0.583998058061633
Ni 1.0814640616469022 7.750984662726984 11.662372660746737 -0.6392695769404281 -0.3253867319074848 0.8235816781603688
Ni 4.8106118200885355 0.680739715106551 10.46788464818457 -0.13674772117741613 -1.1431412618631152 -0.5230454296376604
Ni 8.45142415304367 7.17849526709134 4.62223613784248 0.3731686272774541 0.41018788481428065 0.04275641713091991
Ni 7.786287841233764 6.107641300921301 6.762175720936414 0.23357546623144287 -0.28924859142403087 0.2333643786619013
Ni 2.3984649507183344 5.390302225540951 2.7008763713349238 0.7427549365202886 0.847927711104901 -0.5646700471569823
Ni 2.0862692719532356 5.406709589680431 11.338692738604234 2.4991942909607343 0.23882874421058223 0.34023022467822056
Ni 1.0838795902563256 3.616328899578111 3.4856879971781947 -0.5714302486989514 -2.183999669094903 1.2500736994513115
Ni 1.5415721281294104 1.3024530262010936 2.337320173691874 0.12639054631280813 -0.1249304168275139 0.6784495895739993
Ni 1.293246671878386 3.288537109678207 8.077067352195693 0.03722854533415524 0.06611257535835711 -0.16908011476153462
Ni 3.68983389092298 2.2653465363333565 7.045605644284085 0.9197841309255707 0.999833113859362 0.2400201934155221
Ni 4.397237395796645 7.038686294218374 5.821247113785764 0.15497864236314599 -0.7251562496019188 -0.616369532413803
Ni 0.6448996511843176 0.46230118415581856 0.1341639280887551 -0.0565825243807348 -0.2559278657847141 -0.4501153171368377
P 0.4634460535646622 5.327753707360335 8.049437350984809 -0.27770073868543144 1.5927670409580441 -0.9476296923829294
P 8.697051509413981 1.7209593093877211 7.691244538374908 0.03378223865676763 -0.9186392186878501 1.1490990221084467
P 1.9129892762357312 3.458508286960916 10.330938760353943 -0.08044621837220983 -0.8181764479843975 -0.41613664619854784
P 4.157316156065955 6.400895589307601 3.3433659630311983 0.7398038243117646 -0.3569272257179273 1.3448479044104193
P 6.848761939101598 4.154071144047258 10.026697007115573 1.7876412339645469 -0.49303577064944765 0.3220725799325873
P 6.345046744817273 8.132993675905569 10.10113995277708 0.6593151827373935 -0.4027792510550354 0.8788678523271832
P 2.7337494369086013 8.596109759146982 5.739986908324302 -1.4510874296966494 -0.06311004108660744 0.8634857134441581
P 7.179078640038522 4.027141952023783 1.6407719632369342 -0.5029419740195661 0.40023257337378165 -3.303550545232588
Ni 5.41683657943541 3.337184944351764 0.18098689926191017 1.3476334375753565 -1.6406674641837484 -0.47780301286009325
Ni 1.5755262566958335 0.8898925894745678 7.094821356060914 -0.050608823295803164 -0.07125992388725147 -0.7478827446651571
Ni 7.127477479819858 0.9881699661093611 8.88782722442555 -0.9628783910118837 -1.3010602178015076 1.476610513668418
Ni 2.836678301276937 1.5460659228631677 9.216657235867393 0.32372219972086824 0.8662216243180824 -0.06795657054563135
Ni 6.357571032777075 1.9136546860036099 2.0682849778159063 0.6307273437973718 0.6737041044692139 1.4525760984270337
Ni 3.8455762374158406 7.061127922280262 10.435185682974817 0.8954419546357805 -0.2165097689984078 0.10903200042970256
Ni 8.104654511955768 7.570284892337515 13.07497288001731 0.5802298492684523 -0.3845781546659764 0.7941381760882711
Ni 7.767309990045766 3.8798220524558547 7.924846208351211 0.20972848441051622 0.0924175318014731 -0.08938285874020735
Ni 3.205789303201431 8.720823957011627 12.280728842834296 0.0030866093451237166 0.07238863817505597 0.8786557363163771
Ni 0.1191803585484903 5.013507108077801 10.296118687569049 -1.0406038680188208 -0.6789558397864565 -0.9569712814988294
Ni -0.015620722181014603 2.315407227363369 5.741067971317047 0.034365879074379525 0.9993222356612144 -1.5207416996596779
Ni 3.7727913470526495 2.834600035152603 11.439017389675541 0.07685927235189989 0.6915473032982219 -0.5767699157443099
Ni 1.3830496449351377 3.688557762601021 12.915588098685483 -0.8800155927783812 -0.44942471882771634 -1.3277924915900294
Ni 3.4140443301429264 8.605926832023771 8.135073765070363 -0.12626841891264706 -1.71120747918584 -0.12817386346547602
Ni 5.812345207219867 7.893236509816273 3.4233454825695517 -0.7031848875371502 0.6077576223750759 -1.107606559291615
Ni 3.1277905171228046 8.644958128271133 3.554981765060597 1.4526576023972466 -0.33958153535062807 -0.5731924828056967
Ni 3.5098906823243867 4.6366481841985525 9.036446040321186 -0.9022849456995429 -0.8134055089583153 0.93189119860175
Ni 7.40235552036994 6.140565411627857 11.307635421328659 -0.4093844150763788 1.5945956095263505 -0.3782946356501098
Ni 8.202724973498357 9.10792836827575 2.194344579539988 0.12075931616895978 -0.07577709503131466 0.845836118683195
Ni 4.612274133249125 0.33173958401590914 1.511563970638532 0.03673309375497545 0.10456033781159411 -0.8517347435558169
Ni 6.078144506279437 5.914845657080116 0.342086250146311 -0.021085359915389495 -0.7494454611665867 -0.1535732773751871
Ni 8.269329756702344 -0.06550640132687252 11.180295133681467 -1.0748486481343036 0.30172821194828037 -0.7828687738220389
Ni 0.7553831952186537 4.829671708097231 5.452181687872769 -1.126619610059008 0.11006995477591366 1.274844221527772
Ni 7.620928956314709 6.194490948432947 2.495251080256895 -0.9782142500380056 1.2899728496390945 -1.723867334041696
P 8.521319524277853 1.8269235361218605 3.5371177915936234 0.8161609602162653 -0.5550700621733731 -0.0843820630915063
P 1.9912979791925476 3.5033641974777936 1.6250564429520027 -0.9365292115943936 -1.8867153518505895 -0.772677949331966
P 4.977657017433038 1.0118877224932088 8.183514684651717 0.9040911456703462 -0.15818712199811466 0.7333292723310145
P 8.572300850740138 1.9060526072856512 12.083655434553858 -0.025613843913362338 0.0764538093833651 1.3730997001672611
P 6.587647854024078 7.818847343848332 1.2513194758604054 -0.7997213266030033 0.7919018305585847 0.23627563877142535
P 2.3111868886986024 3.312309557275853 5.940102059612155 -1.5006773248096348 0.9384701373708483 -1.0363983145779054
P 6.83197173646553 4.248541100681461 5.836696470163544 1.4534875544977097 -1.3691414868504614 0.11810465215493209
P 2.353226201704869 8.660253437730047 10.222769566183503 0.3732930686704603 1.145124610841731 -1.2280907674223172
