# total energy = -340859.9068066482 ev
CRYSTAL
PRIMVEC
9.37365226098279 0.00000000000000 0.00000000000000
0.00000000000000 9.37365226098279 0.00000000000000
0.00000000000000 0.00000000000000 13.71928758724079
PRIMCOORD
 96 1
Ni 3.064603184132756 8.000590463995637 8.527923092412761 -1.4726587281095218 1.1668226646404551 -0.05098163325418961
Ni 8.182570552626366 8.827327862628225 4.322137714078707 -0.05726720915258524 -1.696968709878639 0.6947143881722939
Ni 1.757100525080808 1.0311767585293732 7.852056504665582 1.4778235601399128 1.6037235399695478 1.1523877201620476
Ni 8.5913836568528 4.88021404779567 4.71843324282572 1.4974603605342338 -1.0176791409018473 -0.6337969838616311
Ni 6.511463915105995 4.062597212995251 6.9972900104821765 -0.8519190916524811 4.222100803751058 2.287924687315343
Ni 8.312967431834261 3.7485611086732824 11.090699356440139 0.2765743383904721 1.1016318297654188 -0.6102137972250523
Ni 8.17583089651606 8.116026993896092 7.877409422442421 -2.601408497137655 2.0156152948488124 1.0310499057817983
Ni 4.108828066870122 3.3613355260352162 8.29815237413977 0.3843321000934413 0.3362514425361306 -0.6105673239097292
Ni 2.2342288083502395 4.926894836988059 12.911495724637437 -0.9099517182161813 1.188902784368946 -1.340440262261027
Ni 1.344931653277893 2.832989605788433 3.2677283579562943 0.6377014611223598 -0.1613467506730189 0.057292148853249715
Ni 9.227685932346319 2.608378145822968 8.417194948137073 -0.6669174205646837 -0.37811542975976814 0.2930419970281921
Ni 7.927091655148747 6.376473946198447 6.2851895691962065 1.0338696346187806 0.47946265995070325 0.33836463222439145
Ni 1.2798691316344455 4.739084336534505 6.235992891686702 -0.33703177234558085 0.2819805970077079 -0.20225891550634842
Ni 7.310089730046218 8.276860122603523 10.805544412676538 -2.135588110560735 -0.13103781527683236 0.3411005430983158
Ni 6.698702622760204 7.493119667751153 13.45915605575388 -2.6419463093507014 0.29410154864095794 0.8283312770302121
Ni 0.5568465105157505 6.903657533541645 4.431453248930441 0.07062588984767837 -0.25384912887881445 0.5917154813105487
Ni 0.056317841274455736 8.621107508766267 10.995268075594783 2.8196851282284987 1.5863212853327004 0.9163828185535057
Ni 5.119879593593057 5.1680132989149286 9.039213652029916 1.6156894540821725 1.8228332084846477 0.6487644038047407
Ni 1.0048180478448356 8.923445294832794 6.54385363377575 -0.8150841822123187 -0.8444718913458167 -3.0944967182915932
Ni 1.5442529989379232 1.827412292095287 10.31346046692589 -2.162546384317134 0.19430855031102018 1.034184080535406
Ni 4.459515152264829 1.8543802901889623 13.458977956357362 -1.0703129650474792 1.31185807974796 0.2873022663309374
Ni 6.4858925912271115 0.6886400639384378 12.845807980375687 1.9522460865635474 0.1828000354507884 -1.2321160865316265
Ni 4.019197202159757 2.536126032751697 1.981202058353087 -0.08599285922205191 0.15410549572957333 0.6290797808916198
Ni 6.3123769107571714 4.6219980438031545 4.914413818753186 0.2728585801017817 -0.5865671043403898 -0.22074977522168432
P 4.743864899283123 0.2348859204140143 11.416697178651345 1.296490339042638 0.8007294561525435 0.783730864712018
P 1.9185710621547207 6.891209323090341 6.1569420684947005 1.5130553867590135 -0.3626741555040335 -0.6171539759883112
P 7.2876585797375055 2.793498408023868 12.66678527909239 -0.604902412314468 -0.06914621997835833 0.034013895051599484
P 0.08331770978645493 0.24128718767093843 8.76163074471403 -1.1195480479242073 -0.028585782057492706 1.8775331711306893
P 4.746461401011294 1.5859751259851766 7.594147019108125 1.7069888131188022 -2.5446735063394565 -1.002997884740589
P 7.759190792495319 3.0651187350174105 3.848891060288104 -1.3041542833457993 -1.6287038640639693 4.238890107394255
P 4.167703977897711 5.472338299300488 12.082590200193565 0.6901853899536888 -0.3690605186463515 -0.22288944727250645
P 2.575204789808538 2.8154608757101665 12.091508293132849 0.7124146336655344 -0.0276936092605265 0.5647384385010726
Ni 8.919573976371657 4.644222973758005 13.650101105586135 0.872063170700524 -1.3626196265715436 0.2411851602579007
Ni 5.184323454174919 7.77431049389438 9.395434941830084 -0.6062715247478526 -1.0903027779058447 0.06664659348495619
Ni 3.5407003656328775 1.0771451501356932 9.747224368752706 0.8120682782041304 -0.3494589423653401 -0.8134412472922572
Ni 2.4127125246177634 5.00722703846974 3.7049351928137852 -3.06161873661665 2.653702164335049 -0.39822582735639805
Ni 0.5812892466398614 7.049924006344462 7.781333234308625 2.039703189035952 -3.137276532461281 0.7979539502899354
Ni 5.786768097025283 0.46823456182651224 9.481605991421791 1.4558732811210668 2.6986990407607134 0.03820787852828904
Ni 3.509373619150757 0.906212848280496 4.2960442777584555 -0.046310453030765406 1.7856324310646345 -1.2616446921183626
Ni 8.40854119219683 6.5197877184800594 12.491699511837362 0.550850881885703 -0.79587161383961 -1.492881997134932
Ni 2.7294294935399375 2.5084081424621605 5.9026826832006 -1.2727968520804402 0.2478494596519538 0.2541013540989366
Ni 8.37975470552819 1.267599020579659 10.471163733080841 -1.0848576956308735 0.8364585341230368 -0.31360773699468575
Ni 7.782315593085204 6.230619914103354 1.530111906854462 1.625928101091045 -0.6213245624262331 -1.9126464698940542
Ni 5.068727572182843 2.6062878213270038 11.339115206797986 0.6907011532478428 -0.15967990449355726 -0.881824878072978
Ni 4.998584530912434 8.291923582087893 2.524444587070662 0.10198769198841146 1.0375787080392518 -0.12434677640990197
Ni 0.5904407435251082 0.2679908487655722 0.8035094878657723 -1.0644796461951538 0.8417897165279631 -2.4751117960902342
Ni 2.7343506610752795 5.64876918568184 7.975131623946133 0.5063872522556891 -0.2024106105928643 -0.27128763607023604
Ni 2.9609493353597776 8.10405683971965 3.871349394188916 -0.8938643257360154 -1.1178835157375906 0.9336763155266308
Ni 6.129440709576718 9.134858652151092 7.151041344764939 0.22758299609343385 0.4915293613072502 0.6855658889038064
Ni 0.1698355845187495 2.3036594520345814 12.589613873216265 0.5933041659539072 -0.3663778296078658 0.1897399571037313
Ni 3.3583828255140107 6.786852450383742 1.885497066856242 -1.0334117211457556 -0.5602660045520157 -0.7868912647178705
Ni 5.904454303513323 3.800744231852806 2.859181465459391 -0.6030255070067292 0.07063463159842674 -1.274014012316993
Ni 4.518672272865866 5.904988601702874 4.154008134305542 -0.1581344143833083 0.9984408614975255 -1.3873433545704688
Ni 3.984411577924224 4.51691939985804 6.2014744165459454 0.5047605152855436 1.0330399396286338 -0.6823193569420507
Ni 9.460264996892812 2.6380270085168487 6.060070057268045 -0.323585674143004 -0.804695382778827 -1.163675377260725
Ni 6.397142849846883 4.600298038385408 0.15316735573523438 0.07783037801591758 0.47634314048511506 -0.2735165254007547
P 2.2776288191857335 8.735569178812101 10.710442147032117 -0.240199913526496 -0.8030141384216622 -1.100656610336343
P 0.15594851841663632 2.435331147975441 1.029502624202112 -0.7915063948923788 -0.13710973250252517 1.4594394012057705
P 8.415730783624655 8.61236189103203 13.130401442357638 0.7749757442272073 1.1049374970998842 -0.2773497831039159
P 8.703473792829223 4.774816699667314 7.595683360744397 0.6142182903987551 -0.7923810841878483 -0.3338999115848185
P 5.466770349746215 5.937946363710995 1.947137267990826 -0.45264708241975593 -0.2051994861919111 -0.11209212741226503
P 6.663354579377775 3.054920201153692 9.785227030508485 -0.07812631198978158 -0.31550855356182433 -0.7492024919178452
P 5.556569940200649 1.0217093695566197 2.263353683872262 -1.5470685104796646 -0.9995523493941495 -1.842579794983956
P 1.396542983658072 0.8958690228038291 4.604248095527109 0.5349105565063627 0.34312374417593167 0.7322357821565196
Ni 9.090933716778496 6.647719327094059 10.003226316036939 -0.8594791633879263 -0.9488872189391142 -0.3242325636983835
Ni 9.351558749450216 0.8389465809464599 3.042183282206982 -0.3535382546410363 1.2859722131201337 -0.7046797269151219
Ni 5.204439312328909 2.4626084765999092 5.461662646527152 -0.3947203853063008 -0.18272213102500143 -0.07938975208323747
Ni 5.313801715442884 9.258918942303957 5.082611826189223 1.02699399054487 -1.9108857784492057 -1.336365320860705
Ni 1.1826362347885326 7.262827774402036 12.787186095329448 1.2110096435703144 0.9317297333232213 0.790666929710219
Ni 6.801803426038734 2.331302353104532 1.0113711682714217 0.24392852733099282 -0.23005125512826832 0.654719335836595
Ni 8.559663216967852 3.941386513186661 2.400683316430898 2.360252647455793 2.391737862548268 -4.395911491219042
Ni 3.3357642021563336 4.141073431292174 10.357445393674157 -0.48400014280974063 -0.39349294065710294 1.3572395932065529
Ni 3.9433924748105906 4.541047181259888 0.6360979298701455 2.3417574168650828 0.8486183094140224 0.4813272239632678
Ni 3.5007779798556924 9.542284455815182 6.508621823683679 0.15055968735984393 -0.8237331161365685 0.7116890683534195
Ni 0.538857534102274 8.031054834452517 2.3299741065526116 0.14418232307859039 -1.875973797063369 0.49853536031143825
Ni 2.475712842722592 6.339607371119397 10.1786410984929 -0.9208364834494851 0.4158563959539677 1.132551916383043
Ni 2.2428431949502006 0.6834836177266441 12.484016866290759 0.16281896434317122 -0.516184183741453 0.218843559337907
Ni 2.69380024058406 0.6188063531988205 2.111576440795106 -0.5408526330224105 -0.3405025045030007 0.0884991705836734
Ni 6.756060002091172 1.2198215140508228 3.8586734039831194 1.1721865000555296 0.4892462217000284 1.0634820581685749
Ni 4.764271340663009 8.96141796090074 13.707530662040956 -2.173420093806844 -1.5561259926962425 0.983195762412997
Ni 4.753416651127911 7.149781525875891 7.081086713908738 -0.7520055085842792 -0.5676059898568547 -0.44715494895693314
Ni 0.7533070174485683 4.514697844227799 9.404256486149151 0.5716210245535187 0.6945683495127328 -0.508312237192544
Ni 6.2580003529047525 6.076423331329298 11.532103712863966 -0.7657686238066425 -0.5346542175211825 -0.6870296179335265
Ni 7.1021539977862265 2.180339680425131 7.039242729379658 1.0375360277267744 -4.819585069224583 0.469928752318339
Ni 6.899636236641337 7.064275068242765 3.254366216391284 -0.9801993987888344 0.12343789144238741 3.0730830285025075
Ni 2.0915524444351097 3.2678145955588183 0.6875780291160488 -0.6611440084160162 -1.8594004660857202 0.23072102750178328
Ni 4.043821787141364 7.580453987611692 11.452134271732033 0.07659470583660356 -0.04959812264310168 1.0438486002083636
Ni 7.415262110515815 8.868047008863513 1.6165988485336773 0.2179112773316247 0.6954643789644409 0.24361896651037396
P 8.290545655177997 0.40392474447466076 6.2451978183909045 -1.2387302494140344 0.5606892081323634 0.34671146152718996
P 3.658377198468469 3.5404566506692228 3.9129468516586075 2.349152423777573 -2.30891131686934 1.2289538867535608
P 2.1306499487968473 2.9783843289135614 8.58875434734106 -1.1161534204203616 1.310034910496292 -0.10301176237755164
P 0.689988932525744 5.91059404586694 1.4788155311965447 -0.023897118332571746 0.17548884650135585 0.11088499447804129
P 0.6667197776881565 5.262134143148015 11.456167754380523 -0.5048343059462725 0.5235640211452919 0.2622172983378516
P 6.0536922241422415 6.617957980570799 5.484985231183695 -0.7945991748850896 1.772939151867682 -0.37691035370807346
P 6.9565155596974435 6.7438367592986275 9.239268017311401 0.5925973696948698 -1.041721783673348 0.0025253375250150058
P 2.4858457610191724 8.641288982487394 0.5173778095170615 1.0590643887168534 -1.7011133281746318 -0.2923174601573417
