# total energy = -381172.1803816101 ev
CRYSTAL
PRIMVEC
9.16097180697172 0.00000000000000 0.00000000000000

0.00000000000000 9.16097180697172 0.00000000000000

0.00000000000000 0.00000000000000 13.40800824472312

PRIMCOORD
 96 1
Ni 3.2906119436459527 4.302203104159096 3.4361504719445133 0.40451448857858724 -1.7443497702657633 -0.48509646119771294
Ni 5.562826124660913 1.687881588704133 3.653266421948838 0.8179851579091977 0.9579200185653437 1.0818453911671109
Ni 6.486600208590352 1.1927860236207062 13.580435439228573 -0.7418684201502771 -0.4809063343757653 0.3805741757129058
Ni 8.985905721905903 8.620163079977276 5.4576361809758795 -2.3869018746122053 0.7652032382214757 1.1069617266187646
Ni 5.418238505245035 3.795683807122834 1.7722440627863023 0.010767780039465326 0.06718703936945848 0.9061341442423039
Ni 2.0542563376935026 3.258163781194515 9.704099351640968 1.6931254248731484 0.4945221253869871 1.8465585771260458
Ni 3.6335529265283832 4.241310123974255 0.16718865317757844 -1.246795285810356 0.0973306528323743 0.7604814072657742
Ni 0.4777309428568035 2.3903449135986112 3.099623085485643 1.176961809956986 0.20004211036068775 0.5537641988777561
Ni 2.0494834713363037 8.35560337262689 11.697454464274927 0.3782059325910454 -0.6793595029827784 0.9057114548825885
Ni 6.350660546643181 7.909977055775467 10.394920913451516 -0.33747245942742526 1.3548788062838601 0.21867078120546857
Ni 7.722516087891851 8.896851914116398 1.5648616454202195 2.078939251718439 -0.002596557082582625 -0.8681869755745694
Ni 0.8695090669104975 -0.05176040730289894 3.6484532473153015 0.7433979694209262 2.78920032937608 -2.9162143682055004
Ni 9.025288740081717 4.584287750744266 12.027291592959013 -0.5731821983930515 0.19756279558225975 -0.030886405166211325
Ni 4.810069064063897 8.42720552895677 6.816094716925573 2.4677126754126855 -3.581652890231812 0.6419208985203461
Ni 1.8636348345061746 5.739174833636118 12.763459049551708 0.11815453155626102 0.300959709213372 -0.5673262538329068
Ni 4.834977746645901 0.5505625016149683 11.89428435811537 -0.31221497041221713 0.1309660814986325 -0.8856352529580038
Ni 6.7490895362925105 0.21756300543279175 8.501293973058903 -0.9389339643811442 -0.043141568384480536 -0.16235847976698492
Ni 2.0081400051749996 7.99718034724222 5.25555063755938 1.7851202673149065 -2.1448409966175705 0.9183371140663991
Ni 0.23464180533629692 2.1715534218347248 10.566744102310683 -1.3163855353046683 0.10369747559066657 -0.6535798229155131
Ni 7.4240607845306466 8.423596106030212 12.552322465903128 -0.7188968989557682 -0.4195690689188645 -0.028032994877816235
Ni 8.48214387740998 1.7838702522180134 12.696485932320277 0.8043534260583759 0.21011697809818652 0.7308113910051672
Ni 8.204795453294432 4.8961455559875855 2.3813158596990807 -1.0771253599836224 0.17650006137468957 -0.7526634538832522
Ni 0.20538898988177098 6.905458165565122 11.169943716238883 -0.8685340745013429 -0.7889275784216091 0.0644074197417923
Ni 0.8856818466936053 4.619246019494883 3.643129806547224 0.2413872489663778 -0.14189944058168466 2.022596354152336
P 7.024816468382677 3.4650826533827206 11.343376487859967 1.1645824624560266 0.8796967759863816 -1.6267179439821917
Ni 7.788365153871788 6.468983659636622 9.239994438380515 -2.0986891806518564 1.3440398066868273 2.8727064176205364
P 2.65230290493087 6.371996450186207 3.6627324542077506 -1.9725907116581705 -0.5796572645944339 -1.1118825609591496
Ni -0.3161057479109467 -0.026555825328692138 10.92265976968774 1.1049729783235098 0.23350938888019782 -0.17787071646997107
P 3.1598482308193514 1.6766960420205628 3.4652063265033006 -0.07538757290237984 1.2772340619161875 0.20089006018327984
P 5.414134389836158 5.150417491900094 13.148228114008678 0.32435469109854465 1.2927257297938834 0.2206721279062135
P 7.186938188005234 3.449289137836058 3.8268869934937664 0.23746066021846196 -1.046058977596121 0.17198160467904577
Ni 3.458028705023712 2.57469115103799 7.748809909424352 -1.3003421086885605 0.3457802079621722 1.4902957244649946
Ni 3.882392406107266 2.5206963826899456 5.465640122120381 1.027954040465294 1.0487084994038263 -0.883402249862427
Ni 5.27671981141392 2.7660088880893237 12.439118504004512 -1.7221408382688923 0.8738282330207466 -0.7754778806746064
Ni 1.1175103175610044 1.9553544851170708 8.100300827376214 -1.1050619384928904 -0.7279530956207657 -1.2641633447751583
Ni 5.536589101154161 2.6943334439842848 9.590252289515336 -1.1887248640301848 -0.17408579550624212 -0.35386812717662924
Ni 7.737595047630719 4.915053801978487 5.428728734161789 2.6249929693258145 0.7119528635377674 -1.14367090911434
Ni 3.0815952088938343 8.888094024984955 2.6593440279292255 0.4068845314726605 -0.7152683010642454 -0.23309107039585664
Ni 6.837382983414746 2.815597228955962 6.243599932497226 -1.727307470071496 -0.3333101005196195 -1.0555080388241629
Ni 6.993256920205037 1.3893804804834538 10.915218312217581 -0.5647407524939178 -1.0331067883108271 -0.6530051813589658
Ni 0.816754694157011 5.7370861320441 6.029380681806042 0.7925410068044801 -0.39531996656351276 -1.9648884579179062
Ni 1.672518638836527 5.544568307674546 1.7627780305273892 0.32236568569297386 -0.36314723848571007 -1.032332372038648
Ni 1.5080700323526877 2.856894890257792 12.451749652053083 0.7863860429466779 0.5290862365151017 0.4039290483887624
Ni 1.2216156021736915 7.7705379025644765 1.643983127481365 0.17452853947061556 1.4448334783671375 -0.11728498446711415
Ni 2.856107046674838 0.9539686472947521 13.458153870279382 -0.08506623364272446 0.25112324530721913 -0.7349063870101473
Ni 3.943166293657474 5.155437704498453 9.079594981474186 -1.09553574417001 -0.5393464807905292 0.22010648521073062
Ni 5.62816217621474 4.656760199404153 4.765688735719461 -2.610175444697008 -0.776906642701333 -1.1422616874716391
Ni 7.735762853251756 0.554562181944245 3.7990916886677057 -0.05336221767122422 -0.3237173146248618 -0.0829872396265087
Ni 2.1674218235101628 0.8727236519483883 10.156995815788116 0.2580027460358718 0.8787346691834286 -0.3774536278060532
Ni 1.64897494106685 3.369707774985793 5.474865220818461 0.0008176108052889145 0.5892796181755465 0.7678414471752711
Ni 3.146060968117654 6.6148996199772485 7.3642680370703735 -0.03159705807999074 0.9071535866457539 -0.12886549021586197
Ni 4.985519997793409 4.188826915988856 7.241947075942034 -0.011918605814456893 0.5882007832890709 -0.5658838649594254
Ni 6.187137198320718 7.010314649873184 0.6828112079857191 0.16009848008821462 -1.234286611820384 -0.4757654136047742
Ni 6.119107821029816 4.977348410863234 9.636054400697848 0.36744483741979944 -2.402275528854798 2.0382371460133863
Ni 0.21206642229590225 6.275009240735791 8.020509678269558 3.3178926728868734 -1.0247512172572804 -0.440622547155054
Ni 5.613348884660823 8.31128259059977 2.5183319358438934 -0.8106431157218298 1.3384515139657724 1.0665887221183565
P 7.526755279471532 7.0504580287162675 2.5730504209716285 -0.1923516836949655 -0.4224250503104208 0.44059297946869924
Ni 3.129681150369723 0.18871785322758514 7.700970398092434 -3.5093239016500983 0.5225391794252033 -0.1759832696392711
P 4.963900104121644 1.3154789202079744 7.3356555735512945 3.3163757220217147 0.1669116463553061 -0.08615355316963227
Ni 7.14336860567349 4.86706863119344 7.606644450977463 1.1194238636415172 0.2288526068344768 0.4878331434025857
P 5.932178189516099 6.213676533899999 6.203939336873 -0.37599452676202344 0.31555560474967587 1.074349339900382
P 0.21380883915029625 4.122171684482176 0.6354819627883427 1.0187147812552133 -0.3365712877693945 0.8052584543711485
P 0.33585130673303276 8.8311127797992 13.16880915346757 0.4326912081231193 -0.04396792094051783 -0.08011300340250718
Ni 4.776933828720348 6.012849708021847 2.7492314841611583 0.4631878340500797 -0.11444931479053191 -0.8492209759950278
Ni 2.109661895713349 4.459671050059086 7.707848455791062 -0.7839437520537724 0.42612718175235637 -0.696284303762575
Ni 8.967244822156163 8.458975779487991 8.740506187273525 -0.7233353943430962 1.2835697743262282 0.727817855594482
Ni 0.8579195213663658 1.3236413461662555 1.1865950388141895 -1.0751664364850386 -1.9127166610103574 -0.7319935842387264
Ni 7.6571159095347605 7.59650691947866 6.99243701322045 -1.3910719683749657 -0.7783220349916208 0.07067268392521377
Ni 3.501744862905773 6.999156586105299 0.8611075395857618 -0.6483944220598317 -0.8077344267154669 1.043307382992913
Ni 4.2142302910531795 7.095401756832234 4.728790173121522 2.011407170304736 0.28730689431662776 1.3732629652180026
Ni 7.603148624102401 2.394183360822539 8.328410859751507 0.9290658133378129 0.35255275079931536 0.9100535339013682
Ni 1.971853395499634 1.0907053137967733 5.675663647683739 -0.7607475164429672 0.6873502344977388 -0.29112266851829216
Ni 4.143452622193832 0.1974803228449765 4.9914260763739975 -0.2942650708020158 0.9912232607031639 -1.9300281557056114
Ni 6.888217216459079 6.014269658665543 11.580831627665162 0.36533061929027405 -0.42916956812310597 1.6484144551190192
Ni 7.032584972549482 3.7903429605081564 0.10238668628521969 2.245700745649126 0.318820905764509 0.6436970165841623
Ni 3.9575673414761248 4.915960738196072 11.418407595970079 0.38537211132218147 -0.3368597655440908 -0.27302724446916204
Ni 9.368834347109207 6.971114851135267 3.9517024872690634 -0.542994876176394 -1.988519209962969 -1.3847624812171702
Ni 6.59917023123385 0.3802517892156366 5.78543499341337 -0.07092336648343914 1.4228217499827367 0.849075708666415
Ni 1.747711896149175 5.5368730912829 9.979982936350538 -2.086144511217627 -0.9258272517958571 -0.2496577165052862
Ni 8.85350219511013 2.269328474868094 5.1884162872226005 -1.076112859558708 -0.5323664499282702 0.8009965937710012
Ni 7.5633900060789 2.0809239268793114 2.105540374457871 -0.5326135329420698 1.4392009626717084 -0.8194594284618791
Ni 4.425665522385529 0.2504389852717173 9.532209287686973 1.2692443588424915 -0.24388636123914773 0.22868137136393515
Ni 3.2725007022099017 5.050755278656393 5.646152492821779 0.02351376685122402 0.0845108753598867 -0.13785740930182708
Ni 5.547628072287414 6.702359418657055 8.470079793521698 -0.46052802782972946 1.886271065224319 -1.8453725272377444
Ni 4.639033718787685 1.5019505031269509 1.609778806717691 -1.0262897653889937 0.17533226631883353 -0.27027796385879904
Ni 6.754751016923507 7.512335909709092 4.676994954125423 0.23187725259341357 -0.7481948765889372 -0.8165947053195742
Ni 4.563538149402508 7.41620983161679 12.237891343654555 0.23895704225833042 -1.8059546875617545 -2.1502518832204967
Ni 2.245848903901681 3.0899683372056965 1.4457992419948666 -0.281224949788606 -0.18834796185221112 1.4552796134011259
P 3.355499107576933 2.356009590936841 11.378464842411493 0.18412749601296033 -0.5288910897851601 0.0797533060702433
Ni 8.849984381902521 6.69264878844855 13.715319757213463 -0.9166126751761245 -0.8807853810648701 -0.28800983392092333
P 0.9880016578839929 8.863799127519902 7.097569242782548 1.5700937677302442 0.5303586754696221 1.2666570577312897
Ni 2.0149557682647425 7.883941573650401 9.110017653039678 0.09646470528765322 -0.7277669477518885 0.6156069432161656
P 4.553296182824103 8.79407497042846 0.4352423552086476 0.7875078152559469 0.7851442001197767 1.4288440449174167
P -0.021413771804132013 3.918953844939476 7.609808650669932 0.17746371083953952 -0.41029792802958376 -0.6246644254327436
P 3.2269431889769824 6.764049403396744 10.524964573887186 1.7125315973139021 1.5360647031699932 0.8621780503763282
Ni 8.694669264397813 4.308890613642312 9.809392814308415 -0.6513247083327492 0.03854906391779168 -1.0116313920458706
