# total energy = -340888.8219974363 ev
CRYSTAL
PRIMVEC
9.09661988439140 0.00000000000000 0.00000000000000
0.00000000000000 9.09661988439140 0.00000000000000
0.00000000000000 0.00000000000000 13.31382270123588
PRIMCOORD
 96 1
Ni 6.597814664217934 1.866762814375053 11.458514267194444 0.16620562142721698 -0.3625286310651047 -0.34752315879520795
Ni 4.877307301586282 0.5285963845566911 6.17614904438594 -0.768076960224845 -1.6030735650903745 -0.4848357513371586
Ni 2.898683354602161 1.5559313187865453 5.041305710079621 -0.05244921893865161 -0.4854481881101769 -1.129924763172841
Ni 3.2555983256560292 4.615251880898143 4.908047508581959 1.1833312038184394 -1.7709329200709307 0.14861979002465373
Ni 5.077851379776046 4.948424674501441 2.496941151265278 0.9606217337672229 -0.4909814592235802 -0.5517217145264305
Ni 7.315747181816172 6.668531785865726 2.9110538477496823 0.4972207552650727 -1.3224870202167158 -1.6011652923240682
Ni 5.127100478901483 4.729086979984903 11.54356311319985 0.11950976003257482 -0.13149701430143804 0.6980025720052623
Ni 5.388601005787137 7.642843433451277 12.32135684648055 1.3049366700377782 0.7113129159609233 0.5459241340080468
Ni 1.6148956077653192 6.347976003804169 0.48717674601811495 1.541192511314862 0.8068610229715781 -0.003400026820484467
Ni 2.8516356374472367 1.5835577528545084 0.3126499098691086 0.8742735480882814 -0.4742584900419445 0.9203973390295374
Ni 0.616083124645145 -0.003937926673698123 4.692829673133376 0.194276154411188 -0.3688468599736487 1.0632786839085173
Ni 8.640742615952279 2.4730525182373304 1.486262127729675 0.6956718669895567 -0.4325809077975002 0.16065666658452976
Ni 6.947243117248116 0.5342490240462638 5.037724370898668 -0.31907518786716016 -0.10570987803500505 -1.2664842795988511
Ni 0.8755742082362286 7.392340719798472 2.771698182058487 -0.934924329001119 0.05146551486914362 -1.299067355741195
Ni 7.6338832630341065 3.8370633543219053 3.87396288252516 0.06741329644765164 -0.35668194247634055 -0.3923079192100663
Ni 7.751493459301705 3.938654403275152 12.636269085672247 0.1033496053329446 -0.4105275275418865 -0.7220791533384919
Ni 8.287893833910061 8.865656538352802 6.8660184901699965 -1.5188426828647519 0.821021116522044 0.3658533245629635
Ni 6.747490444973372 0.9753668554722427 0.4760743216585664 0.22007897440690485 -1.2505328984759174 -0.7029452607225183
Ni 2.0000919695064767 6.6787745796624085 9.100303843846087 -0.30241546782329204 -0.6366087422788134 0.1390167197172509
Ni -0.2619244293642741 5.07945238484551 1.3442429717865538 -0.3719779494034626 -0.6175468405513558 1.2208986205492522
Ni 6.4423625299448295 2.202218859526279 7.1779879728845835 0.08269721918991564 -1.9391599428035506 -0.14529201120300136
Ni 3.3358123182840496 4.137033485973255 0.3563873671105222 0.2573190897052859 1.027383512673805 1.1310791884922584
Ni 5.773933816823988 5.296743339926654 4.717114009118834 0.30075582073268203 1.2175775265958193 0.4894794207567571
Ni 5.371872322135184 2.709500954433762 9.399771842089287 -0.2874228510692018 -0.2723127349006407 0.17832374484698968
P 0.2778453331857259 5.410896820703364 12.526536562075988 -0.3646238230312366 -0.5961791735088571 -1.3077759392587864
P 3.8574397824787168 6.122225192390063 12.737413490597593 -0.10694349333179003 -0.5699945446936893 -1.1192408010964336
P 2.4409323540312133 8.451914983952683 1.3523780787957664 -0.5592241935510627 0.1858575913301896 -0.1041384197828271
P 6.126700729288791 7.551695303928396 5.806717124607173 0.9325583998721035 0.5687254481732786 0.2972616915364945
P 4.671823758892434 1.2198930899736964 12.365305345299301 -0.07841761797795528 -0.4839163248466828 1.2424210680020604
P 3.982900361558515 6.0806263504431435 8.28769461793835 0.25278726327320333 0.8432812134718252 -0.2961761717817996
P 4.687615490713964 1.042035981347811 3.8014955712446135 0.21668666089590424 -0.012674510143874945 0.06894335993893289
P 0.06722765832593812 5.416609497883042 3.841237793108138 0.31764873983327874 1.144870842959712 -1.3234941213249916
Ni 1.3830955442421604 0.8893865156082388 2.6476803268651494 0.349992703381623 0.5227908904246932 -1.3533245744228628
Ni 1.7363991572700221 6.633573476309196 4.773884193422865 0.4267031088604845 0.20304927261812775 1.15919085912681
Ni 5.8037161497639 5.530626529364059 9.500078448339078 0.6016628223312477 -0.031191852221772086 -1.3911632425371914
Ni 8.573773301626186 2.351266973521529 10.227358652354251 1.3398471087617183 0.6874415086599645 -0.3203931353476353
Ni 2.403881821940725 5.270881650082986 6.963874467069142 -0.6018816232102732 0.16176095539230206 1.093903864993542
Ni 0.5099937972438876 0.0882817846513581 9.335705259113569 0.4706574029542475 0.44747685107272606 -0.33968797902150527
Ni 1.6092557035433448 1.2231951629294653 11.531301779488881 -0.24567430637750592 -0.11815761688005456 -1.9311375867197065
Ni 3.7959921163183314 6.638940481939784 1.4697126474860647 0.489299443535467 1.2745562579737082 0.508490414641621
Ni 5.518500735286813 7.803744442932387 8.525759523457756 -0.09631018198765995 0.6472348545340918 -0.633373008950335
Ni 5.389492474518999 2.8002215428301387 5.1250764810153715 -0.8120963032285884 -0.0026024706198535825 -1.2094417848625623
Ni 0.8967593258855138 7.548747999141429 7.1119246818818915 1.6640310786103534 0.3559124113001677 -0.9755624142374553
Ni 5.009062741507381 4.616907465685884 6.965298997716177 0.15826862596832744 0.16795808534194945 0.4668233739201379
Ni 8.269518662090078 7.283536051412926 9.175566546364395 -0.5137866300435538 0.3549094239569501 -0.44449925650164096
Ni 4.674370812412036 0.2531189014822234 10.450765264868352 -0.3270011275824562 -0.0819809098491814 -0.5782328734430816
Ni 8.169337589192326 7.176741735983922 5.015423098010615 0.38270870555740544 -0.24941449014622852 0.6471322675179565
Ni 6.93984756542156 6.215829409235417 7.3613057823240995 0.9423543029166027 -0.5841515529203617 -1.1506594246170312
Ni 2.1452558268843345 5.0112823167173195 2.650182806948158 -1.4888615631216295 -0.25096589379374845 -0.49914111221623714
Ni 2.3922108588491224 5.043548026838843 11.315018729871925 -0.5997370660634446 1.452182205422725 0.8799754835690651
Ni 0.9760218120915688 2.912810405016236 3.889473528797562 0.24177625687468038 1.3311637220551074 -0.005492647683455056
Ni 3.7941091160377693 3.1183758172875002 2.9993510966545522 -0.5038871115416547 -1.3417011312513216 0.23089431985485395
Ni 1.1263070663677681 3.537247865205674 8.177109741074995 -0.5685318441052337 -0.5843564698423162 -0.6435347799746852
Ni 3.7501815394443567 2.7063080409145477 7.277268480430763 -0.5344176760303442 -0.47022160096840954 -0.7679234653661162
Ni 4.067116866860195 6.797567336492679 6.050853114122945 0.11970027877682611 1.059913109870394 -0.1423714951220967
Ni 1.01559210784252 7.176741735983922 11.367275171474434 -0.5124529988337949 -0.011134933570896953 0.32893382582879477
P 0.14195002163330356 5.817724944121708 7.895975070201098 -0.1854305310951 -1.7507461607104104 0.2094343502088651
P 8.734474185473614 1.7216990198140365 7.9073058197154396 -0.3991881912696673 0.1056653979503148 0.9843782127568724
P 1.7723308051358286 3.227135002574483 10.243535171189635 -0.5793001383653313 -0.2689710721219174 0.5071634683000814
P 3.6168887707917845 6.206196088959496 3.6588514775272185 1.5127694800874785 1.3463620270621006 -0.02754937037317836
P 6.938510362323768 3.8662180205016288 10.4012505444473 0.15135235846446837 0.8577930339347549 1.4891014470465775
P 6.630489722226535 8.25436369364845 10.449020533207428 0.03386502817856103 -1.6537690345627132 0.9025022039166716
P 2.639093117856207 8.60731253850751 5.818552736515578 -1.00729136990962 -0.45353308456913505 -0.0526955306215028
P 6.93635446345182 3.8514087236090893 1.5151666368672954 -0.765001920843947 1.2390164131958856 0.144925371892202
Ni 5.50984984993988 2.97730543878043 0.048493170027298055 -0.920332547229873 0.9354118101604988 0.7473117026530355
Ni 1.5565862754058715 0.9804700591311586 7.188052472934895 -0.771500126973781 1.4150881287839048 -1.4209227331878107
Ni 7.216366611453149 0.6045295079478387 8.988787473124136 -1.3291508053901366 0.44263057872401834 0.2611832006463824
Ni 2.7364360454035475 1.5947011120027648 9.152134563646035 0.4048528457546124 -0.283646414745905 1.4472652277370817
Ni 6.03221414033129 2.1070864105691642 2.5096818768351135 0.9069733523141477 0.1443885255521255 0.2037367856034556
Ni 4.054090507431376 6.828295717882728 10.430647180711388 -0.7754573118493162 0.5136773581591992 0.7898423769263945
Ni 8.447475833532806 7.314018824070727 0.03819033854051012 -0.048042348120207586 -0.5099903962259152 0.46887125758810216
Ni 7.382279858396046 3.8872675985171927 8.322603805748429 1.9551339496343039 0.9477219949864194 0.1315980586556766
Ni 2.9962082145437585 8.484471785905017 12.502664302963524 0.7650757115046759 -0.7123475278730248 -0.27468663444945596
Ni 0.2999219195668716 5.148741337198383 9.973824035351152 -0.10855608923454853 -1.364617887948495 -0.08520738720627906
Ni 8.546647181642431 2.12048573140621 5.764951814519509 0.5648608230115498 1.0867651970662315 -0.05888803258545987
Ni 3.504345391704251 3.0014478674983676 11.602303625333688 0.9342650981505652 -1.8040852384531834 -0.7663347807227576
Ni 1.311132185693706 3.20046371357637 12.72262238694448 -1.7089647058982504 1.3435960342811892 0.8210884794248697
Ni 3.093023538147753 8.585598907252907 8.00999483066803 1.4325487474625136 -1.1921943106360242 0.35881287277641427
Ni 5.59272915214377 7.997047611830712 3.720188164927107 -0.7890859583763442 -0.006063689695576654 -0.013384648837022109
Ni 3.115282966585127 8.459083120286419 3.3953042112061698 0.12153630354430037 -0.7387483864640567 1.9760462743069385
Ni 3.5905813465821863 4.214236497476318 9.303925308484711 -0.5376315549819515 0.2301438148420746 -0.0767901096768613
Ni 7.6125153033285935 6.158074970678453 11.112248708838424 -0.9365978600487999 -0.20371030324089434 1.7975926887503042
Ni 0.7805554670255246 0.16716585147735805 0.19886757117668344 -0.4506850735973787 -0.2577343228658336 0.8678648163484601
Ni 4.5891536789419405 0.1139870126359646 1.6917875148742023 0.7990716088341463 0.08933272222856228 -1.2381725771383516
Ni 6.126000289570901 5.69986004250215 0.40252087398430375 0.3521010079738775 0.24780780778074096 0.12022555515267683
Ni 8.406386402289806 -0.1900784172101158 11.626868137206301 -0.8840463112043291 0.5144911123097462 -1.1209456996026825
Ni 0.2335511628178851 4.696648434088835 5.948509774719445 -1.2177598178099542 -0.13368836552580202 -0.03292914662785297
Ni 8.020671533225014 9.072140709215065 2.345442407919383 0.03783506856990258 -1.8416143457468928 -1.047512422213196
P 8.471054271828544 1.4651106675733274 3.5630185888522132 -0.36463205056135267 1.7920550467615264 1.7642688777871938
P 1.9395539653173774 2.9472320140097072 1.8037032272015483 -0.21578754612040257 0.29351919377492675 -0.5161962679263109
P 4.854474786106998 0.9325490664837994 8.255355225197151 -0.00959509988760283 0.22880067055061884 0.5815120584149857
P 8.644035592288335 1.7887774935766838 12.51789568301074 -0.39884803432142923 -0.12300697455255588 0.3747087180710643
P 6.694739147258483 7.8594066589553915 1.0590202800136963 -1.790946644188696 -0.09461968165911447 0.4889163491644354
P 1.9186499332172198 3.2318015684871813 5.92382518746662 -0.4044604954122002 0.06775679582999944 1.394256022529902
P 6.985785494971514 3.987184869443273 6.107515958314365 0.21431147579550833 0.8560156303193579 -0.8577968905894969
P 2.2939582693304956 8.50790467828535 10.291584426174946 1.4052356614698571 1.0706996589629367 -0.04458318592701354
