# total energy = -340888.09183600574 ev
CRYSTAL
PRIMVEC
9.06287950713201 0.00000000000000 0.00000000000000

0.00000000000000 9.06287950713201 0.00000000000000

0.00000000000000 0.00000000000000 13.26444024859206

PRIMCOORD
 96 1
Ni 6.427937824844203 2.363762072582995 11.23784626238419 0.9714712748872172 -0.5713472020668419 -0.5926233378367988
Ni 4.862887311496918 0.7123640697114373 5.392869996684816 0.5731235772409742 -0.9637535945279854 0.6124110619866872
Ni 2.83059098914071 1.7882420436922057 4.762225910289257 0.47579986638713534 1.3164243589624038 -0.4169905095584109
Ni 3.823891631416814 4.654413897255467 4.689987511374518 -1.5398997606453673 -0.9237945376365445 0.9927314698175741
Ni 3.6280428081434257 2.9923996374851374 2.5413075046725364 -1.2258377097220823 0.8055867842448449 0.35150631181267206
Ni 5.240927198826989 4.676246373667572 2.509539393602652 0.9250330380293359 0.7055299907305591 0.15548026458991288
Ni 5.355907949445659 2.5770660015308184 1.0564752555288484 0.4664467073070096 -0.2628965837930633 -0.6693975066740601
Ni 5.90717571313147 7.962029542249707 12.557498472056302 -0.35652459096286987 0.6587515969244396 -0.21060085971314052
Ni 1.8936886452093677 6.919952483182424 -0.026341258900698862 1.612585361235552 -0.7147047152512916 2.7726699358212246
Ni 1.0522274839662273 0.30371521358342346 0.1935785719901866 -0.06424672579421192 0.4466361003389856 0.3245747775291507
Ni 8.128559950748018 8.88253713739338 7.009752929748212 0.9043279442715005 0.9197157395814805 0.9599087668605985
Ni 8.863477902069736 2.621301915755595 1.1018848126325647 0.8747993386847643 0.15341772563392933 0.1773881204065977
Ni 7.61314493786598 0.8863921983159064 4.820708670890053 -0.4622293267915523 -0.9279568965443502 -0.08788313426622929
Ni 1.1467261271995277 7.451716930455262 2.4155609596454224 -0.2557715427125079 0.42777037378273425 0.07855928576214212
Ni 7.6939314446063305 4.054587225883455 3.685273078814726 0.9396451315155561 0.2329236915800569 -0.3238967776255196
Ni 7.546414957034792 4.0423432758491025 12.499293941852292 1.7527233390414396 -0.34742391421318225 0.4358071280442817
Ni 8.334595450437847 7.413380950702998 9.322381330614837 1.032626506240299 -0.45846548887374583 -1.6037474512289476
Ni 7.277102433555292 0.9651694646990286 0.07940713649961924 -1.2532860357410223 -0.5386417414140207 0.7553931941095894
Ni 2.156231197796447 6.245447685768175 9.29366378474226 -0.06381606601469654 1.2344879291979125 -0.3145055662186067
Ni 0.006145538503548563 5.303687638492338 1.5544859148609462 0.6133346022422211 -1.2113788539842751 -1.3471138176264605
Ni 6.459857285999634 2.1289247422424107 6.685025430336037 1.274502007697005 -0.7557112395706405 1.1539095561232127
Ni 4.004995149948611 4.418869662323706 0.2819235201285016 -0.5594671627998042 0.6964951342218005 0.23169007628327193
Ni 6.030893079466733 6.05896081688819 4.888795364763537 0.6806352843714084 -0.20595436208006465 -1.1806300028371925
Ni 5.577839739557586 3.437187631405144 9.044000490033655 0.7009683395018057 -1.026350186313284 -0.6116029642630951
P 0.10146165345638877 5.727449752264531 12.389332213830974 0.7522160819331883 -0.13508524587332865 0.3326763235903626
P 4.18356106225567 6.268712097121382 12.458758401275944 -0.7240658447512176 0.8740277506260624 1.031492906856488
P 2.756157560841574 8.697962536061318 1.3638364654844553 0.12129282007492659 -1.5384260043133182 -1.6636215018767606
P 6.658488413240858 8.189453437262312 5.79138745996057 -2.19002350669148 -0.6111144546624507 -2.1886230267995272
P 5.135525911706697 1.2946685701016465 12.53409993008836 -1.2755384193813193 -0.6318568294161248 -0.052111633093574763
P 4.079047937314036 6.249317535260898 8.394917975551575 1.7579586192984498 0.40882005793247655 -1.303610752137503
P 4.738608046640463 1.353604474671144 3.2829890828711132 0.5823155281528875 -0.5272077885454662 0.5505665178760647
P 0.28274642957566604 5.774413593180898 3.6659727708997325 0.38531528994231706 0.4090141762211537 -1.24218066985648
Ni 0.874017742818568 9.36340445410151 4.3708318702015125 -0.8077866201096411 -0.9218728951337994 -0.896370637097637
Ni 2.2327762769897386 6.68203377385466 4.778567188088622 -0.7395451713337392 -0.19759956235746615 -0.9802222816069699
Ni 6.398954736605965 6.060981838988604 8.982825147970827 -1.8737189395909215 -0.7556132805401954 0.3205196336231706
Ni 8.774580118289602 2.4698702642944634 9.977896676876622 -0.31703681728089267 0.5886730949397991 1.0665619826454793
Ni 2.6211297210474873 5.357149563919905 6.775263613975592 0.2316193709463366 -0.24448002895908863 1.2939683439517329
Ni 0.46229747687068606 0.3906264142047625 8.897972127255336 1.5332547445250237 -1.3111165735962451 0.840693655250307
Ni 1.636511317211731 1.1158307714133646 11.300904870780947 -0.15661257842214318 0.12018596016399301 -1.481174736000333
Ni 4.30090722439097 6.851899321962625 1.3693276640971968 0.2728158997893043 0.8831785638873951 -0.34000139649686606
Ni 5.8307303256112935 8.103609843831237 7.794609158996863 -0.8231633596760276 0.5757638430772988 0.6492436574340045
Ni 5.435371275797398 3.1168329712909504 4.4810192639192445 0.37402968972616873 -1.5213754765889347 -0.49845642744438673
Ni 1.0317363137014828 7.5129910579032675 6.980092844420733 0.27422949230737936 0.6528216045932499 -0.0009142842841532641
Ni 5.217825919302515 4.91191748891057 6.745949730640202 0.4824240565718724 1.499464021227824 1.8677262123425964
Ni 1.180974748354092 7.374247437565817 11.2797086085009 -0.8747522874969129 1.0885202320841254 -2.3031163074541174
Ni 4.693719605100755 0.762886903357997 10.212610752057719 0.3219062295580521 -1.0686036956658562 -0.23291289294677953
Ni 8.617456978581563 7.3146408799226394 4.951138005689741 -0.3360079590667568 1.7204613936839401 -1.2497839361250347
Ni 7.481443174802172 6.384943525093673 6.736040378332607 0.16565489113006954 -0.5344323313183634 1.5935720533578426
Ni 2.718229410661142 5.507810870634241 2.5445311708658886 -1.2412843832944558 -0.7375646505686008 -1.3656663838176675
Ni 2.426422820575231 5.143881886489578 11.381366926439707 1.7325093259874098 0.9018961949015565 0.2914358288833368
Ni 1.4785815812394003 3.837857528532237 3.6998896906692065 -0.7901627363802908 -0.7077084864391168 0.5454734196238735
Ni 1.9793056666560913 1.2600302451339975 2.4416647711065207 -1.1122044630749424 1.6631918705385096 -0.8126241507076004
Ni 1.136095369693758 3.3153553439796855 8.191322202989243 -0.07228733671050132 1.0395386599791 -0.6967424743459162
Ni 4.248913485422001 2.939635553769373 6.703317039776698 -2.652022719750097 -0.25806445251174265 -0.6353447879647252
Ni 4.222866770100959 7.271755334724599 6.0528823436920085 0.4838515330470184 0.23864105367980837 -0.18834024854272724
Ni 8.523248347488233 7.697456904682839 13.178525937148047 -0.9517167179681093 -0.6960104812758982 0.8817693422446943
P 0.3797536778197054 5.895729296482036 8.084079338780143 -0.9251927035356518 -1.4833236640225356 -0.18591852647511206
P 8.572160707470022 1.8609625877896452 7.83431000838286 -1.1514677794509396 1.1636126423435895 -1.7882642122605266
P 1.9174787035662695 3.2144401821495525 10.37231499981149 1.067713065530787 -0.2306608636878092 -2.1087059414579103
P 4.232301227529352 6.395148327268862 3.7142153840957794 0.8372357786086936 2.063550427967195 -0.6172858735804853
P 7.14987773290227 4.257804170087951 10.211735277910186 0.5915732993057295 0.05648893622566401 -0.3522488464056514
P 6.430593248500801 8.100247515583462 10.164474174550348 0.11746599012966867 0.5976639855844998 0.03449983354908252
P 2.4116140756780204 8.62412725780087 5.694265113148481 2.3696088918597122 -0.8430541850626836 -0.40618030631678437
P 7.056312566244498 3.8851295073473224 1.4756687718085781 -0.1455630054762009 0.9876106036512411 0.14399720365097782
Ni 2.9959160346822715 2.276631550280804 -0.2584162236080706 0.7174092586666484 -1.1385209894822845 1.1100583632662173
Ni 1.4302401826581765 1.1106739930495257 6.514392256345089 -1.4994146560471273 1.8027868313567341 2.9078431134226697
Ni 6.935839710725148 1.0175800961192047 9.076020549150137 -0.7350503687871792 -0.3274199602874297 -0.24296102121140095
Ni 2.722316769258842 1.6159929583088641 8.933215852565173 -0.17232253295823224 0.38775706661459025 0.27346484622721295
Ni 6.979830927206823 1.834734614881122 2.8183352573631724 -1.2123185921897253 0.7183898774123628 -1.2926303418665994
Ni 4.436071007375667 7.294104395261025 10.610027075489526 -0.28914163353252137 -0.8724537212707232 -2.1659086159211474
Ni 7.377618828692967 6.301211582556753 11.261827547495885 0.5853440305665661 0.4452849856277299 0.24825209440701118
Ni 7.840315072256112 4.31379463886088 7.973772315054673 0.21441252014974688 -0.8819220657724747 -0.4074383470936015
Ni 3.4346500251804075 8.791672708789076 12.138607655947665 -0.4189550894839494 0.2524774453422684 1.4694345647452693
Ni 0.22117594597212986 4.913920385252236 10.107450537528777 0.03867581930364307 0.27048390922201804 0.38272927438269566
Ni 8.75407082226611 2.7821952132832415 5.6513415038570685 0.8515663362987528 0.5568670061727957 0.7036636269457817
Ni 4.024326271653476 2.9040093749499523 10.91793387078345 -0.4374755168856401 0.429807458817421 0.45678912961258755
Ni 1.0685678554776536 3.5285142668575236 12.221854734438073 -1.9420328934759714 0.026890910853573046 2.2233239206158224
Ni 3.2965226806403933 8.606291511192724 7.863013959936376 0.5683508384426792 -0.43029571130774924 -0.5612116562947367
Ni 5.866537762018195 8.181559669327507 3.5316038024361402 -0.386330875691025 0.5220406425222299 0.8002538020677057
Ni 3.227354785257585 8.656581428839372 3.5319626924593526 1.2613695840801051 -0.7751156122391812 0.38059603008977677
Ni 3.4857737277294674 4.200988979291983 8.930921131507661 -1.0756328345984958 0.07590667863064347 -0.33048651502789533
Ni 5.495421914529904 4.935091271470036 11.462624702907508 -1.4083050444238003 -1.1978967603374402 -0.6471489796885048
Ni 8.457614975061308 0.13610360357578713 2.2234514804017707 0.4434692725752298 -0.8104142875404753 -0.2892699315802696
Ni 5.032127520928072 0.20882777282497617 1.4245477881233306 -0.7528760841146904 0.40615228129232633 -0.7332413406028985
Ni 6.433484307021126 5.8251838434343695 0.3078089161966853 -0.08502483888182777 0.23211456541520029 1.2727582855330208
Ni 8.338546865844936 -0.07055632850291443 10.998647874488809 -0.5738892517624052 0.9349353847447124 1.1435462106110177
Ni 0.43138762047752466 5.275547398035889 5.690988882254759 -0.2214851107258121 -1.8969583697348364 1.4852864441758613
Ni 7.265329753248391 6.3092322308027935 2.7078560389295956 0.23028625395720984 -0.21408084784194098 0.5004451757396414
P 9.143539000486868 2.0720370484114503 3.3213631267167485 -0.6687786421431385 -0.336110288972576 0.7496742893479412
P 1.99889054898343 3.663243031632266 1.1496226234474765 -0.07070199450125243 0.26948632119543914 0.5587752789391022
P 4.710331862993403 1.4260259437492393 8.012836044020675 1.2846087571137037 -1.3142422637094204 0.8028148779266625
P 8.718299637376704 1.8382691378370044 12.12720020967954 0.08577148723986519 -0.41176551371404563 0.1274485552636773
P 6.699325747700362 7.911250229116861 1.486160867259925 0.9300284343613983 0.13024025907620151 -1.4050518275938253
P 1.926532520060953 3.3909488208387013 6.13819938383145 0.86510139467071 -0.2893038701419986 -1.5222442523471331
P 6.906321912603841 4.00168719897708 5.740146846267585 0.7426253529209598 1.5767138441499233 0.6199001712748808
P 2.3219006327542226 8.52290395807202 9.730647733233265 -0.18106428370660427 0.5908497908761438 1.8837223306605366
