# total energy = -340892.2026562288 ev
CRYSTAL
PRIMVEC
9.08207816896132 0.00000000000000 0.00000000000000

0.00000000000000 9.08207816896132 0.00000000000000

0.00000000000000 0.00000000000000 13.29253943080649

PRIMCOORD
 96 1
Ni 6.377398789343072 1.894884737891612 11.317905682720076 0.0609441437835402 0.685151169963891 0.5176988206137664
Ni 4.711273430180437 0.22743521176777862 6.074756706709051 -0.6788347408275599 -0.8920252156447476 0.03087020721629522
Ni 2.8980638190519548 1.6412586298089764 4.649384518380741 -0.4046103907265031 -0.4185935923794726 1.617626523203885
Ni 3.640196734466425 4.218861329341636 4.860057847133505 -1.0509846970325125 0.21002827503912216 -0.5121670921622599
Ni 4.683118988618589 4.697368768880054 2.275868824690957 0.16336172422051864 0.5531098531232087 0.5690154686098717
Ni 7.494167419088587 6.290928325436505 2.6347407763707427 -0.764765893573741 -1.6278003784130932 -0.18133733486233286
Ni 5.1352702380239466 4.364356217670929 11.854339523460308 -0.19960707970579816 0.3516428373905363 -1.0990121327543847
Ni 5.63918024951349 7.8507752087421245 12.312294220658575 0.37495940062928973 -0.13026931254192403 1.263207151509476
Ni 1.8302929997019788 6.498135933253784 0.30263935801064423 0.5986309774834594 1.4905325230661493 -0.28157590537012156
Ni 2.7686987011142237 1.5001685492724242 0.36774605001852195 0.11150283056769829 0.15694167962678776 0.34878762732992835
Ni 0.26983216792875264 9.229025943973824 5.174479384833886 -0.18011168998534788 0.6923957673414463 -1.1261210731560347
Ni 8.715988444171487 2.5403843442034817 1.5290940592499502 -0.21551938006068044 -0.3420469661719851 -0.3593782583615811
Ni 6.909345175381461 0.5446331406892754 4.981990192498908 -0.21346455441418075 0.260796506730925 -0.17875183352334376
Ni 0.5980303096308012 7.423881218041121 2.3033175887981736 1.1680331400087882 -1.009125080684249 0.3354358886133707
Ni 7.80036059419057 3.8212025474753393 3.846727727478428 0.2254045003848763 0.673128434471402 -0.6739283046648781
Ni 7.433526384795535 3.704388861227439 12.752755927569014 1.0263334741427357 -0.11850317314493139 0.20750293751410717
Ni 8.058663972403641 8.651832645722166 7.352116454707763 -1.2853345795361346 0.8062421584406567 -0.7630864489887891
Ni 6.915121376940602 0.6062523147746531 0.5916319857339231 -0.34202922556017223 0.11393457993764247 -0.26675375275562446
Ni 1.9161731285435386 6.594169825213457 9.20338178874994 -0.17499416625312442 0.46945695488824307 -0.6464311276858739
Ni 0.19817184849151057 4.8103407361664505 1.2848461048307867 -1.5192139501612416 0.42138375353010005 -0.2735995720328643
Ni 6.538369538453458 1.5907986048678058 7.105021268859683 0.08697862017408892 0.7658760959187842 0.6862857977889665
Ni 3.001853805558019 4.315567295067623 0.011678644001413075 2.0563012026039487 -0.3730179606322027 1.147893946056752
Ni 5.803166248494371 5.621978793926993 4.9022749781516 0.9387568153733318 -0.011294341966896678 -0.8705554758067459
Ni 5.2420118998550445 3.054929468941064 8.8373050246537 0.6465553119685639 -0.7521919135634724 1.5498620140644017
P 0.2220985827801199 5.606884380418673 12.442135239479482 -0.8307329444931691 -0.8382485361439241 -1.036075126910532
P 3.9796757251568518 6.212886029842647 12.667550597117145 0.3392439495055512 -0.7201927349490564 -0.0003026188420833498
P 2.3393616314518857 8.476548541804855 1.4799908967505024 0.712367839587999 -0.03835288874658556 -0.6811955277502526
P 6.363675769601151 7.642178043002599 5.9450746242518 -1.08876962909077 1.313785635787976 -0.7305614797778902
P 4.935419113324442 1.01492220791501 12.778728854013714 -0.6549065121467367 -0.48518182182266767 -0.1229162146109625
P 3.9418579526847437 6.2469619862104055 8.13018170321749 -0.20995679837123837 -0.25934923276143723 0.14062751584779654
P 4.910025623451239 1.1160874739012765 4.04244741493068 0.7330762757799439 -1.0929037058638016 -0.5356541195406065
P 0.35028030596446064 5.58057360067523 3.503381588008313 -0.3937675344747283 -0.8738297756826435 -0.05997869454647735
Ni 1.386533590297636 1.0534937928547419 2.5907026887290505 0.6022544331686596 -0.1125721523724771 0.11946707972009749
Ni 1.6672878651368008 6.908473295900836 4.555405900655085 0.5947961771184015 -0.11599223379761958 0.6490809066038951
Ni 6.156422751394257 5.718521282250363 9.140561055755327 -0.543525037648251 -1.170049656218185 0.42957965907733114
Ni 8.716587861314418 2.590372101092647 10.233407492251192 -0.19962893408266907 -1.0098935834191574 0.5883771609659351
Ni 2.3614492449610522 5.287358714925467 6.679315213951031 0.1290794059988809 0.36862625932241033 1.4860125237086084
Ni 0.6577349816899734 9.090070151749218 9.430192153556606 0.44019445847869987 0.6918082702690924 -0.4374487774127627
Ni 1.453005318617367 1.2111586656010915 11.634826608264916 -0.02918973419007876 -0.528241114905987 -0.8469357795052769
Ni 4.230141270122222 7.082168036181594 1.6327223847689822 -0.5144761999114107 -1.18680322152744 -0.5603937883791316
Ni 5.61813707496549 7.796355397826449 8.130195326334375 -0.8790069490082087 1.2718049204808162 -0.6194882805484428
Ni 5.591117893144038 3.0572998912790132 4.969482354783108 0.1932934787829445 -1.2725507975079051 -0.4332373104345765
Ni 0.8624177718446093 7.608056676245224 6.9089301244203725 0.8487383799316545 -1.1487627218149508 0.1602856563983562
Ni 5.054521483208982 4.560383787564778 7.1235114713034795 0.14768930779058434 0.8297422984451259 -0.7363220364107512
Ni 8.321299501786068 7.3476462559539755 9.439470404362922 -0.7129162558923012 -1.3903644007849796 -0.25239439871015884
Ni 4.771850889928027 0.1910442337374014 10.432928029314297 -0.8005358520844987 0.45023950141952784 -0.4422649678544835
Ni 8.181798784886073 7.162853216451096 4.824673163337016 -0.06307353142171719 -0.4628456202193126 0.295906977280813
Ni 7.377026778035452 6.182006964903846 6.997046260846619 0.8218875782873976 -1.3730652473848999 1.053157279203799
Ni 2.2115404667610954 5.276269497781267 2.1848545971994247 1.418333118083764 -0.08779623097937783 2.695383346123919
Ni 2.2200685379309584 5.483041165858234 11.320511330876236 -0.7392417811607075 -0.822732442786196 0.508978410021633
Ni 1.2623906671657321 3.1346791951844803 3.86371575423373 -0.6737272443976655 1.417165580138224 0.23107198308329882
Ni 3.9683957843762663 2.5078432590047393 2.6744321815184025 0.18197342578443496 0.5283465301355997 0.08998321132836762
Ni 1.0275462962282258 3.5214122373091956 8.210269282759649 0.26017687086905517 -0.07590642152032734 -0.45404524831886317
Ni 3.88518578644412 2.4392554065289076 6.863416199116164 -0.01440537679205261 0.13662765065978405 0.18655024652184002
Ni 4.009419530355256 6.793067331731028 5.82379346387349 -0.09242498800064082 1.5830385008163703 1.0872848170151275
Ni 0.82906293246395 7.626093683000653 11.561225448775492 -0.44559377511740034 -0.19663642711324844 -0.0714913231717672
P 0.3621896347451224 5.725069460432973 7.814404211283178 -0.17155814398838196 -0.32688388527830153 1.144074829420978
P 8.664620211437999 1.542745330576277 8.197202897251573 -1.0372678616670523 1.1525353014835054 -0.36885637305534535
P 1.8334808090530137 3.1820876419434634 10.27393626498337 -0.3554884363888716 0.4963404095426484 1.5002451223682227
P 3.774911196300907 6.173097446461209 3.7997125346935183 0.09196321787287388 -0.05901915884668545 -1.3955603431636223
P 6.77268714887142 3.878519541248508 10.362318506292766 0.3736445384726081 0.5302218927814417 -0.07520888123267047
P 6.267560138940171 7.62239727728592 10.252827699474324 0.9072772567078117 0.013958261952304991 -0.07878734261254819
P 2.2553160823508076 8.832311698211536 5.74270958038316 1.841987927036228 -0.4903438256395813 -0.28597429154813325
P 6.787899629392741 4.1191946062126945 1.8123050361673347 0.43628561034259705 -0.8250960579223662 -0.2913800359447369
Ni 5.218198691540475 2.907291210221902 0.5755894032904235 0.1943633148083556 -0.2630436508938889 0.002870122458943444
Ni 1.32362203652379 1.4349773939398611 6.9694113141419765 0.9351796395450346 -1.5540994491845173 0.45986648298633054
Ni 7.1558236881385575 0.5439247386112676 9.420116496308633 -1.0565184823665483 0.34105426324141264 -0.7433493755711779
Ni 2.6791766590254698 1.463422461995251 9.230060392649273 0.8498113012808591 0.6702313154292651 0.560084484668829
Ni 6.5229481701399035 1.8971370932165599 2.7190288169523695 -0.02035182418347463 0.3072522270903031 -0.10472540263454867
Ni 4.0045697007442795 6.84307325277604 10.460045297577318 1.0181882193277818 0.14188967038967176 -0.37965166389863647
Ni 8.188928216055766 7.106535251249477 0.2875812728140171 -0.3015163530477904 0.07913495575995402 -0.5408323213074363
Ni 7.634076829495125 3.7812050763016685 8.155716873506295 -0.39317926607142606 -0.29622682251407695 -0.303984869192941
Ni 3.2455441203926996 8.327175606202365 12.469132624313916 -0.13155640678446376 0.5888116774001924 1.1787731521341118
Ni 9.042779772003236 4.9451460187801635 9.891084902963021 0.2716609602492547 0.7157416411562383 0.7965550130598797
Ni 8.48531274700072 2.4850654075734115 5.873029224710617 0.3143047630617103 0.023575216216778754 -0.2094911715887295
Ni 3.7031627807078102 2.4379748335417397 11.509305025704274 -0.1675870751557759 0.22111230076742566 -0.5829572755019444
Ni 1.0743462437663558 3.4868367666556614 12.568680372222067 -1.517661260962141 -0.7649456136847149 -0.8073557032198097
Ni 2.8892542034664728 8.636883545460616 7.919056995191944 1.1443309112958422 -0.9284068395975752 -0.5478228936926566
Ni 5.700566014196243 7.842601338611265 3.633289814205849 -0.6074352060386505 0.020799710354170633 0.24139084851080364
Ni 3.1531430596022987 8.522313132459741 3.566268620171766 0.2857125532463144 -0.6435913442442335 1.156505341874847
Ni 3.397205739631829 4.451280785473655 9.47061466597708 0.4643831399097615 0.1969483019267124 -0.5947686663145756
Ni 7.259967875683626 5.96509061578669 11.344703261840204 0.4477735563775385 -0.3812686306767692 0.9034149455389281
Ni 0.37482916259080756 -0.02259348524948698 0.6311444739464961 0.5131736790499033 0.2327789384720765 -0.7989384256903918
Ni 4.4065606337799315 0.30953628798550475 1.8215160795970207 1.5307836572767122 1.0039743897212452 -1.091418636677843
Ni 6.102102843335736 5.639134839123875 0.35802277739396887 -0.40832640612550963 0.7843085915923589 0.5961750597437991
Ni 7.832429411337307 8.89727580159602 11.493606654014062 0.48120303968057776 -0.026962130411140664 1.119913401683426
Ni 0.21865465883165128 5.049117646844691 5.655723254450557 -0.6091030806593768 -1.0774277217153896 -0.019562752623275986
Ni 8.016940906424567 8.682330263388193 3.0547587258761086 -0.9472985342957557 1.3063204377591824 -1.266352382006677
P 8.627846877927057 1.6197976796765094 3.5608184652100676 -0.9467290349455308 0.3752149682835215 1.451538658301455
P 2.1605900096120734 3.1190761853124624 1.763454355434151 -1.12264468457166 0.13637953920471999 -0.7558148550280402
P 4.8124477782446275 0.9893289123274976 8.286608688742911 -0.3439740079913689 -0.628142356679015 0.2379820799395708
P 8.695372127285875 1.5526992879800792 12.752808603620966 -0.9854195095371932 1.4956451617023663 -0.8410412683977128
P 6.363403307263456 7.713790227426848 1.3982422051561954 -0.08873005564755687 0.4045651393108645 0.39130801719064223
P 1.9970581145273514 3.236316729222752 6.153422032848439 -0.4178811396934803 1.010046306946938 -1.6204267116568416
P 7.041126126046757 4.1602728446592225 6.022225059793604 0.6629208978107809 0.14083731786575746 0.4512273192540939
P 2.492276577444414 8.50809968050997 10.470559619188979 -0.10023959894905317 0.5711129745688487 -1.2301923871463523
