# total energy = -381164.452782886 ev
CRYSTAL
PRIMVEC
9.37048793748804 0.00000000000000 0.00000000000000
0.00000000000000 9.37048793748804 0.00000000000000
0.00000000000000 0.00000000000000 13.71465627995408
PRIMCOORD
 96 1
Ni 4.812560804311309 6.939024379993664 7.987498586333149 -0.0578117688021456 -0.7495115385178318 1.5851203230460635
Ni 1.492062799234579 4.850173943017127 8.963542668870815 1.7104052949995188 -1.9968765807887283 0.5082294476707505
Ni 4.9401681094672245 8.360058880426521 12.884179198187061 0.8493467029396147 0.8568653799141629 -0.6857486943385739
Ni 2.797034435688792 8.899218017161804 7.754389894187958 0.8424597460117943 -0.5231750132369893 0.5500116738138592
Ni 2.3261580447804406 6.338404212672564 7.444630610459908 -0.4465525394862438 0.324451364577409 -1.563417127041017
Ni 1.7300357116842515 8.987488013825685 9.896935101321965 0.03707556469605873 -0.7522086257340207 1.145944021419233
Ni 6.874658498137593 2.1725007830719143 4.52634393455548 -0.5152521588454869 1.3898473519392451 -0.45918745464143496
Ni 7.666755216608347 8.496296405001486 9.451139758510275 0.39691250786161325 -0.04993416582628174 -1.3035027658047293
Ni 6.229359844182374 6.201267121252617 6.14161553189353 -0.7001360734084974 0.1208315641677919 -0.2694649810392004
Ni 6.123154733546661 4.918897101778582 9.453964960632796 0.09811586773783101 -0.3046489851395011 -0.9459481909154485
Ni 8.182591208789871 5.089580540125991 5.142557530905068 0.1430831764771407 -0.7145977573597823 -1.3371057985711552
Ni 2.805542838764249 7.787606399938927 12.055772775886915 1.0257457199600655 0.012613317888636342 -2.188192109909696
Ni 0.6132159772484452 2.282454088895054 12.269323385544117 -2.329928285440639 -2.538422640333738 -0.8693735396835028
Ni 5.860012690413423 8.46289998588152 1.9684780855811492 -1.2358418721226458 0.4937561937552399 1.4216207876961002
Ni 8.710177792883979 4.36373317159299 9.224299922816053 -0.7734860470555581 -0.4497836448290318 0.47863219362960796
Ni 5.810517772963464 2.339257986960494 6.643626306126235 -0.12884980648657807 1.0661585765594734 -0.4556421604923379
Ni 4.98309431485122 2.488230004684738 9.224793747531995 0.8663650918744822 0.834785260185672 -1.5437810979776445
Ni 7.298326370660313 2.475654809830924 8.876180672491088 -1.609640419674615 -0.8799024642392845 1.1657818820807664
Ni 5.332482329247129 7.292376110800276 4.145186217750949 -0.08936408968712997 -1.240088820324458 -0.09390208676679956
Ni 7.194360806649087 8.433635951955692 11.656388522934728 0.08325746256875984 -0.7326001074744738 1.7168433373153786
Ni 4.310396354075919 8.703515375938329 9.928820997781397 -0.604906526079526 0.038315864861063045 -0.2822220235945527
Ni 9.180304544754845 6.8086152989351465 12.7564959920786 0.8345127232505758 2.016901360650088 0.26553067898180077
Ni 2.3112589689104226 3.3971860786114645 12.459271610106097 3.234392755290004 1.9363939500226395 -0.7954134432562688
Ni 1.146966468328273 9.273747050777374 12.550913108341067 -0.8878533436552452 -0.09906486191466166 0.40307878457332513
P 0.8093271717473511 9.249589932794413 4.355665181452056 0.6385121299491132 0.811985488682337 -0.050226500255719946
Ni 7.259598143886236 5.8598065396781145 13.339300050625068 -1.620353435216745 -0.2613297535265758 0.48822086575930757
P 4.0810817725092 1.2935115296686586 7.2927818529293145 -1.6971959953980964 0.29296949191904387 -0.08099514889714439
Ni 0.5532664063719579 7.768987240345389 1.2129215849438135 0.25883295524665095 0.8537736283627168 -1.1809588469315209
P 0.3336071756080484 5.047713199882443 7.175138187630373 -0.3507792038386604 0.04649711512027476 -1.2849293736779162
P 7.2079292732275695 8.001478417333452 0.4801456776068559 0.532489862880012 -0.26815757508168653 -1.4501034685168253
P 7.388245573206662 7.922091643263769 4.430039681507352 -0.3908593596889979 -1.0928455989323567 0.7237873942788503
Ni 8.835554921903375 2.7773751519307432 0.6376345318457283 3.385901179716362 1.5356199023230908 1.6771421620710147
Ni 7.892012376884676 6.176772665702789 7.922778500031865 -0.11512602914258238 1.2101902329928125 0.5116482435443124
Ni 5.695316993877928 0.27070590102146325 4.699546160068838 1.2145171425029406 -1.360423133140857 0.5929393264153208
Ni 3.4314071006726627 9.06039041022112 3.8543122154747436 0.02761621905537179 0.7466092772693722 -0.21633879063818223
Ni 8.279903726343418 0.40241185761482945 5.213284099994203 0.24223288479612476 0.3651133610731454 0.34929927685902423
Ni 4.322887214538016 2.1322451667589597 4.694815000693509 -1.1410982632911575 1.1368515721996613 0.7357664210175974
Ni 2.75950563137469 6.7402201072525925 9.621640472342296 1.4731639498807145 0.7287609362340417 0.7965532132876669
Ni 5.935923013446766 0.5397916446731617 8.07852256941099 -0.37299353515217054 -2.1768959681705864 -0.24404422697325068
Ni 8.196562606351002 0.7655341962262634 0.4335406186464018 0.18647928407458852 -3.2599765172963795 -0.3756104039497273
Ni 5.73630350825243 4.2432099553413085 4.854631484143773 -0.3287340511131629 0.30067405965215316 -0.01639618196983628
Ni 8.172892753742408 8.63423935838673 2.5847188563458467 0.4560671638448984 0.5931121045477592 0.13972634418976582
Ni 0.1854616349226321 4.298683244115213 2.7602665149977375 -0.5673751047929713 0.10117676605134188 -0.2418652170440609
Ni 7.175704165103675 4.254904324326078 7.017652144537891 -1.8245180523862385 -0.45892597344993225 0.4537135760110573
Ni 3.811577168045307 4.15238181546201 10.154756581386652 -1.7366876257348156 0.5411619367327132 -0.40162379729435344
Ni 8.744539372264706 2.7614921748240255 7.338808752782107 3.0155566521512647 -0.42063993338554007 -2.086089489609975
Ni 2.5206237815920667 3.7333335935077905 3.589605300850756 0.44981424095665107 -0.1857812295662994 0.7315019893142886
Ni 2.163748747309275 7.96694816916929 5.493570387914726 0.2541170378282204 -1.1924269954721205 0.9188762743993208
Ni 7.846068874374803 1.3736760542397308 11.886314060316996 -0.7642192770416516 1.171981326023259 -0.7698399656625388
Ni 6.0304150141217745 0.779757659913748 10.300049745534437 0.5808155465685932 -0.2907611714138154 2.3721298585093535
Ni 2.4622362710599393 0.9116435298761105 5.749225411161081 -0.24343641818592268 0.8882292389374251 -0.25813001564235544
Ni 7.214750988468684 8.224514771961232 6.692916946938481 0.07702382295422218 0.4129626193459404 0.45194517125672484
Ni 9.018017063627271 2.6659506794965386 4.910533004217841 1.347366299956899 1.028355646779087 -0.04799683959425282
Ni 7.90210439242682 5.856433164009431 10.89043827704266 -0.3119354914985854 0.40450908926194856 0.1522087929274927
Ni 0.46332846284967266 7.412140317526502 8.678333126571607 0.16629843825133941 -2.131411353475226 1.2138162597811741
Ni 4.125563478895978 4.497225143193164 7.776319647180791 0.4524725045151046 0.16986301567414613 -0.1509738920791271
P 0.39676426451617547 5.593778386250558 0.8450193604196147 0.4482378976084668 -0.3988914859648549 1.477743598831597
Ni 5.793725858523795 1.040077312070854 0.6100993529501005 -0.549321332615054 0.38093233038327295 -1.5470366288004647
P 1.1599258531887984 0.775912011651449 0.951788574431036 0.03151041190345542 -0.2134367865000389 -0.2829128790139902
Ni 0.4020679607063831 8.943493572813273 7.173917213048069 0.20009841751991989 1.4208052337733401 -1.5960806787123092
P 7.305232420293146 3.427668275973206 10.737629981544087 0.7918833186158233 0.020414559100610005 1.1291444333633909
P 7.23873943766821 4.207180429102177 3.176163441848128 -0.07599023948338526 -0.6359222577347499 0.3843488122639897
P 3.699103200958623 7.312016653582387 2.749980530354644 -0.41827708958031834 -1.5653130585121493 -1.4361765740230878
Ni 1.4527817136703551 1.6891054202375602 7.787469590814586 1.445904085723497 0.37589348240778486 -0.6031409495386709
Ni 2.3689905452847504 3.4191505024097806 6.311773285865902 -0.11056977723046764 0.6335018212187155 -0.42248932788945304
Ni 7.2973612103995515 6.209588114568703 2.2253812578249166 0.46591037518756534 0.28264934093995836 0.010628683358439759
Ni 7.30174659876884 2.0364506682563217 2.2512747272284517 -1.056708486890167 0.9584586646776333 0.14261009349546408
Ni 2.2989461477197284 5.621889850156253 2.124180924813213 0.2585958995351805 0.5948080041929434 1.9501087285055705
Ni 3.1915882020931834 1.326551870245818 13.691094406331304 -0.25807807935849747 0.38124394808642087 -0.17162267867773023
Ni 1.5142333737682032 5.562087395940872 4.869114510347988 0.48542376263014464 -1.3849756256692405 0.22600742407619784
Ni -0.061696229833827734 4.472740058131305 12.854843011503874 -0.3713228323179669 -0.3094736602216541 -1.0345167812844764
Ni 3.428567842818188 8.587958518309987 0.9891777584744067 -0.45842229434063636 -0.00018691919982548455 0.7430089615126236
Ni 4.991087341088406 1.207715341828479 2.763037368290042 0.1375794730500921 1.1750489092049892 -1.3726893521027197
Ni 4.57528130797131 4.5576273086385335 0.06296030866078714 -0.9359797668488269 -0.6523091837332056 -0.5998725632000443
Ni 2.1987662608478016 3.547732338314427 1.0474509490533177 -0.7338954292471297 0.21700882012201334 -0.1196974505633487
Ni 4.667917952028541 8.263364815078901 6.235862025783762 -0.7475058209417126 0.6455561812800883 -0.20703756784191443
Ni 9.43907994049473 1.450092383623377 2.9021722477448866 1.1296537688996418 -0.2873349193410858 -0.40539740540417274
Ni 9.348907734773231 6.912065486108103 5.887290180889915 -0.6121254124254685 0.9475129642994069 0.6723121092176938
Ni 5.072769884710385 5.0263578578020836 2.3718541664079438 -0.00423794934074754 -0.3059296516241376 1.501947706881626
Ni 5.139244126359384 6.649007777366582 0.7262859073699296 -0.35420674146297065 0.481689492398693 -0.2410470920181397
Ni 4.310199573828579 1.946653282053565 11.722300535305614 0.37207333733074627 -0.15201081798407368 -0.2949944927688726
Ni 9.558928481612675 1.3235626845838462 9.559746525212331 -2.16299092805372 -0.12327591194322642 1.2172324845515745
Ni 2.65432190392755 1.6718356109114951 2.3952644564998096 -0.43899966683965036 -1.352261423265671 0.757404053892031
Ni 3.0857485404882437 1.4845570383717583 9.662469562518925 0.7542580520638816 -1.4692677001501018 -0.6127252507929964
Ni 2.4180169383362817 6.551892040060376 0.11026440602369614 0.06164554072593899 -1.0903583137341286 -0.757451876410831
Ni 5.128767920810529 6.7686407972612495 10.779541363081087 0.048785396933819204 -0.9755161343805524 0.6878533993864024
Ni 3.748438820113117 5.836474024636388 5.755451163367396 1.1230270076117432 -0.17912001549603992 -0.9995891161693561
Ni 1.0409768789158362 7.365353471099459 3.417061820641587 0.02970189793980691 -0.23228580088574188 0.10305367135908058
P 8.057129745378758 0.6976506331867923 7.746106382823747 0.44950056637097424 -0.16099193843676143 -0.16169179271726347
Ni 1.2089990986801722 5.786632399131592 11.152552377645746 0.2926892416744637 -0.24728921627310957 0.055060945529885816
P 4.2755287683448895 3.101434737347621 1.6667418136517835 -0.16593359871275296 -0.9606543867773714 0.3366803025434331
Ni 6.952283620469183 3.3343382158062997 13.521595397663122 -1.452002485311751 -0.09555299210666124 -0.3847267644286987
P 9.424368274384083 7.755081436200038 10.803665684356156 -0.5043779351351443 0.6615893234835509 0.13477054284638723
P 3.3485438755666443 5.224384380041765 11.884860697633073 0.47722142932501044 2.0912031566874565 1.2014507962372856
P 1.6498430756492737 2.7468554726171273 10.212742097984925 -1.2637015746473914 2.4722792117374452 0.9468799587010984
Ni 5.587968683710049 4.040357631797817 11.737372965203049 -0.3650675954368745 0.7508374564181068 -0.32839466549587315
