# total energy = -340857.9006460121 ev
CRYSTAL
PRIMVEC
9.35403536931325 0.00000000000000 0.00000000000000

0.00000000000000 9.35403536931325 0.00000000000000

0.00000000000000 0.00000000000000 13.69057628337766

PRIMCOORD
 96 1
Ni 5.909411813397313 0.18574682096296918 13.163954484685439 1.6016481454977578 -0.6124856239783645 -0.029057836597904795
Ni 3.285763924743385 4.862975882151159 0.21718292746282566 -0.07670706304475176 0.5804000562977294 0.5158265432917181
Ni 0.5192565316650651 7.54495553506048 9.257786973554984 1.921609592624613 1.3570776137073919 0.28834279178030986
Ni 4.7214025575832625 3.0322602135366097 4.8018603569845375 1.0993548608057842 1.7405085421428024 0.39836261004457846
Ni 2.438522175636204 4.020616939481007 4.693800670161066 -0.7147941896413045 -0.5919970171067095 0.15192879979322865
Ni 0.6763931001983436 3.061772194971146 3.0056704327360344 0.5489073850060869 1.6014514561059194 2.336804957955814
Ni 5.882640564311529 2.1705571258247396 2.48244404848117 1.5668009559115854 -1.0536324190680049 0.8498570669171299
Ni 3.2621824017017156 1.8585345696561695 3.7563514106385947 -2.342762975311462 -1.8487537850051514 -1.4574326551883867
Ni 4.2102700055936 1.3926007163326501 1.0303432488816597 2.212811194009957 1.8856159481388237 3.597153556970573
Ni 7.078235942770083 7.0864862019223045 7.152545334755535 -0.5887661688742376 0.36961613403950533 0.835232889246052
Ni 8.240979949184865 4.792006816178471 10.950503494497399 3.014256445282602 0.7282238327836491 -1.3389335958085133
Ni 1.4074268623148183 3.5287256381445435 10.539347807411215 -0.1421364962931552 -0.4885990750343327 0.8112810064161448
Ni 2.814329898651718 2.2279721946187765 9.090515307752506 1.222760099238023 0.7124341740495601 -0.27000722669591565
Ni 1.3228383209162395 1.638471534718322 5.9395467735841585 -3.094116195023723 -0.6167464561372475 -1.2127371677843821
Ni 3.5397540457867995 2.674814461854217 11.795622812990478 -0.7981832926919221 -0.07559351826559885 -0.07737657830795061
Ni 8.357886682613975 1.2308133214382773 12.76443615294084 -1.9124171274920678 -0.23099510709877638 -0.815104236816977
Ni 3.329419207581731 8.123736470484237 9.580569476552125 -0.6493174480947334 0.04228873346588201 -3.634898122709198
Ni 4.808675707118675 3.7307915091267496 7.2789370599991035 -1.0686736296718433 -0.685927128897967 0.5228189154491513
Ni 5.157730889119046 5.591505569012474 5.71339239084594 0.36903737871789993 -0.9171256102568013 1.1928566268103713
Ni 0.14458719474799356 2.3596208877121736 1.1228378209326852 -0.9519116075877349 -2.0512556697602413 -0.711560256085039
Ni 8.54595891675749 5.1612573604346785 1.787071610618587 0.5770563366364772 0.7633952384784595 0.09770217723918012
Ni 7.905946466129145 1.583170477906601 4.847408896571648 0.5419453518659569 0.8575585493264458 -0.4839728891162311
Ni 3.4255599826004848 0.7376751271936602 5.807460311637787 1.7408399573402922 0.5279035290609102 1.2355850189168334
Ni 7.787776937931839 0.23842968328862804 7.1332554431186725 2.728433591710669 0.6169071500848279 -0.03591394028778976
P 8.505390465574738 2.426829631486229 6.84245438688054 -0.7593028135766408 -0.8629342118160622 1.2677973419833197
P 3.857482563500558 0.7289899053990587 10.565387570934975 -0.8553399444085721 -0.5934905709331004 0.6915041087651123
P 2.4753677207616054 3.025076314410865 6.698142200770954 2.455402747697081 1.0598622020278003 1.2543957238654333
P 0.85700736198124 1.6466843777292643 9.291712188853486 -1.1259403246037964 1.3721928720822754 -0.4850743497105259
P 5.960307119573322 8.9048638979498 7.629210137398135 -2.3778343650932987 0.39111081357817157 -0.17077035797976395
P 4.745152453260691 3.382007594150658 13.425677586727883 0.3893215828882327 -0.17835022720955093 1.1773202217376693
P 2.391031738316666 5.982513599422956 9.199313963366256 0.05885178003088574 0.06520111928768126 1.063315964904356
P 6.505899937681791 9.260523028886077 4.163810382966324 0.8869801970216725 2.6059498366514346 -1.0318310069221972
Ni 6.4419463981990885 0.5636292690124538 10.685658950868682 0.7308800394595736 -1.2731143833208591 2.015707340341987
Ni 7.1156988542266015 4.188765078392966 7.8516004563235935 1.7468108302117464 -0.15142974866962305 -0.9635489347163471
Ni 4.7708386342493565 7.081958848827435 13.474935936722897 0.19831458614661976 1.4083713788853618 0.5731600869058645
Ni 8.186165302209783 3.6041378708942218 13.600013420004007 -0.5542077141730778 -1.574853393902417 -1.3907683210916175
Ni 5.7903723599152475 8.964514581185313 1.9768780829104273 -0.30096665119190746 0.7043390557462514 0.01104957294594226
Ni 2.208777714142178 7.277299168414575 7.379165548452689 0.7516905484470215 2.000636047831161 2.2053537092906472
Ni 1.2177831502375454 5.819706614678705 11.174918962069635 -0.4755579255796584 0.11247984976898692 -1.0320271820934033
Ni 3.651806034884839 0.37093239980673953 13.138421709876024 -2.696522344824369 -3.0618647911891843 -4.503707305248798
Ni 0.09876458192600794 5.935762130893695 7.18715526543946 0.18190837687445446 2.269225054023311 0.13970963201921746
Ni 4.044460375511636 3.427159522640202 2.304534973712812 -0.649514651707204 2.3853023913355695 -0.6121539516705586
Ni 0.3354244817320958 4.20561169600425 8.60217199201291 -0.5090180050103169 -1.0445368845246397 0.18135738946699087
Ni 4.776488471582625 5.98018444462828 1.8443257900051202 -0.10823418711875553 0.3109281332799936 0.7719783521617801
Ni 7.03741493263369 1.6443739310052294 8.872821649961208 1.0313952049363593 1.2118534796278484 -1.983872969440209
Ni 2.555962089078552 5.0872856491242775 7.231156647584646 0.29235345560159975 -2.615937543991766 0.024810888396092756
Ni 3.7434662269853223 4.36876478005534 9.890565013266857 -0.2044204419340415 0.3827267032795344 -0.24442963533712742
Ni 1.80251325212481 0.17108904761656063 8.018119122282812 -0.13190710525566315 0.5728757228962263 -0.3305461646212372
Ni 2.318884063893661 2.4017701708640034 0.39048233362549756 0.6243587212668666 1.3117266963764185 -0.02541586896994332
Ni 6.293076926081608 4.32198524942012 11.833874269624472 -2.5510737534388452 -0.4225309797606659 2.488924276493294
Ni 9.344363247459057 7.634071429553929 0.6982216770210489 2.3849213538470666 -0.23437636486618346 1.749125337277536
Ni 5.13287721727386 2.2833854998543375 10.080398612261124 -0.3250943974780465 2.1633606526883127 -0.6476770842778329
Ni 6.8432158053555865 7.151029045630166 0.872330207238899 0.8519939107544746 -0.24259900988629188 0.2502935503170721
Ni 8.218081270721555 0.33828026871528566 2.5255147041120174 0.12306688125621384 -0.01718216820624138 0.06084027121582425
Ni 5.766884377226778 1.3616295053881964 6.076288738909285 0.9190655075919915 -0.40342614061041493 -0.11840521411448642
Ni 0.6639709412934104 0.5424966324175552 11.0509779940799 -0.7230366321557549 -0.8927289265799916 -1.8486851365507453
P 8.039250823474179 8.165277741340269 12.961950350336345 -2.001386295733624 1.5627797505673346 -0.7390134671999853
P 8.29525206211139 9.228719308798144 9.739749901802819 0.03193798635917726 0.8564709726892218 -0.11474704853660883
P 7.0196983897376475 1.6754573903735226 0.6732969145074303 0.26297731643232775 0.02734548189248839 1.094219853572064
P 8.921308292042324 7.271864473893666 2.8494337224005384 0.4435039824679072 0.08956335018212962 0.15511465372037803
P 1.764180415383532 6.7361214549771375 13.074897520614506 0.43944652456908184 0.5302080088243708 0.4161962957918897
P 8.177297676726443 6.434968287850383 8.950131816477311 -1.3572151677265205 -2.5812168526811288 -0.5366630204210951
P 6.232631149843898 5.276358765047031 3.355628279144783 -0.571797402230383 0.7563632713323426 -0.039951343581957004
P 3.782379013916439 7.976662973148193 1.9068640639439098 0.20361671508582352 0.6432956673806856 -0.23373975972344907
Ni 2.1178564908319726 7.4046917754373816 3.212316039410903 -0.9122849943350482 0.15185578046344816 -1.3760718954217075
Ni 6.439074709355855 4.4882064570561635 1.1198604314903355 -1.3578384031328163 -0.81175151829466 -0.15905641197694545
Ni 1.8156837338553415 8.89099186357027 5.050891903904831 -1.8702201824090436 -1.3510630320821957 -0.6116739267103465
Ni 2.2988290121676243 8.054105031562306 11.436860948538564 -1.3494784612038953 1.3731120414624352 2.1143731670460166
Ni 8.209915197887213 7.336089280400649 10.984168667614009 -0.3259012096500581 -0.40147287353878597 0.6824576822921279
Ni 0.1856551514168334 4.009335972885111 5.961219138017021 0.9311324660588544 -0.382869913725618 -0.8763689971647293
Ni 4.312388009181821 1.007354771679277 7.893848892249815 0.8138222847807597 -0.5794667458501827 0.9378530726121396
Ni 6.272825439613852 7.367097907486382 4.835593814558982 -0.6743080566017999 -0.799634680426468 -0.42043990155959204
Ni 4.888596584892583 8.245647612809536 11.070090159045682 0.30499351296311344 0.3201838475503066 3.2024133741699297
Ni 7.643837042427988 3.6531155998296367 3.4894134339052636 -0.08535856807216267 0.48156376545410606 0.8623081481962891
Ni 3.6881371080676413 6.2095453906741875 11.761314082243855 -0.6668060917977999 -1.4885700000231397 -1.379101683386967
Ni 6.371024102403001 7.789806763596275 9.39556910760769 0.008121343555553755 -0.11509980389033726 -0.09449164072168242
Ni 0.3245410616372992 5.447238282272425 3.868423043210806 1.0600169824381098 0.43107758377909633 0.1260511606955184
Ni 5.973814346575373 5.3943599206085775 9.499261395340264 0.851922691196907 -0.13543748700642483 0.8937051744503318
Ni 4.390045210408294 8.976160355158687 3.9926240533824355 -0.7478994568357055 -0.8218340993416428 -0.13915941594270229
Ni 7.879577440562122 5.818565422369667 5.517357066434526 -0.2525712906076553 -2.2248784095871357 -1.804461133735363
Ni 8.357858620508015 5.710872413730738 13.123553470734914 -1.502436987813219 2.9467140794562545 -0.9393998482739693
Ni 8.491724219972248 8.595647552377224 5.123712133467342 0.27151466447937755 -1.405946828604269 -1.9399253602146656
Ni 0.9950355071628635 4.775553068050627 13.426923544232503 0.1342915463274397 -0.6868295861075784 1.2298272904974497
Ni 1.56969131301051 0.3281938124297513 1.8370015803495758 0.8787071583796029 -0.6234140979654103 -0.36061110232741767
Ni 4.486663041228367 6.302973495450146 8.171863917609066 -1.0608320221402374 0.9347623495019579 -1.3473380178221248
Ni 3.7089217745486365 5.792701514709922 4.040554130362013 2.0724641855170565 -0.8494639452437693 -3.384289355144552
Ni 2.262058299324783 6.468287361660153 5.3547951574156585 -2.9354701311113187 -0.1071124148094865 -0.16120611133009657
Ni 1.0052126975910018 0.612434883697981 13.163036853820548 2.5977377331542875 -1.1711390326276219 2.223545549708325
P 6.936915177155826 3.5234873783653544 9.993340605538071 0.1218288950840547 -2.07327485434381 -1.3775857609630726
P 6.5789736616014745 3.8275402964413017 5.717869232150083 0.04745562237880214 -0.6344482442923848 -0.2496852273091119
P 2.1030677609910846 4.63414811611849 2.346920913958237 0.49911308719177916 0.3653216204292095 0.18591415559973787
P 0.9135674719470306 2.8576016660419445 12.52619261495508 -1.0431286913232036 -1.5695980590407483 -0.5839360944754459
P 5.900272920889692 6.414052664874908 11.435738464300165 0.24517808346737777 0.08860252893075708 0.6879883823023699
P 3.995641665176661 7.540708803025209 6.0673762140564085 0.8048357650114333 0.5698528769095025 -0.6753159290410241
P 0.8492697039645526 1.0714205595858195 3.6643236049500363 -0.4267542738133941 -0.8681221837749049 1.051787395439466
P 0.3797672861664606 8.186820084682182 6.768511673079631 0.03204880090542867 0.18451573259031445 0.37598707056285574
