# total energy = -340867.18423670053 ev
CRYSTAL
PRIMVEC
9.22224217349724 0.00000000000000 0.00000000000000
0.00000000000000 9.22224217349724 0.00000000000000
0.00000000000000 0.00000000000000 13.49768361943959
PRIMCOORD
 96 1
Ni 0.11535364924446743 3.676806500026181 9.933444863180322 0.6575773741106805 0.18305560310502025 -0.15663931789502056
Ni 2.192200736685044 1.1097769534490556 12.776177949914143 0.4049230368709155 -0.10525993498178 -0.07532766619872187
Ni 0.280973129320467 6.81948840152565 10.858468028543241 1.3499008934532946 0.09552445286157098 -0.8661169804194181
Ni 2.0019551033993497 8.072708109355707 8.692913116098458 -0.8143341914201718 0.9698550794400329 0.9364883310541291
Ni 1.1972775869559955 3.934826390862729 12.710214940721295 -0.31170820597912774 -0.31726513124161493 -0.9520023675293282
Ni 3.054037709966089 5.641190188911694 4.982319087512056 -1.2897244810737143 0.26675169587309544 0.36168710900041584
Ni 0.6311711748817797 2.104690880935955 0.9526539250646606 0.7562753396042265 -0.5344804109474796 -0.969917300136536
Ni 3.736096294800223 1.9172119202948732 7.6689786370180055 1.0244997633681066 -0.9553579142651224 0.8325879954240369
Ni 1.0961464795532654 5.8477684130427505 3.388417765793938 -0.19109107181498702 -0.7185585417797431 -0.7311515479534053
Ni 1.5062134766955595 5.41255236156093 8.56064956365012 -1.2077032049049008 -1.628017893740538 2.5619713741879555
Ni 4.426897565191333 6.7620707219077945 6.560495564142413 1.6976377109212055 1.5499715430590726 -1.515374007589861
Ni 5.62801160488119 7.1176342679512254 9.96397694026205 0.5967450733146562 0.9109094541437602 2.4668644684797774
Ni 5.581632949115339 1.1546708282289655 6.176337534092698 -2.629977309914284 1.4238885006843542 -0.20548950662850413
Ni 3.454329130430753 3.1253164195334517 13.244210427857926 -0.6622909775362659 -0.17599612515507757 0.7415580879987099
Ni 2.8354613487995644 6.960524150705839 10.876460622975369 -0.43678903234157673 -0.14488474846225372 -0.36178969601655114
Ni 8.978295399390221 4.551314834019551 1.8881913687013194 -1.8276882225841038 -1.18390430271309 -1.271540868186152
Ni 7.249226441171137 9.104732339249006 5.743858644080614 2.7999753085043975 -1.4111561407193505 0.4292485009901575
Ni 3.828420160950938 8.926042175375644 10.056827396439456 -2.0563847634566907 -0.6438258288525428 0.8738297756826435
Ni 0.1757178352288346 1.7527240093305203 11.662997066888002 -0.08426636344924843 -0.43922206726310165 -0.05074637731493196
Ni 7.989228373425603 1.7512853395553218 9.759608365349825 -0.7775959554588737 -1.090862764174373 -0.603153033723529
Ni 6.147140837674105 4.427192676940091 12.641971271045072 0.5965419561649146 0.15552680155713217 -1.408274191185865
Ni 3.072399194084166 9.006663016239647 5.951331425700094 1.1280239466057025 -0.06975788542042825 0.9393345422536725
Ni 4.025803809659731 4.4296365711095 3.331713887718393 0.6441449027548584 -0.0011060885799851917 -1.1193428738919369
Ni 7.040397989955797 6.570367974362604 12.721741821182967 0.7864346367964262 1.3844482924108608 -2.3219280408439817
P 1.6670493797690245 6.2496460591569925 1.2805046334512242 -0.7058004707831264 0.8710159603829322 -1.490854425181942
P 9.088814749300337 3.9457916367775425 3.935020057947852 -0.2122363384340345 -0.16247263674734597 1.0732159976268874
P 8.32534221077741 0.8451502483371733 4.163400584742668 1.3905911720838051 0.6009963923918423 -0.7656146147272814
P 5.262054591936166 5.161624374936738 9.464643250241338 0.03676214722069798 -2.0175114834302605 -0.13048785631063334
P 8.670088066780405 5.281707189955062 12.042255319684106 0.13700714548638987 -1.6922736183958147 2.1262370083631383
P 6.561403954994061 3.774027376757859 1.4233036753302464 1.6715410138341535 -0.6788799922431986 -2.4056670710348507
P 4.878086540074715 6.212305200696875 12.309482697081924 0.12783422073787018 0.6230662277076882 -0.08924993270676887
P 8.591477674704821 7.007769697233669 8.898024081503655 -0.08579591271989741 -0.7693072330875202 -0.04705067363089961
Ni 2.134958279668014 6.669497855219065 6.975778661444017 0.03186830946350641 1.5566787798759192 -2.7316392431321597
Ni 2.9417569118055713 2.4112658766854502 5.6358090106179235 0.7467905400422429 1.0037998118165938 -0.27933441763411243
Ni 4.666537527425507 4.811446618308153 0.8521084300383733 -1.5882812372725486 0.263711623495191 0.7848472377046484
Ni 1.1719994212263873 1.0620979615402362 9.419223707658952 -0.007407091097348533 0.3341904462420438 0.2548978818583029
Ni 5.346705552619156 5.381602516909867 5.0690819416471005 1.060946436230915 -0.9627053557691292 -1.0766432781408812
Ni 6.625212648420971 6.2129784243737305 7.973702728768254 0.7544359724026426 -0.37301976040441565 -0.2906058767828737
Ni 3.6780791694427024 6.95723181025875 1.182272998980048 1.2971534265479339 0.7603577372037162 0.21782103161066355
Ni 7.374602823182821 8.564834617137203 9.951073179047578 1.4506876231550692 0.6285511620816594 -0.34204388084819154
Ni 7.822213568112504 5.676391487193313 3.8237315730425347 -0.9999727247610197 0.765135618208334 -0.4067888864350607
Ni 5.359266246425696 1.1005362668160503 9.556940371889821 1.77398661929559 1.3553020098642077 -0.3917273641162479
Ni 6.212498867781997 3.291990001887049 9.852715199858965 0.14517425467821451 0.5384957027544597 0.0006003525881602564
Ni 8.645556902664843 6.89349689476903 1.3636579020092636 1.3848529840484474 0.7633335320025885 -0.7161715296048053
Ni 7.843682947834696 1.8454352096514801 1.862329435043698 -0.24492945779168138 0.2485284879968494 -0.3507897453616217
Ni 7.603231428291437 5.318254935590392 10.316144856746329 -1.4470523403953273 0.5858883331058103 -1.9158616343972423
Ni 9.076355500157433 6.901400356290472 6.209798595280855 -1.6671634535917481 0.2710932606712428 0.7178427466596411
Ni 2.8648803012539426 2.700401612531738 9.629112716721393 -0.3700496220324982 -0.25479992282785796 0.4632634244830215
Ni 6.547017257242076 8.49091834631531 0.48357656708542957 1.6439538482445042 0.472191837320903 -1.357943561252113
Ni 4.199901296943038 3.9368829508618908 11.096269997917176 0.7510104916608614 1.0452292826059741 0.3244397946131832
Ni 5.105027474870119 3.9981647499400546 7.452354624514362 -0.30813128726114675 0.293753678383236 -0.41220131569988366
Ni 4.827281208077484 2.633051578119725 1.894588838079878 -1.5100212279183802 -1.9488077503059598 1.1290829839978362
Ni 3.9732923628649894 6.7438291269376505 8.621550484127543 -2.5525559944113265 -1.443345323857385 1.3592941617427363
Ni 1.4998777963393974 1.0242037685511955 3.2464625590715226 -0.606346343849846 0.30070439866945636 0.32186612034873596
Ni 1.2972190251215425 8.165382420708072 2.187003081010032 -1.0925442656418538 -1.256008833988824 0.4560699920583758
Ni 0.7015774603418747 9.162288352499093 5.6495630625585065 -0.5664394803525793 -0.0966138292710078 0.3099081766559114
P 2.085822173499699 4.4701775475952195 10.674211319308917 -0.08236580399242589 0.9528197212243011 0.20284898368186358
P 4.630386338202571 8.673288184806008 7.966089767874496 -0.7444498077242082 1.2863877033909974 -0.29021686887457115
P 5.143899225526922 2.9426053580832523 5.00163415146831 -1.62052775601108 -0.38872457273418215 1.152120325433274
P 8.946321885860652 9.036884303760964 0.9125500828567896 -0.3246441973145054 1.1153013568327113 -0.4037732395371885
P 2.570248109087024 2.3309032586016096 1.7730691977347846 1.370350162446582 -1.9745108114990189 0.8281921803491865
P 4.214426328327253 1.738300422609941 11.69807755379747 -0.5685508702686273 -0.8343036925635631 -0.880071128606665
P 6.733205103982339 6.930653308386175 5.83078288745326 -0.002979908563930352 0.4117310609316845 -0.26995863284616733
P 5.190600659767978 0.1566812829854719 1.7652136918725152 -0.2125379288348533 0.7228448278599229 0.513226900885342
Ni 6.329556787375545 1.1437701380091927 3.3767285738704507 -0.5634330894260877 -0.5253033724339017 1.412389241795503
Ni 8.257586397710853 3.252426583069092 12.989292899280205 -1.678204284786942 -0.03821893427188257 0.9087258162288802
Ni 5.700055760546896 2.297620186686923 -0.1858291015206779 1.4823990953257375 -1.8557137612627521 -1.0182100737046529
Ni 6.291367482637746 3.6357859669487285 3.4892454614299755 2.7211128896795396 0.8531269959176533 0.4070709364518537
Ni 5.828161926234597 8.814259378291156 11.654655548864493 0.8905090361105373 -1.3984353507185723 -1.4890279134961648
Ni 4.378324015794089 9.13375473529099 13.118372011514593 -2.500464673032726 0.5419422665421634 2.1389703967694067
Ni 8.947631444245769 8.844056442673631 8.067025363743673 -0.46789346705586515 1.3684156644280303 -1.4563533060812788
Ni 1.8235877180011912 7.9245251225102695 13.303857123403123 -0.1515073959850939 0.056379921451625487 -0.7064167642108867
Ni 8.832390306355515 8.603236033444423 12.161480466182601 -1.2939963689761906 0.8130136728365354 1.1439460171525977
Ni 6.688781563552014 5.87232724388476 1.280429011065605 -0.7143776709291761 0.12111078597110753 2.1635105480026158
Ni 2.0044266642952033 4.274564569378977 1.5638820012998595 1.1124188930785939 0.3292536710620588 -1.7550069928692937
Ni 6.927692968656439 7.933111029950716 2.641199429058108 -1.7590415679499833 0.0882798554840157 0.33973374465777617
Ni 0.9115513140320847 4.676774216210572 5.868239023940237 -0.3290263855426011 0.14769702110006822 -0.5595419819017976
Ni 4.014691007870539 1.1792388813131232 3.8522661124748514 -0.4020184616296108 0.5213333320425602 0.1510674802341979
Ni 1.9918844149729609 3.5805447364779686 3.7301248930089352 0.09117800296741717 -0.9140569986338064 0.5354862265041745
Ni 8.813779821699423 7.930538024391227 3.7462684278902483 0.5542861328194969 0.4851147160301581 1.485693706916609
Ni 2.893201806892624 5.5443843130767085 12.698958271954584 -0.2745573079604433 -0.09598030945206697 0.7859785230956141
Ni 7.481571609865683 4.938409225969414 6.038350658166872 0.9251885897705937 -1.3521678351106001 0.5256720686272303
Ni 0.912947561493399 2.9627928461467734 7.441651290276572 2.6839810178242485 0.683603622971113 1.6401421878078977
Ni 0.7444535085396472 2.198471861346165 5.093107726892914 -2.664763307245217 0.5977897125290866 0.6280490256342602
Ni 3.1891712241711048 8.192117700697176 3.7428940094880363 -0.36070649025470136 -2.1231259735379826 0.5184418694273781
Ni 5.452401669885497 8.257586397710853 4.487520896180079 -0.8392384108610191 -0.8958260774480765 0.3597050455733805
Ni 3.0673822943552693 0.07841764721467764 1.8180838838868423 2.0427949405873975 2.6532226535954693 -2.5454396950815195
Ni 8.09216704028948 2.507942641130354 6.847091494500947 -2.617516201332795 -3.1686902708858717 -1.7783402682785954
P 8.318941974726206 4.159655432206077 7.896697929050759 0.11927219010047202 2.1589049309098045 2.5107889377768693
P 6.82170173964134 0.9439887063417348 7.870310327590661 1.5344068558515962 -0.2971485629973979 1.1999708692576496
P 2.9518368224741085 4.600035939291175 7.080843977347385 0.20990769030085785 -0.5143792693222303 -0.3494013496545273
P 7.041283325202074 1.2069978301807336 11.850061948856604 2.4465427262032895 1.497238474331415 -0.7875998607491209
P 5.12342584795679 6.430143782491501 3.061355559111089 -0.31318736162781546 0.22208983418934655 -0.5071696389476684
P 1.5512272406234024 8.937569978061529 11.173179808540539 0.561084129577937 -0.41559105810772295 -0.40457799482667095
P 1.4341047653348131 7.261648801345448 4.781473409100637 1.5980066920904286 1.527134490559899 1.7408633543790597
P 1.793956653977393 1.0522301624411188 7.271525822686713 -0.4504446754517984 -1.509113114281814 0.03502331015272033
