# total energy = -340883.68218077323 ev
CRYSTAL
PRIMVEC
9.14968178291035 0.00000000000000 0.00000000000000
0.00000000000000 9.14968178291035 0.00000000000000
0.00000000000000 0.00000000000000 13.39148415329966
PRIMCOORD
 96 1
Ni 6.68825277395009 2.3242753934583797 12.018133708513325 -0.452261416945563 0.24864264497721045 -1.2037401064920947
Ni 4.892911341395372 0.6951791061689165 6.1550880001362955 -0.8321208259796314 -0.47613899489410905 0.6480966883137548
Ni 3.0655460221938897 1.9392659288271772 5.124974723401627 -0.42140740767918394 0.7385478404174765 0.5897964099109648
Ni 3.5650363067463267 4.5001612458775515 5.112426849645234 -0.02147025405863399 -1.2248460352327744 -0.6289918491635038
Ni 4.33725115966451 3.1216884703266174 2.6034248684536574 -0.7767562331663977 -0.44437070134357665 0.5600628874022742
Ni 5.708861673791137 5.025819620661345 3.2399224897628525 0.05966399151953596 -1.1031248693711777 -0.46535424557377925
Ni 5.693316364244607 3.611086655744374 0.524065415165164 0.5862698848149451 -1.7131324641226948 -0.3027399410422464
Ni 5.886411251042699 8.644299219380171 12.591731841607325 -1.265022350341344 -0.8100329929416566 0.7953967310857205
Ni 2.4424343855030424 5.562238021358451 11.42649789252349 -1.2954518704757947 -0.6267495900965464 1.677216466952376
Ni 0.8231319177183495 8.216304549187113 11.96928172691778 0.3464484376737904 -2.0047917218707476 -0.42042601760252113
Ni 0.763392729631095 0.9288391076665599 5.525554201720487 -0.39049323459883073 -0.9832286725334615 -0.7260869889463044
Ni -0.31302251235384554 2.461749363991991 1.4874729360146215 0.6909490075925907 0.18938334509526092 -0.2999965739691543
Ni 1.9395678683298467 1.5751634873353622 2.9986481229887985 -0.49471084435902535 -0.12232357533228609 -1.2462620390147052
Ni 1.9398240594230207 6.9852514483940835 0.5112952041386242 0.6672933158468637 -0.19078382498721339 -0.6656712068624084
Ni 7.8954984024417225 4.078864142834615 3.917129790745605 0.40903474504644394 0.818081831388062 -0.14756538061821037
Ni 7.693985808296482 4.493289834771345 12.88654465704563 0.6175270430570139 -0.5733925146316448 0.1696611840759852
Ni 7.93125535930331 9.213546678731161 7.102776367483141 0.2940889502354677 1.0597223340158266 0.4214192347537259
Ni 6.815360154892049 1.0901754485929602 0.8024243576443616 1.1253384293537394 -0.47343445147875235 -1.259449998459889
Ni 1.5131103446958314 7.164466267751278 9.692622193030381 1.1876766252713287 -0.5717737480812992 0.377309388918705
Ni 0.5023523050504677 4.8956104975556 1.433465108668948 -1.4791132254856139 0.09574453929217704 -0.4725983287307022
Ni 6.602145117597889 2.0838766512420674 7.172653403114571 -0.4166999749011856 0.10277033579070688 1.6121958391066171
Ni 3.6363031790582263 4.334030471636035 0.48357349792080484 -0.6625264905858397 2.0217694873756664 -0.653887583963919
Ni 6.754048136486342 6.167837166894468 5.035492664365047 -0.3026440388943304 0.6416324207456499 0.5083371768932085
Ni 5.2994683068988975 3.2594552306809996 9.56010003034055 0.7302025537765746 -0.22650544675853895 0.4539560310391666
P 0.2412020842870515 5.961383744523725 12.495888923714508 1.0290912393935312 0.1785191486872474 0.5987484768979301
P 4.1167621252605855 6.258894801154067 13.035137321022999 -0.723108880154587 0.9703417892684645 -0.4979280657447424
P 2.7240890434022873 8.861448619890933 2.0241768067869788 -1.021883151680866 -0.951214324410394 -2.1141314833488556
P 6.496713333074841 8.346010439788408 5.90758635986173 0.140922421380396 -1.9982482643252748 -0.9955563408608791
P 4.785951559995178 1.6598437933113068 13.181693265809631 0.44770619347471285 0.18451444703873385 -0.5297117859142426
P 4.075304916575875 6.526248506245057 8.250520699616894 -0.1412846898158212 0.42115466823842945 -0.03386811350235457
P 4.913168737119926 1.396991731714663 4.040264379806985 1.079857671313121 1.072502002278998 -0.508374457889047
P 0.4211186842459046 5.935956778526195 3.783495941705036 0.10578341158541782 -0.01596937884506282 -1.2827945867231005
Ni 0.6181881928609548 7.814093682585647 2.562233000544019 2.8213568595039664 -1.643425743655176 -0.3078266115365344
Ni 1.8126892294353651 6.922969563707076 5.339506399921063 0.2248609691765805 0.8037846980390996 -1.0770081176794677
Ni 6.116955785853707 5.567370992903832 9.165319620409324 -1.1092978309511088 0.9957278334417368 1.7000092964771754
Ni 8.875749572699188 2.515595241968051 10.358848960766053 -0.3403626364910267 0.08635127100273517 0.7626866424472091
Ni 2.4927393365841604 5.388622807323491 6.973053092486237 -0.18659446949621414 0.5698443922690702 1.1172474248154889
Ni 0.6948286733521819 0.2743934703441382 9.362442197179387 -0.7516604665400345 0.937295914557089 1.467160681109428
Ni 1.4680573110247832 1.2052692972014325 11.715701037989469 0.3676816360209539 1.398879380234526 -0.6606706683240234
Ni 4.218634683524894 7.03419309687224 1.971761939059934 0.0010726642388884753 1.1439092503773913 -0.4864871708976524
Ni 5.8382198764802675 8.245784824265932 8.010009416313224 -1.6429716868368929 0.08255323741288363 0.9907126396153325
Ni 7.122240485787045 1.1325842241951758 4.944256611308415 0.14436461429272557 -0.7229823818790516 -0.194446104330149
Ni 0.6314799357557419 8.159100737954091 7.526161427935446 1.8448405659936746 -2.272829226434802 -1.0874858772823401
Ni 5.116987051103734 5.241980855527006 6.906095720348802 -2.24539298460072 0.18723955927938074 -0.11226002044869698
Ni 8.343951761361117 7.3142099617115495 9.705920340702496 -0.9735386989392073 0.4874636758783089 -0.029162737606885262
Ni 4.850035932016304 0.9970316868603705 10.771748485762016 0.07747916532408591 -1.030103225597813 0.9262093177256243
Ni 8.572419318381034 7.788904608317492 4.531892342703546 -0.5342598102962411 0.654431372282531 1.9676932743565532
Ni 7.361587014584964 6.513365754131158 7.49088848924632 1.897667479986719 0.10719109056622185 -0.9796962339001708
Ni 2.3641039587650563 5.722833238051026 2.5350886392540315 -0.22442799540421993 -0.5726389242950719 1.4104917676624742
Ni 3.397999713996802 4.710301990053621 9.372231441843208 0.35298315346851467 0.07089534145898115 -0.36519100838861623
Ni 1.2068887908975687 3.616640512657113 3.914813091288759 -0.041422528810844794 1.0528204646896706 0.14774407228791975
Ni 1.0959397481893778 0.3090295911730889 0.7344614354662179 -0.6343245742303268 0.8388545451590392 0.03878869073242352
Ni 1.2758316440071036 4.000076232001675 8.433033064330516 -0.28544875806196646 -2.0750586857171105 -1.5189730377950292
Ni 5.72239405331987 3.179093574561418 5.3451975020622875 -0.7714718448390069 0.5940590418420608 -1.3787527846879803
Ni 4.355340080778983 7.321886544824874 5.710972505405254 -0.28347492216504727 0.03745685929487743 0.8020728575543155
Ni 8.632990212552913 7.709046184702359 0.4176921283747008 -1.6611018207787005 -0.42927601179398334 0.6336265197220379
P 0.3609110324454174 5.964220145912439 8.252876742705906 -0.5169917672444129 1.1358979500371404 -1.7547136299985908
P 8.692252702213228 1.9077727237305588 8.267567471963062 0.08578280009377484 -0.7415704292938841 -0.871111348310216
P 1.8386377273011434 3.361126495943527 10.439184082808126 -0.8435318960300504 0.6711093471588442 0.8664332261082562
P 4.079275878520074 6.080860290761855 3.9239060451600603 -0.7167772815096042 1.8874856543577105 0.09489144726326239
P 7.214990811197974 4.15354384649487 10.713723033094459 -1.3786008324911483 0.03755841786974822 -0.00838282474705653
P 6.385361704363091 7.938318913729397 10.486818241742904 -1.0050231427007337 -0.0354997355685066 -0.527767260593362
P 2.5069213435277273 8.806696923406864 6.249417560643005 0.23618127928540614 0.31060983070862636 -0.3249858969246403
P 7.243894656317154 4.333444891994495 1.7452716282984062 1.2148025349538434 -0.01128997109152249 0.27888370324993905
Ni 2.575242018268125 2.3400585947342853 0.13594505868827556 0.15837121298446274 -1.5605812002541188 1.0728164481956233
Ni 1.9013038986279125 1.364345666698761 7.587775385843822 -0.7072199768384724 1.2788417727229393 -1.7734996523568425
Ni 6.9641248328891185 0.8032963223293434 9.424806429003489 -0.09218664673758963 0.3589303721908851 -0.33252617116574346
Ni 2.8653418325602167 1.649806592268021 9.590994846240967 0.33536646882801596 -0.2243709169140394 0.6028756116924262
Ni 6.825498002436224 2.2701184262977514 2.844284754637684 -1.546957438823097 0.43416393601390396 -0.04350023727547992
Ni 3.968409182948974 7.015061112021273 10.384279586636342 1.8037995888919647 0.4451566875799817 -0.06463187704777255
Ni 7.294172158352575 6.599208069708285 12.058830578632223 0.036055608071976615 0.5596921343264167 -1.6135220141172082
Ni 7.600000275829176 3.825500301367312 8.536857249743896 1.2553187499003349 -0.0055042176476808435 -0.3580711095143833
Ni 3.4161709822483664 9.106779040650848 13.237013157539632 -0.028925939005730827 -0.6595324409545222 -0.27540654333461606
Ni 0.1287854326022489 5.027338467856591 10.154574992623669 -0.7010184760134507 0.27074281931035954 2.7316796094517923
Ni 8.6024394246919 2.965732142356874 5.964071921065674 0.15220467916243466 -0.4599495296184401 0.8933570470822937
Ni 3.6094305633206414 3.056744028206979 11.508186252518435 0.6675432270741407 -0.0995410302201318 0.655729008048032
Ni 0.7080426439508269 3.491225822866484 12.611403657690339 0.6132559264854858 0.7432030798013007 -0.6431159472697118
Ni 3.072948114850242 8.551713588243425 8.456896349691496 1.1617686471563153 -0.04123046740469674 -0.38425136745417693
Ni 5.725834333713923 8.285183354523353 3.782129894197504 0.5916203504935811 -0.15367946393574825 0.6448851233549926
Ni 3.3223867427828413 8.96225981505495 3.968070644718708 0.25571137889853385 -0.9515994756639549 1.6661776926397112
Ni 3.939578535284987 3.063404996629506 7.336711774405947 -0.29575733907682616 -0.21757986213413494 0.062274432559189526
Ni 4.991105727536251 4.984682650843101 11.393783204893342 1.161893602769954 0.28933292360772106 0.900795762748526
Ni 8.263471159376847 0.17848467474164778 2.692572049132731 -1.6862158422375089 0.6469638602608923 -0.7697396926392486
Ni 4.883203528900453 0.6490665393339552 1.938296977514065 -1.372033977906908 -0.30831846357128834 0.11881119130365346
Ni 6.08129947549301 6.090046571388527 0.6862416968898994 -0.17601412287720652 -0.042399805122449556 -0.3659952494574664
Ni 7.810507007281209 9.230656583882432 11.545214100195803 1.5610272866526018 -0.2173782876462901 -0.08732751887307541
Ni -0.009827673327797116 5.335060569486302 5.742000906661399 -0.03285766995996922 0.0399423447208925 1.7156017515987936
Ni 7.607008932163869 6.404457090486461 2.692545515055224 0.537492458300926 0.3704759109366394 -0.5054248883424198
P 8.90522984777801 1.8584101898850458 3.7822909285989277 0.029992432597032218 0.9500393302656865 0.3791166173307729
P 2.2455606800806325 3.571129994891111 1.8504618612193189 -1.1975846284136602 -0.4654128667258565 1.1231907868831172
P 4.843384113275675 1.3948049577407837 8.553020162818614 0.2510360849100515 -0.8127493634315551 -0.8948716839546071
P 8.648160385141582 1.6580870543866844 12.703188691660916 0.5309330599158534 0.2784111344888947 1.200081683803901
P 6.269050948062042 7.999914572273973 1.7046552753802195 1.595546146365078 0.8388745997636973 -1.002732032673712
P 1.7115760947686807 3.4455689101900964 6.108431942196528 0.5725749038263558 -0.2999721484891221 0.8979099565602987
P 6.933894283894572 4.538205623213908 6.5348162683753515 3.121973069334991 -1.2398731047692257 -0.7517003186390344
P 2.7587571881178845 8.685417889834618 10.943547487940009 -0.5000098879744356 1.4648924539005417 -0.2757788390723702
