# total energy = -340855.5119097818 ev
CRYSTAL
PRIMVEC
9.44637656573160 0.00000000000000 0.00000000000000

0.00000000000000 9.44637656573160 0.00000000000000

0.00000000000000 0.00000000000000 13.82572695832446

PRIMCOORD
 96 1
Ni 8.087411538236246 0.13404408598086565 6.5284948771192415 -2.8791051220580286 1.109938035638269 -0.6796873186358424
Ni -0.03425256206952916 2.4775012283440194 9.158424729861038 0.7997290399124871 1.392578120606847 -0.02634660831432882
Ni 7.3703370796874434 4.218222856253677 4.198790714655986 -1.3327310665422272 -2.42792459688147 -1.5352650900868332
Ni 3.496255174552084 5.787700566569173 0.9360556410128927 -0.11161415933458196 0.5905116908104346 0.7314927333429079
Ni 0.834865108705942 4.974376975387599 10.275017633907694 0.48075952438525593 0.2786839285343071 0.4831681338267485
Ni 8.45747334713691 7.580348927434209 10.08282637588629 -1.542993826189659 -2.7487723032680207 -0.7187760571071878
Ni 9.322090764032094 5.872000032622257 8.33720396772245 -0.7080013350891872 0.3739006203474722 -1.4418641113261685
Ni 6.785823625970881 8.529634219075446 2.3456732623470233 0.031002361918785314 -0.19560515763525668 0.2907282612933509
Ni 2.490102694918965 6.307921980173984 7.250390766357588 -1.3649143361429912 -3.7546876187657205 1.529619718875598
Ni 8.660589339861403 0.7353569760968907 1.882649659920095 0.9206716757368467 -0.6324008748450528 0.04580574548020498
Ni 7.094899626619785 6.9250632191603065 7.606901747820652 0.9119900888024487 0.03471040689799183 0.7059120566603262
Ni 9.078846562904024 3.414874638912538 5.211276045257503 3.4180546245204555 0.8263538415888672 3.5808314227717815
Ni 7.8195689720698285 6.617309711255401 1.1195316718513535 0.4723507314962703 -0.3180740002961554 -0.9708272135453152
Ni 1.7768823580812396 3.290928729669766 4.056703038878593 1.4219393473777835 0.18245576473749223 1.0832263306750376
Ni 7.63940767483043 8.791582246154332 12.213743820086297 -1.2487351831455462 -1.5401411872322122 0.08686317764214717
Ni 1.7193728164708444 5.416457960575655 2.93858926817634 1.773479340641868 0.5994141355063871 -1.312426036436288
Ni 8.17351526224721 1.8599632415344962 13.31031796253953 -0.8302004690284669 0.007975819116624974 0.4986240633705025
Ni 5.844624432821513 2.2752826414100946 12.701460251319 -0.04627677157935256 -0.012242050592146659 1.3826536624042833
Ni 1.9840886319353825 8.136334323387402 13.381077936807104 -0.7927772911850025 -0.5804586774498067 0.7023523643335259
Ni 5.482459794877863 5.482979345598718 5.068580967455547 0.12854950163733989 1.7492137832262844 0.6643977394666235
Ni 2.5265940482765465 3.3205620135120473 1.2727037260987908 0.1172890982321722 1.1965024510930748 1.397229246225613
Ni 6.748463205952958 5.897580820841861 3.113000555892374 -0.8154428511033184 2.5380549725816737 -1.3323988800137891
Ni 3.9636241102807177 0.9816391319854556 9.103480824173996 -0.13189476396048896 -0.054186513344732484 0.7350202868801922
Ni 4.010156962115936 7.253749897927341 12.532966173994682 1.5032592266041982 -0.26656143423916023 0.5799521701270335
P 0.7211666289538 5.249814428455258 4.62715272690042 -1.5395328642242518 0.3591005792201622 2.5913079183685435
P 5.050014113967499 1.9221959715163106 10.757010505471914 3.4422697883140785 -3.1555030827716366 -1.304177937494883
P 6.643268354544719 0.9459885061579865 1.1667900054204212 0.22305322654388035 0.028374180267318878 -1.8351215389336977
P 8.713819672807293 8.98678217516833 4.719204834346349 1.4120799380852003 -1.0083241820495086 -2.069673510145797
P 1.3018429644374219 7.208010541738521 9.08590867415697 1.4372060437288667 0.23649443965045078 1.160736092126743
P 5.51757197723099 6.84407943134396 1.2323932026240798 0.0064467840666082524 0.06634834551824703 0.7883768481244615
P 4.419298431601718 2.701918800623612 2.225319810179552 0.9907671470023518 -3.561423193448499 -1.467276637862002
P 0.839871688379646 2.046189112642797 2.740287149039996 -0.17074953204415755 -1.284153671854156 -2.1156731168043628
Ni 9.267896900658434 6.8958833614016815 12.726084121574557 -1.2424480645852536 -0.3024946578006597 1.1073651327047702
Ni 7.259597205131159 7.430727766204405 5.265514306601854 -1.009106825851804 0.4147541640287244 -0.8889218941290756
Ni 7.593177107050982 5.531042510466277 11.051277421301071 0.4387096464030573 -0.3564963088280957 -0.19435560149887174
Ni 8.672104473110924 1.672159825510142 4.254660365263824 -1.067265179360091 -3.3935430125323363 -1.4527637889578078
Ni 2.4518921009941863 9.55094813338082 2.343142578017617 -3.048130729432544 -1.5333077092501464 1.57085712825883
Ni 1.6347710663619905 0.32788279210621907 9.058326198705558 1.3053652729347647 0.8579856095615352 0.4357001701527722
Ni 5.722293854001767 8.839494268994006 10.820456150227509 -0.6373301938258702 0.8712347612619576 -0.04572886949568253
Ni 4.989415607162195 2.374582953730804 7.3551624200877495 -0.700617126809974 -0.7289231728435188 -0.538056301224196
Ni 4.322491962741118 7.864486493482021 9.142178851138706 0.9074487492886695 -0.621008316737395 -1.0259976880698718
Ni 5.842744603849688 8.750669988481103 13.745413352126258 -0.938249793829926 -0.44455607788150536 -0.11390629780286836
Ni 5.327822607597611 3.1268357192699336 4.933268233078118 -0.22648462082293253 -1.4124321792182963 0.15571012121253183
Ni 2.5363427090751545 8.356359330481576 7.488054992743662 0.21171646137482247 2.774963874061724 -0.6873597475794356
Ni 5.972301660877706 0.7053770102281469 5.11370819843143 0.16941795771692758 -0.5439425848016439 -0.22013810977961443
Ni 4.606535065021502 7.806306259122885 3.1283339146213476 -0.39868734037384884 -0.1596750193975508 0.4541884587649468
Ni 1.9372534960443937 3.164356727692484 6.671798301583437 0.4498288962446705 1.4544252358206309 0.29084704625940233
Ni 8.205519586651945 5.298586071578527 5.962414138340978 -0.10802207110794945 2.150146210880568 1.6331752695717616
Ni -0.12865681732442535 7.638566947300317 3.122844625096085 0.40656931422508685 -0.6641298305172174 0.36974134676346
Ni 3.0356215054410938 8.306161284470136 10.779849955160747 0.58666737736368 2.087012772755193 0.9615074788062861
Ni 3.789300673868392 3.34414016986217 11.001462898185391 -3.3310006710237405 2.487921289150077 0.8842735967237869
Ni 0.42774894239382394 6.9628865116386285 5.9272141046841424 0.2052686488669497 0.9765630875878276 -0.3778894297918911
Ni 0.9254067405106919 8.137108926280316 11.179621563555308 -0.3384859882936041 0.5216616619162564 -0.08977880862704539
Ni 4.8570435298648125 6.444988906712557 7.40467276987231 -0.5778124980762113 -0.2021964376995292 -1.084488742327229
Ni 1.3915929898711221 1.5230487686244505 10.960137833848501 0.7324394135268935 0.728489684850526 1.4886581888615718
Ni 3.5571843045433864 1.1388268409862734 4.008008856044614 1.174038465662604 1.2147889081070886 0.7317758118009655
P 9.177740681024792 0.5573711794213673 12.016824650505102 2.8901120146914936 1.2171779771645552 1.6087708725854681
P 3.593770121668397 4.404429834608491 5.073793478142244 -2.386235701783116 0.7698574491640355 5.408457167549066
P 3.62590669534753 0.08427018228518002 13.245585721271562 0.15781534048099272 -0.2888999498353605 0.05862398029079582
P 6.7733921941773065 6.753781516059176 12.82744091011218 0.5950154922180592 -0.36422170249681146 -0.7050219407458891
P 8.111943778637396 4.261836777675358 2.0622866832502664 -0.6557963709508576 0.8029881702797331 -1.4137285294322168
P 8.528103906043107 4.004460796940005 7.722829572484103 -0.2889691125103991 -0.973006223474505 0.029928412128316196
P 3.880817171753003 4.516548880169231 13.07503138917963 -0.34441160974941976 0.022933468867721796 -0.7541202409344367
P 7.552151492856838 8.892450657014352 8.491485026599495 -3.381630834475783 0.2142315144871923 1.2383103882677964
Ni 4.370942429055132 0.4760255953757698 1.5343513583972554 2.2989598620835827 1.3427894792194939 -0.688428298053266
Ni 1.943525890201638 5.852030392187898 12.576890881211202 1.0035437299417298 -0.12626224826505997 -0.39665256933200715
Ni 4.681784902154946 9.30657036704361 6.993439872575664 -0.2897738677998816 0.5081214613379765 0.972090653638771
Ni 3.1586511161398105 5.978356788369865 10.478823212134415 -1.687403949008339 1.2724389545203891 -0.06106292874959161
Ni 7.471073241273063 4.483297634034443 13.41022284297178 0.692045325980563 0.07804712201241398 0.10603743657775286
Ni 4.130192071387173 4.323719991717687 3.243571209144898 -0.0728727769003261 3.392387301661338 -2.9732920870550985
Ni 1.6348371909991906 9.341418050847938 5.2044737093649855 -0.6781564838136127 -0.335788386856783 -0.0759205625877144
Ni 3.609224394019679 2.35013573072034 13.399826160728614 -0.5606493560333634 -1.0250607780778989 -0.595885039307206
Ni 0.04024912202588248 8.69529532801459 8.008151714175467 2.0289755182058027 -3.028711187255352 -0.9816952666080706
Ni 5.808567612794102 3.8994454266898786 9.326006287192 -0.24016366097192185 -1.4482599875501831 0.594513612880976
Ni 3.226277727241785 6.778304310083582 5.2440011282077155 -0.1880286308395794 -0.24408793572699253 -1.8506052363915935
Ni 5.151439861055347 5.364861850806276 11.109276285226745 0.8321249397446895 -0.15726461018384527 3.1155216572826925
Ni 1.4468731865702078 0.809960681061125 0.45449446886582007 -0.6734678200886917 0.9011942837385254 -1.0154600217633416
Ni 1.2605622980712217 3.670644735601609 12.409281929387685 0.04992182453110757 -0.775643202607877 0.14015211887327475
Ni 7.33959856976625 1.7008390253013967 8.347338040692165 -0.6592131099418905 0.24404834073830872 -0.768454912389554
Ni 0.37184717410505963 3.0129029693745695 0.6708089391754071 -1.493799109632563 0.6238588988123127 1.3761279454706234
Ni 6.274283432592739 4.3410540930407935 7.120221584116635 0.8922635569077989 0.5826834530152675 -0.3824263984302962
Ni 8.868919732547944 0.2885159616681176 10.049893472647735 -0.645273874152979 2.286367884351185 -1.2434325399857102
Ni 6.4335587908537235 1.924151371502078 3.021018351634341 -0.21732249470769022 0.5477267344344245 -0.129111544788397
Ni 0.43383335365388564 1.2962884949126334 7.079602164122433 1.6092652957233835 1.5258494531998883 -0.5204504152169747
Ni 5.710731488868533 4.512345242518668 1.3282295285931902 0.279211518903003 -0.4573105493336963 -0.07355900433407332
Ni 0.8363888092745617 5.571728055097677 0.8933561288599182 -1.0732982729280485 0.1417755134093107 -0.9469421793976014
Ni 7.2771391267426075 2.3064651310382014 10.911651471302863 -0.0570815755043404 -0.8256156778712621 -0.7699232694049644
Ni 3.1096055280909978 4.479566315221022 8.849184362256807 1.507653756127468 1.5051412741182593 -1.8335171705610553
P 2.916701068625511 1.410514082487026 6.138429420827945 0.8438291155554951 -1.2558142014795146 -0.005605776222551636
P 4.950307607446849 8.02510323724049 5.368281439187183 1.5496630106797182 -0.8037358470790351 -0.6056742574834859
P 9.665438219504011 8.100183039592563 1.0388624483805429 -0.15519050126363595 0.14266023000710915 -1.0768973031332163
P 5.914999939555654 6.061437671823122 9.355358069007345 0.5088339140239689 0.9231813295325778 -1.6710249934296837
P 7.109097530864269 2.553724042281976 6.0374325392442225 -0.07918072139622491 -1.3386492317988752 0.25253092428802315
P 2.2559836937244775 2.8115062172172713 9.328521857318616 -1.3522524244046066 -3.009679367434881 -0.02358472929847551
P 8.913761682946195 3.5395573655412513 11.092215184191508 0.4904225013963166 1.1763051502095934 1.1527929260202663
P 2.5333576540244183 7.368107734776134 2.497673021240675 0.010758781178400826 0.028850862793421285 -0.0845790095936608
