# total energy = -340856.5668239765 ev
CRYSTAL
PRIMVEC
9.38859942684540 0.00000000000000 0.00000000000000
0.00000000000000 9.38859942684540 0.00000000000000
0.00000000000000 0.00000000000000 13.74116427535836
PRIMCOORD
 96 1
Ni 1.1041650317103922 4.468672968557415 5.974301090657483 -0.4106517118245766 1.6053986136791254 -1.8523011360367776
Ni 6.584591046236489 6.388294206056901 6.833371096971268 -0.33718038210830314 -0.1325488526047201 -0.5832694074257245
Ni 2.4225497402132885 2.748953793479195 -0.004493383762672236 -1.9751633574813532 -0.6485556302280443 -1.6406204129958972
Ni 1.0477677139870907 7.405088930004175 4.701676416545027 -0.29061744674709944 0.11677796292370857 0.4533754759453482
Ni 5.294860343675246 0.9314598645747709 10.54454368499445 -0.0973062273523421 0.41276644417473424 -0.21911686760395166
Ni 7.359826491391884 5.045151760441245 2.946228925735822 0.4540766157774309 2.9059181284858147 1.9479752271023354
Ni 3.7950503367396755 9.424370152127075 6.049657746388182 -0.4590689267856997 -2.5087701075746276 -0.8739634730470303
Ni 8.464827108465581 3.3736242670466776 4.421247396600118 0.8941306920235247 -1.299327551381117 0.01131028280649665
Ni 1.1176940037162648 2.059210936169378 4.489141993378515 1.1007972496792653 -0.26176735528462663 0.10598755717642391
Ni 6.359621422916071 7.661923460325241 2.2944310325196446 1.3510257510863573 -0.7044429283139675 0.18331039942830363
Ni 3.890682612139967 1.3264589041483164 7.975165635829153 0.5715441485689963 0.13919412583537963 1.894716624888511
Ni 7.575416903724191 4.207848283411579 7.405827812791727 0.6815976482846778 0.35763016532222275 -0.02660911794709611
Ni 3.8157052558326106 1.1936759401795045 1.0155122412435955 0.31144723900825716 -0.4921477116175395 1.0455936079239283
Ni 1.4097263938916096 9.30794212864003 10.744463585754932 0.08928361415818171 -0.22558704870932758 1.5491439049514546
Ni 3.7255371453923596 2.288508703899725 5.914045997363596 -0.1750077930998792 1.4611856944729158 0.06092871716457248
Ni 3.919590110270489 1.6320765979270597 3.7221516163810358 -0.9013310664267058 -1.4145872778880864 -1.6223313848787222
Ni 9.447372221116932 6.665098287700999 10.746827635131112 -5.264663852378778 -0.6355985558467441 0.4074195780405241
Ni 3.744605391154974 8.277909479274102 10.021486024764622 -1.7639690871585878 1.3897493929088003 -0.17840704858941533
Ni 6.355941091877693 1.9299956400438911 12.927138361942372 -0.9862543467336627 -1.1766278236563348 1.9714707391211144
Ni 5.641703378243572 8.939064050839379 0.44658188342827554 0.361681452573461 0.3167753360893899 -0.7599692435160461
Ni 8.976186573609137 0.5617677951898653 3.5151132794131623 0.747480624130732 -1.3958058835155251 -0.7294317370488212
Ni 5.377630237640393 5.2420776367932085 9.660670876289885 0.20211596217058092 -0.4735092705807457 0.7122711661091345
Ni 5.07783347560602 8.409152712910531 11.744477126799156 1.772797226973179 -1.4917625388185083 1.9606718487333978
Ni 2.087245294538244 6.417023320795256 10.879938261225536 2.86941412002251 0.00020157448784481412 -1.2791274222841582
P 1.9157249686705904 1.2645504784670363 2.213756673982474 0.7207735471531909 -1.4133955715728304 0.509619900260374
P 2.6592081700203902 5.781856392888727 0.2297606256900204 0.7306501828369545 -3.2140422166581093 0.3191590058302181
P 7.3179063942328115 1.8829212017111736 10.940659967918931 -0.37449351673646475 0.24467697546124312 -0.275382632075216
P 7.935601138306636 9.301867704706792 0.7122858237798388 -0.5638704340738224 -1.2388464632769243 0.26365634477722333
P 8.839404066215966 7.2697241011487455 3.3432803131792386 0.013887813725685759 -0.9049630067523382 -1.2838970757586599
P 2.6444023484705905 8.930576756812101 8.359244795222248 -0.8461953017948265 0.04564993662863106 -1.567192020702417
P -0.13689704830814128 3.712956421944845 2.343981244563638 0.36890213869161625 0.015862935174185584 0.183810993213806
P 9.610827739938756 2.671188023094293 6.475166918041869 -3.6126974182424427 -2.2544527808101433 -0.38292930620864374
Ni 1.2487776311597034 5.316998661503038 3.5476663707635874 0.42166657487784154 -0.2555404005383083 0.33203971844762814
Ni 9.275842506649692 5.727214743288324 1.4984467822754375 -0.38796224064686086 -0.17585214337804553 -0.0007985846418953988
Ni 1.289918474552996 0.41142063911238796 0.13707355398039 0.7209149578270616 -0.05120969010459568 -0.8318308055430383
Ni 7.906402593588894 5.055394722591423 12.259577948878409 -0.6592701884320711 0.4720419420065999 -1.1837870604089353
Ni 4.199154440193371 8.514520966083266 2.4213301611268463 0.29456383298935723 -0.031693988669171225 0.2644341034835123
Ni 7.722611368060119 7.024287330727146 8.778048629050401 -1.4337347973508145 -2.809482476663884 5.034691273007246
Ni 8.086006503701556 7.272080639645258 13.409329325886869 0.02855801414335082 0.14320170433287593 0.8661750873508631
Ni 5.314031864033326 3.7606786736491133 6.94505975538644 -0.5069472385242172 -0.06170081944390663 0.0690246067988295
Ni 7.93370464118992 8.666888548792016 7.434890222815446 -0.37907393701829556 3.3111882642835035 -2.2372919527601405
Ni 6.556115423687001 2.0447900472026737 3.991437307475306 -0.3230323727426953 0.5755869511798023 -0.5336633143628229
Ni 4.677325205794415 3.6788945826406767 3.116180416612371 0.3228950758338826 2.6952056828954745 0.2112122680448943
Ni 6.758214418411788 3.526320450740997 1.669001960105476 2.7789053752079758 0.10415718883590451 -2.094806300657683
Ni 8.238139371420614 9.226233146428296 9.855712460704598 -0.0842185409304485 0.574356935427443 -1.0285888458358157
Ni 3.218571544855846 5.189088380720242 6.589424297304236 1.4457796443304907 -2.1212148725581987 -0.4570282422065871
Ni 1.0684038558808506 4.348451950836943 10.739998367791022 -1.2301432790759719 -1.2260140873989467 -0.338483674300759
Ni 5.372757554454377 6.076433093552337 12.872172805656193 1.2904271635676936 -0.4003672991794331 -1.1683673834197554
Ni 0.8225568036572687 7.790275005288659 1.1723187538374091 -2.4549417489002625 0.4258639007886408 1.3510620036409313
Ni 1.932577504930508 2.9246802119621376 7.456024899347312 2.513081590465788 -1.4193196503667491 1.9792830360766813
Ni 5.401139291007987 7.50196988914963 8.709947483081075 0.6759227093870875 -0.5059612204618641 -0.7007202280467415
Ni 9.290732825595782 1.6093843527235938 1.5576024705576048 -1.0043006627124123 1.4030666788429966 -0.2907372601544154
Ni 7.316591990290535 4.215565712272666 10.112480331968591 1.1605815688267498 -0.2676837207690616 -0.24137542189183592
Ni 6.081906647111965 1.123721484651567 6.458320014941704 -1.4036757731819052 -0.20946186101269088 -0.6911068733266935
Ni 1.0059133370251332 9.209052009182809 6.534061603255499 -0.328832267253924 0.41945285505597446 -1.009272404895391
Ni 5.431370581680375 6.156902780618497 4.7193204117501875 1.3012286250585718 -1.2898820896975012 -2.0115812339887547
P 8.958836441571071 6.834881722644929 7.2147707500420335 1.9281324813447953 -0.9442494630567867 -3.260716223675881
P 5.45133074440382 9.63739747677194 4.316223705032252 -0.5668927658399141 -1.3172496830771765 0.7062889803837707
P 3.9103986712741325 5.864006639281084 3.1251390183389525 -0.9286708918922393 0.12406498350342504 0.9611251557662028
P 5.540550606285715 2.135230427030968 1.8681529345597248 -3.7631185231418938 -4.54988714623897 0.029519349615355614
P 4.094574829386003 6.467064556597686 11.135358868448694 2.597103442004398 -0.7680533060757612 -0.17165044659187212
P 4.124731011261689 7.014326026564599 5.969863099632378 -0.4640293561147686 1.6484954448685998 1.5250274715192251
P 0.7718424052644006 2.381699943407215 11.841338369885476 0.9414706147600689 0.21580194429810579 0.06083281501665653
P 4.081224240772296 2.4049461159863545 12.025346472064726 -1.1875763522480385 -0.4213678126905001 0.735297708911295
Ni 9.02095141644328 2.490138268645126 9.736934470740755 0.6795227680335201 0.15501180959392657 0.6899784161492053
Ni 8.253724446736193 1.0130298955126082 5.546964897524029 0.7984373176842571 0.8834973806793945 1.3349890093384686
Ni 5.779161864807057 3.58846359141197 11.611682896510837 -0.9163589072941059 1.6229942152737016 -0.46454897606366446
Ni 2.245264814198788 2.2124328814406082 9.877959686287607 0.8050733349435361 0.735047797684018 0.8290501574741077
Ni 2.7820673842250057 7.770155236372222 0.3490531109112693 2.366983024201091 2.3654380483114745 -1.0092623775930618
Ni 5.936702565888629 2.6757414938943267 9.050645679219251 -0.28839575650543237 -0.136185678026359 -0.5446185278227459
Ni 2.231510515802811 3.4304722375501893 2.345658048450001 -0.24317313722220701 -0.2441825523233279 -0.07061663387629773
Ni 4.312136847631727 3.965209315667113 0.34860621357089483 1.364124236141528 0.34182173753505646 0.7532648349126769
Ni 8.584334592617388 1.2793656886164235 12.96246672333092 2.012165388626999 2.316617427264346 -0.02466176441273817
Ni 0.6222397651342277 7.765855257761056 8.981540891954001 1.697620998750657 0.1079030290315819 -2.2028252864418385
Ni 2.1167536630423784 7.170420883309665 6.840914836739983 -0.1734813291530238 0.8811859589373985 0.7307453136539221
Ni 7.814882524808016 1.8952202671710578 7.745028527295666 1.1259398103831642 -0.6561982343749667 0.21943902683006078
Ni 3.4789737430202368 6.054153946730731 8.842631866754216 0.5684233435518274 3.4287925797632495 -0.19096560198071627
Ni 0.764826304792514 5.660715292408661 12.890311580059628 0.5451826278563321 -0.036502465801408104 0.5465226868239943
Ni 3.346688374829572 0.3644062878170317 12.6356598991427 0.19576662291378544 0.353031747318263 -1.4609350119146904
Ni 7.443910789299307 9.23649488577765 11.93023056964176 -2.3059524913513316 -2.648455314113813 0.3227886321630054
Ni 1.62579562480289 5.114317573603816 8.351769592230523 -3.529363851020109 -0.04585459644026941 0.31754358171398217
Ni 0.870883681174985 0.6874689384896768 8.673505633781426 -0.8262198871141642 1.6664458586994335 -1.0444800631447753
Ni 2.5221533932391758 8.978327174315131 3.8580656783123453 -1.0126312940652946 0.9702307176118968 0.2140363677572507
Ni 7.353658181462766 8.527082912331606 4.29760423432993 -0.869342172224935 -0.3860655378447803 1.0572566460841535
Ni 3.0433521107506394 4.590771706195427 12.100386731989321 0.5763248577870913 -0.22709808603721535 0.23184639935547813
Ni 4.61461874914818 6.365226416869926 1.2452522120145229 -0.0938357523052384 0.4903679940092974 0.08531254532557565
Ni 8.519572032661447 5.55838894550234 5.122967290403961 -0.27862402183064916 2.568870415300634 1.107914577450337
Ni 9.082747178929509 3.5400559719377993 13.619211469669855 0.38182476029055534 -0.10148015622437362 1.062782718108705
P 7.354634595819887 5.158828924249091 0.5270243435556302 -0.6606611552423267 1.5852326802542118 -0.4147472220501889
P 7.353536129668125 7.009415788980234 11.348800230335376 -1.4201696570718705 0.6052947626568801 -0.6160023788823714
P 3.4675384287224205 4.004322221549463 8.882892998366142 0.9639605683324688 -2.3374510761802454 -0.3046854948043914
P 5.845698870085073 0.11603745774419397 8.346356125708256 0.36571319944067343 1.342659381399533 0.37192189935454656
P 2.77421851496969 3.5799199657871648 4.509548114582376 0.03889307752077173 1.245019424856856 0.12183686550385471
P 8.906710936660172 4.871810046253578 9.014272366696593 1.810448718777366 0.3447517666976579 0.1521851387784089
P 6.642931804074443 4.296288891527693 5.279437691132535 -0.3895488684076904 0.2501516254225692 -0.07986874860218503
P 1.2042099489169014 7.720451990154949 12.262368240675872 0.21340747592400022 2.1477661406841655 2.098722604992953
