# total energy = -340859.77186403505 ev
CRYSTAL
PRIMVEC
9.38609760909631 0.00000000000000 0.00000000000000

0.00000000000000 9.38609760909631 0.00000000000000

0.00000000000000 0.00000000000000 13.73750261220147

PRIMCOORD
 96 1
Ni 6.008932777267765 3.4010337068821537 6.368431580114849 -0.03709844751419417 -1.529891741590062 -0.5591817703489016
Ni 8.473815877945352 2.3811778819431795 12.53255878877576 1.4683624147270131 -1.7531416575257808 0.21090887787186258
Ni 1.8312651935364228 3.8998672519436934 10.458085726296009 0.24197011805304136 0.2778166954380054 0.0662735264162536
Ni 3.015893962507974 1.865214708692551 2.556631266477874 0.6807916074436147 1.5178463803897537 -0.9067195844321286
Ni 8.17063553814494 6.210705718188774 7.024245730950017 0.5295624048205718 2.62384034377861 0.9064089951702453
Ni 2.1768143780741225 8.931819898282216 2.6635914807198358 -1.2078487293438294 0.16894204652177355 0.9602502093604172
Ni 0.5021834433084912 3.289010631574332 8.378929001094967 0.5461329075847433 0.021415232450982473 0.6771774077297951
Ni 4.166291633394261 7.676213458973192 2.6246870446206825 -2.5494125636863383 4.221253368149097 -0.8956959796281154
Ni 6.892164564990096 2.227809046540599 10.187182299052656 0.0774385418941376 -0.9839907475104666 1.8914757493537102
Ni 7.7362657116602 6.344091551720358 0.3812942601719502 -0.6215791016392004 -1.6029470668148393 1.4360683305799977
Ni 6.444400777176135 7.758970681846175 3.394262576046204 0.8961222685322567 0.33005354125553477 1.2441295660527347
Ni 4.06184313888019 4.716082302531725 8.561650979640417 -0.6909348665252036 0.5882362645126966 -0.007870403887012252
Ni 7.7953042658023195 1.8192040580717765 8.047264670792948 -0.23628360919122532 -1.6901807404225277 -0.16367617013714394
Ni 8.144645433785714 7.115844657797862 9.64930446503716 -0.699243386390899 -0.5735907466853799 -0.10847612792623254
Ni 5.27472406174169 2.5325850229394486 3.9874198320998584 0.3768147086704737 0.3343256862683274 -0.17337180015835302
Ni 7.036691696417815 8.73669231448881 1.2865683595870225 0.07893415260305761 0.7371918406102143 -1.125231728572546
Ni 0.8273685504110969 7.1789004617289836 5.247492176664975 -1.9306333933897781 0.5476992236305988 1.0426913466754686
Ni 8.187614988771822 4.142122431976778 10.456876796920254 0.791482997853611 1.0468917579100616 -1.13794017727815
Ni 3.2457876519520013 9.457713562833698 11.900936365992402 0.28861661426698676 -0.8459947557482463 -0.300861750182927
Ni 3.2405220511771637 7.666085859621943 9.78243405810323 1.6212682337215303 2.2117452146392873 0.19028220276044647
Ni 1.4735422403624225 4.425882935764467 1.4471363318778399 -0.19749363290722116 0.8220896669958745 0.8559510956300097
Ni 3.5493809800484812 3.84176730756536 4.782230825634522 -0.8726504106625615 0.8178190646449786 0.5389153067903815
Ni 8.56277731135696 2.4840682842493664 5.955386028853556 0.011642212224618658 1.875739569565376 -1.6237580900229196
Ni 5.4149805187441835 6.084556565935979 13.178880779069761 0.9060377278737558 1.1118763903115627 0.9140356584775677
P 5.693165680534985 7.166266774308429 1.4002227386643036 1.249890894016544 -3.2449486764289786 -0.9046169362668292
P 1.136478088089345 2.1805782032269034 11.636790929048308 -0.6133209753954663 -0.07634119506490078 0.28906655732021186
P 8.747824226287308 7.676297933851933 12.985924199659992 2.1615302843477937 2.4800169467013355 -0.38163295599472336
P 1.75774389073909 2.912262058488396 6.716704610187055 0.47437367546357007 -1.0994458778576934 -0.12919304875860976
P 5.281998287411028 2.9963051767377666 12.341566719601593 2.7116730844228782 0.6183559667162125 1.5883815102958387
P 8.003685019460379 7.470376337774991 5.002786286538646 -0.21737725920502562 -1.614897554308496 0.8259522352750743
P -0.058085865231877115 5.463046724747649 8.725003807100386 0.3018289991922028 -0.15257131847323402 0.03265943790623407
P 4.877645201172156 7.709477789001756 11.548184290127411 -2.7800651998440316 -0.7123482992039731 1.4861081687462083
Ni -0.06995646291447467 8.734082979345485 1.4315572870185251 1.083932869823759 -0.3577708046651451 -1.1138682239306106
Ni 4.7510361301351045 8.688213120189278 0.2573724288886175 -0.7907060104782705 0.44593290362437393 -1.188896613721359
Ni 9.34943554048338 5.83057814995321 3.1207207167568503 -0.39335795774113547 0.12788564280109588 -0.3149118005180899
Ni 6.103065950477832 5.949537551415407 8.285678121062858 0.8547136236784828 -0.5775371329276375 -0.7591596031305571
Ni 0.26900274247168593 0.8707642342299643 6.980643552983117 1.8101232171171473 -0.5661566590048378 0.657670705155435
Ni 3.855677504264664 3.4608982376164046 0.7549660704521968 -0.6730407598536021 -0.34974793436066864 -0.04292096773324221
Ni 5.873744812989714 7.625068612944509 9.766787433340921 -0.5659759104525995 0.5966183179288047 -0.9180514645051802
Ni 6.7366838576189965 0.8801831832095537 3.1969508473324684 0.22897550556558632 -1.365673068685887 -0.44617690131438
Ni 4.928414603295323 5.917014723100234 3.3229507606328226 1.1400268846038495 -3.813088427302117 1.6376621016985218
Ni 0.768887530468666 7.870618313248482 10.313347407671436 1.3285825915914926 0.22060219390022653 0.7382989576314639
Ni 8.914511934238007 8.808711841664085 3.7240581343085246 1.3622581294670668 0.37641284524636465 -1.5458348951828798
Ni 7.844008726445159 4.053480125884859 7.659220867809616 -0.899798174721947 0.5969690164000042 1.3985402517275527
Ni 2.9322826047499446 2.5914076968358977 8.663308987326754 -0.12864308979241068 -0.12079839693701129 -0.17508595463598234
Ni 7.125221369338082 4.083496866130726 12.801387888441145 -1.4315208204186312 1.2339397700039265 0.883302233949453
Ni 3.3836694262521183 2.412696397811103 12.09048579195963 -3.264092596347282 -1.0045212633636507 1.538723738059395
Ni 6.901832245557088 7.295747991222664 12.008871795778937 0.5533445948418342 -0.8719101900624275 -0.8423908404470718
Ni 4.48946436116331 8.790615445418297 5.705101980901048 0.48001056203437326 0.9395006355178916 -1.6477264279130588
Ni 3.7397498123394937 4.857587110520056 12.538754551826507 -0.9625526322413488 -2.4599510291893956 -1.6454054930893662
Ni 7.814057688882757 0.24673234860634302 5.497377315467875 -0.6876567099945641 0.39590026454701494 0.555821595627417
Ni 4.468908807336403 3.327728284330492 10.395800520980954 -0.07458384605416188 -0.5153393192426545 -0.9903465145251653
Ni 5.773707784365435 5.2617243165132574 11.037808660800598 0.37179051598300483 0.1398325307503269 -1.1684190625932975
Ni 8.51766772610942 1.9134874088440486 3.369850274699902 1.1675831969555635 2.0333888167821494 -0.4494095493190648
Ni 2.218103821583055 8.261699457427426 0.404817698071947 0.7038412901742266 -0.36205323409058293 -0.5476899676592181
Ni 8.148596980891252 3.8962911487436704 1.468332956173412 1.5754468045120413 -0.6663985719467361 -0.4475439568652357
P 2.232549025847717 6.074203700241422 10.471191534427748 -1.3104753404678207 -1.931638951836157 -0.7198932014307666
P 4.3092419004188205 1.0447289836792946 10.051496871599797 -1.477800163101145 -0.4463939024211925 -0.331095609366804
P 7.418414901251816 3.9986934739726885 3.4327268041661414 -0.5327240903780052 -0.5605467690172281 0.2907120633434348
P 4.745695440579164 5.033726618792077 6.55719820553908 -1.1644407946718398 0.4888533571369839 -0.9988386111565764
P 8.109381864960286 1.2818030378162828 1.0440719568446446 0.3679148350776825 0.9489535534006752 -0.32258165835852187
P 1.7144176640427429 5.459113949837388 4.386164725000112 0.580827116532819 -0.39969341304086 -0.46795517353173605
P 3.046736679345971 0.860727680025804 0.4740082554191725 0.5914635132007428 1.0966487747285305 -0.10753227595572448
P 8.861377235510101 5.207848116071959 12.184464094558672 0.9403904943220127 -0.19303045492954496 0.9927985756100837
Ni 5.437516539172679 1.7794257762825394 8.352704244294795 -0.4698115100141844 1.5341366329093449 -0.5713747128706675
Ni 0.8888240246949646 0.4334621908431585 12.9964882525514 -0.5447488827530231 -0.10460378945501986 -1.4016636278478827
Ni 3.583246020325869 6.060575086471254 0.8142740055965229 -1.3484945000240711 0.10456599423854894 1.348644138228058
Ni 1.4909252931877335 3.951988252126713 13.016695582155942 -0.8336660589795643 -0.14286360426716685 -1.2974830419732106
Ni 2.830086773668959 0.9942599366805381 6.848804548342252 -0.20328529988833377 -0.3961375773688017 1.0776056420541507
Ni 0.16258504467319257 7.965464829879026 7.6870393839886955 -1.3511262812199631 -0.40572290706439157 2.1965327685649076
Ni 1.0422604400005382 3.3634142275496233 3.6478561620258203 0.5198235802662532 1.5204992446315684 0.43528622254380517
Ni 5.187658620052929 1.5894511600923167 1.6542424534766789 -0.4104820190159318 -0.5381691726529764 -0.5793279062794733
Ni 1.8660782296752336 0.41780524137344954 9.075447841556228 0.16716335735479598 -0.38600691669270293 -0.05331850891748237
Ni 2.9553911771343486 7.256814458220834 4.494416466277043 0.9398168812067298 -0.007716137697335099 0.8783760002924292
Ni 4.546804031632977 9.040032217949069 8.037537857810838 -0.14316442333703733 2.242877674378034 2.1602581025035894
Ni 5.9474819960327165 0.1763891784691886 11.2714145518604 -2.2876372379819117 0.37933824642327574 -0.3881159926159058
Ni 3.065518260719323 1.21012141015597 4.684254984051517 0.4833393692972901 -0.227091401168996 -0.40168524665990823
Ni 0.6364694036035454 4.673103361447979 6.041341095191758 0.3009715362879139 -0.6738964229856781 0.7866876333474967
Ni 7.730821775030242 4.906873509216442 5.392972935612701 -0.13446740978367164 -1.869720874175122 -2.8383708775634604
Ni 2.310021875750587 6.36050783648897 8.095180699234207 -2.114609965647171 -0.3740530867649364 -0.06774162632134785
Ni 8.031045494074732 9.191561378214628 11.535436092315672 3.192511541675186 1.2633922709370886 -0.9583061982601689
Ni 5.966789198873788 4.60105567597979 1.3091719599185094 -0.5409655044511908 0.3652480868787968 0.5801097787508203
Ni 4.3027654930487 7.167646530661194 7.207531813963502 -0.8224017989196546 -3.437374150784674 -0.2469493164351876
Ni 7.020744716531096 8.510215164584961 7.756867257365532 -0.40949368696073346 0.030576587235276377 -0.8656909486255929
Ni 6.328473085250964 1.155710202149314 13.29700951089101 0.8528354328191635 1.063456604247278 0.42230189446899535
Ni 1.1121774813049339 1.777173112849454 1.208391552361313 -1.315395146366941 0.3026334973713691 0.47305855619657244
Ni 2.8288196504878487 6.871139706281296 12.27238460974224 0.5121750625820599 1.7705814502687829 0.26430092033975766
Ni 6.122532716978748 6.516457848741961 5.705363853025144 -1.0098763570279767 1.253061835545358 -0.4142039479522093
P 1.2770442863138896 6.7165976086739825 1.4223814379677562 -0.4682927593768129 -0.6929056170983293 0.8166024186290582
P 6.111466507863714 3.9231260018903034 9.146882614848666 0.8354249506521999 0.4492704526380392 -0.5782650122325976
P 4.854536628787752 0.22654660702636806 3.5743883599850235 -2.4292176046612806 -0.22542815453396015 0.5766711853829166
P 1.8838085681131453 8.407456167645705 6.830904321537095 3.192768137770682 0.3757680125735141 -1.263421067292495
P 6.006820905299248 0.8572557625095607 6.424398064500098 -0.5311590598837304 0.6907464046634814 0.8328042251999012
P 3.298096374087778 4.64756378977537 2.609603585716647 0.883530290799859 -1.4366218890906226 0.05493573280593119
P 8.318184993012048 9.404306667274293 9.210775658689085 1.0676616434675612 -0.24319139205465218 1.0037548175112712
P 1.0904486652732952 1.2678083662382382 3.722149002048985 0.8758833157775626 -1.7367030523537832 -0.22231737681912034
