# total energy = -381173.4414267996 ev
CRYSTAL
PRIMVEC
9.16293897479974 0.00000000000000 0.00000000000000
0.00000000000000 9.16293897479974 0.00000000000000
0.00000000000000 0.00000000000000 13.41088739368068
PRIMCOORD
 96 1
Ni 5.788494194560147 6.381602063155199 5.513859842571216 0.40306052974088 -0.6047275772995004 -0.5288273264267602
Ni 0.2263493294434179 3.0502232237946076 9.238411224896247 -1.1052195471166772 0.003307981327310432 0.15920759284282904
Ni 9.484283111846015 7.734647427923516 6.6017508318811915 -1.9942429998206233 1.6292383964112007 1.483796489893896
Ni 7.091125069795025 2.1508716130718564 2.3743172071948186 1.2476784597462578 0.352205908982858 -0.1441437565311711
Ni 0.6882686536914859 5.353162969962966 10.043895857487689 2.023958267496869 -0.6391919296249572 -1.0206909311449777
Ni 3.365694045340731 6.562450987168556 1.007282783689551 0.048952261528986664 0.2533449355488863 1.1656510129298572
Ni 6.645787915977467 4.518428403985728 8.484746676657295 -1.24655925854015 0.09442684892201803 -1.1467330929794315
Ni 6.795189633869637 5.933167836007525 12.047590514219305 -1.8731751512723096 -0.43559269804063044 2.267544838107411
Ni 2.48715146873838 2.383262068096771 1.6181172737770408 0.8863279081496541 1.088635674616067 1.7384969110294126
Ni 2.028876245269565 5.763571000897669 12.698072124401712 -0.0623983597315635 0.846146450834762 -2.562230798496929
Ni 4.5022008392885775 2.507190815995674 9.658575036820816 -0.42215277048564076 0.36044372351161796 -0.12799620023703118
Ni 8.501988578684752 0.6448115836241937 7.4963642869264175 0.633912683503889 -0.13972917240324326 0.38001470366501006
Ni 4.130506224980334 0.3476070806685662 8.709405443883533 -0.1951485297138123 1.9968115318787478 -0.4192566798847683
Ni 2.485392184479852 8.148372442720653 5.752465519015712 0.20138268354898223 1.1031043005458874 0.03852155311396592
Ni 4.675801878674354 3.2900906369182663 7.22711407780369 -0.13402903669467242 -0.4529054782874652 1.2659019247328198
Ni 2.3956595243560845 1.383860328109094 11.445589097179841 1.1984269218092973 -0.12725932207100665 -0.8007330556969694
Ni 5.681141203034562 2.0264847182306283 0.5814562755578437 -1.548858769610868 -0.44600720850573505 0.1914577111257864
Ni 5.265537785773893 8.013209931795942 12.851640230587385 0.4808865368814234 -0.7772964219405839 1.7096522188835783
Ni 7.756803414054351 0.961338892019319 0.05035126525539822 0.6564746279648048 -0.13610417405614625 0.3774680259837564
Ni 2.8973762408961528 7.984594073778323 12.508253599551518 -1.1560790529707057 1.1153707766180663 2.2914488984185177
Ni 1.8633752438240947 7.845482336210771 10.541560722469837 -0.4270990587473225 -0.6093617336374021 -1.930573229575804
Ni 4.695392241928168 8.505910316511054 4.95608701504992 0.41650894193630206 0.8154906736221182 -0.7815217728758411
Ni 0.5282910717826855 7.785565879093513 4.259646852495125 0.7493032791617676 1.0897913854870651 -0.5382676459040536
Ni 7.840790911521364 4.360101983657066 10.509750663970328 1.715454170277336 -0.7577735214163078 1.2066873620458767
P 0.15868652382532855 4.563161871434337 12.261051253881236 -0.3084611597967397 -0.06700423393469106 -1.2184087642478632
Ni 4.278359406207446 8.548325560431499 10.85223749441147 1.0207598367097 1.5682315177105248 -1.2726307588162211
P 4.597339633331779 5.795338909878482 12.827177932748887 1.3571868855917466 -0.8884189863507281 0.9135733741291685
Ni 2.0389829668172537 8.825742696948112 7.910760945141002 -0.4991238858250565 -0.4527663816064396 1.3417486966598053
P 2.338116268400069 2.045891822707514 9.260284992510607 0.9472440269087364 0.24071284860717254 0.13496800356917402
P 3.657900165155594 7.430978471611684 9.061589412505926 -0.8592575342954234 -0.9780293877207092 -0.8817372034551781
P 6.831364916435616 7.911061489535167 4.110731686655704 -0.08997446957761923 -0.24514388779533264 -0.02534079275763378
Ni 1.494374533536722 6.00858798565306 6.004161369896316 0.5134642137071287 -3.0214146535939386 -1.8948719195194526
Ni 8.507981140690363 0.9847776895886642 4.157911658776328 -0.17876186082567277 -0.18979832114549247 -0.08272061622868335
Ni 1.4214375403185875 4.91828989230811 1.2507090822611897 0.6938821220789857 -0.13179706204036012 2.417946916843468
Ni 5.33870385246319 1.0804204452684238 3.394724984488095 -0.5886039322647606 0.0669129597724654 0.2211254133935482
Ni 3.7176242005570757 5.534708277328656 7.098825603601623 0.1737402392413653 -0.16701860424681558 -1.3308819291486305
Ni 7.558645698559958 2.770872707181384 7.325214333682081 0.6679440620569852 -0.1391604443839668 -1.4886934129748814
Ni 4.442650899725178 5.06062698434963 9.225630757793148 -1.36250032738486 0.25499944043317374 -3.374375695575266
Ni 8.942625144874057 5.12742480854061 7.818654167562106 -0.21572763941674464 -0.34649420331006137 -0.3176461687301175
Ni 7.118815470989146 2.993825335194405 4.590586547401909 1.2079001514070553 1.741501245073375 -0.3491990038357341
Ni 4.5733877111870305 7.851566527604847 7.1118333115881125 0.23654740437557328 -0.7834285029802508 0.8207755761701413
Ni 8.38502366430919 7.046611512878731 2.479712994982792 -1.9299219691450502 -0.3120753595105593 0.7118613322652256
Ni 0.9128028049494123 7.635586896054013 0.9543145830995927 1.7733320164307267 0.08459906419831881 -0.030881520070204883
Ni 1.935395943157579 4.087422086524094 8.274558022457446 1.9945728723562164 -0.6369743531483482 -1.4222309104762731
Ni 1.6750768505285343 0.9503067136481339 0.18362895965938428 -0.23161500007096242 -0.818957549124796 0.5082155637136795
Ni 4.147952460544069 4.111392334546537 0.9012758278805162 -1.0068080025152983 1.6727959692871772 -0.3605259988127791
Ni 2.8022099580364115 3.941813825314374 10.678271770059604 -0.4537488001243669 0.03271034574882754 0.10407234243158206
Ni 1.9637735647651875 0.36111508511607543 3.3657169526878477 -3.446525478266639 1.4970343287404089 1.8058410448020255
Ni 3.6815313844407154 1.1433056945719482 6.228378483470153 -1.5615078258334463 -0.7362081365407063 0.7250449208350352
Ni 0.9804344565754235 5.558788480617256 3.641458187689435 -0.04668120610662283 0.7914341468935466 -0.17370784334153308
Ni 4.738082374014009 3.961303396240878 5.045779358242762 -0.4532325226095808 0.7291124060361895 -0.9961338106309038
Ni 8.804136487148066 6.652999148849661 11.367416400704816 0.9751685212331462 1.746492013419747 1.591967427874884
Ni 4.71643034951973 7.294258261083068 2.9550486942899044 0.02252543479602572 0.5442734857785014 0.036097774163821705
Ni 6.908663468544685 8.218249014364055 11.299128682657395 0.8196041815698595 -0.12195976423496414 0.2681442053452479
Ni 5.660607057079557 1.7741007306426522 5.592514509629566 0.48917525925277683 -0.4940531561703685 0.5243818890608969
Ni 6.949750086332387 2.4409702569520237 9.515601120529466 -0.10155163289225737 -1.5368599453777791 0.8514642635032497
P 4.430436702242795 2.8597898657478127 2.549315594754685 0.6698960435770334 -0.3478535455514332 1.2318903436740656
Ni 4.397431796517704 3.0540350063547517 12.33015722236765 -0.6603911894103917 -0.3751576326830249 -1.261073907216557
P 5.917105204209611 1.3220471426506097 7.718555474721294 -0.21396180576557347 -0.26693193020470163 0.47086900474442134
Ni 0.46687280898848554 8.861487321388305 12.144081758036249 -1.1749252391429312 -0.10508407152554805 -0.8222796715194934
P 8.302373955913765 4.705004164778146 2.4178888139976915 -0.25284896974907417 -0.11644140551989625 0.5134801545467286
P 0.9078502365028794 0.5241906566488772 5.5752414536100305 -0.01779949007526612 -0.4016921886384437 0.013227554433867543
P 2.48806776262303 3.82490388857189 5.824683221534396 0.5182251254308816 0.26949274895334235 0.5947437266139112
Ni 2.896295014112266 2.3503304658824526 4.1467402037346766 0.922116121492857 0.6504759871792087 0.8672487800310161
Ni 6.462382532025937 4.125402468042834 1.0971785441247863 1.5665710992889663 0.7575634622880307 0.09967087092977674
Ni 5.73867529605173 1.2405244757333058 11.398825122482847 0.17911153085560766 0.15463128632605627 0.005804522496919036
Ni 0.22783006036101217 3.599733829358016 5.723310880193921 0.3730956079476736 0.12820317404151468 -0.05675118874811516
Ni 8.5887616095611 5.7114796935553205 0.5042117847879701 -0.9033013027791991 -1.0591145252284986 -0.6178687426671488
Ni 5.942358263670563 5.254963754345033 3.2590603445145963 0.575484621273983 -1.2367132189840055 0.7330996728187116
Ni 3.3260643348296224 6.366455725241936 4.67559846143196 0.9741513928225416 -0.5217063991112628 -0.7799634272497858
Ni 7.137874383789864 3.0242371292259356 12.42773519073179 -0.9928106597949418 1.1995702913851212 -0.2671101076537787
Ni 8.936376020580743 7.931320747324777 9.026183816803053 -0.48057414784732716 -1.0671510223797298 0.1825447249068727
Ni 1.8766065275184398 3.462088162005904 12.963687395684033 2.3232686140322767 -1.0224251402272648 -1.405722885518921
Ni 1.7819991839283347 6.378559967458162 8.073381118613131 0.343202419932667 2.088808945423667 3.1590391209493527
Ni 7.884553107452245 7.77837297209901 0.08748590751860588 -1.1686772013506905 0.9069409564143155 -0.08652379202485744
Ni 7.131909310600793 6.630302549326883 7.513825183192307 -0.013394419029034996 1.2645934903340414 -0.582214740908965
Ni 8.435126613921847 6.19526453877279 5.29813219183866 -2.1210996871365726 -1.0254927234089952 -0.38411587031757716
Ni 3.5349151999578803 9.377168356730438 1.984114372710531 2.508445377245357 -0.1953570461801926 -2.69983161170326
Ni 5.615048925134762 4.3211136788652125 10.777123386923408 0.34976258964868795 -0.8871105519519495 2.062738987809493
Ni 0.22672042846670112 2.8435256492952767 0.9264134343120023 -1.9154852248944303 2.6538546307525133 -1.504708814566531
Ni 6.355762575608071 8.724657155593531 9.177136820241937 0.6820625037362382 0.437423323491466 -1.5653793929737103
Ni 0.6239869725077549 0.8298067374655911 9.722879625351665 -0.3190137385016054 -1.0966518600523243 0.3796012702766753
Ni 0.8569968421986931 3.3427042317748645 3.2196587911807644 -0.9662555350142327 -1.070804302861601 0.29931574585204584
Ni 7.095789005667893 6.294453351786144 9.767537956701732 -0.6131011460751764 1.9217844276395806 -0.26070394701711874
Ni 3.197233414647842 4.686733264718227 3.063060501118553 0.4470076247457915 -0.364270810567192 -0.2805196961914653
Ni 3.9183017242342566 6.311184878119852 10.942224884235172 -0.9575238115681896 -0.5723329630188788 0.8303336521722215
Ni 6.756183003200091 8.866691870653117 6.328315908587268 -0.18322221058987154 -0.9067314115066706 -0.4984607983197609
Ni 5.975271540007189 9.094986492013646 1.4600831511975831 0.94569570858501 -1.5368535176198757 0.24342536244232915
P 2.421471523086673 7.581635512125825 2.735177562610961 -0.2121820881573314 -1.593711150038868 0.5431056907226453
Ni 0.08881086847580967 2.3511826191951775 11.916552242069404 0.6445783907478512 -0.9119204119067779 -1.1896568889261512
P 9.067534327229534 1.3229267847798738 2.056076429235398 0.08834567572494463 -3.4254488601019975 1.7257560664239764
Ni 6.132608362940427 6.462492487292095 1.3628011457581848 0.1407262462091899 0.8052448275243937 -2.1749347306791575
P 4.190340215647974 0.817580628162707 12.89902087106875 -1.4061990538243911 -0.4035585524232211 0.34994616641440374
P 7.853527396517998 0.9095380498384046 10.893596251482915 0.9298605413249663 0.22382455749226615 0.11374663229655248
P 7.223282136778084 4.601811147488871 6.1783021063801495 -0.585273839450263 0.4402600216093127 0.044604783193568344
Ni 1.46035254159967 1.78554524126193 7.1960810365183665 -0.0799754493833784 2.0822248644482464 -0.05849028292640895
