# total energy = -340872.40895478614 ev
CRYSTAL
PRIMVEC
9.20353093617162 0.00000000000000 0.00000000000000
0.00000000000000 9.20353093617162 0.00000000000000
0.00000000000000 0.00000000000000 13.47029783224807
PRIMCOORD
 96 1
Ni 0.8619079144495602 1.3424270275464079 3.0902613112226285 0.6844741985015244 0.17380580237197807 -0.4952196656746439
Ni 7.726005313116243 6.003812987080547 11.898798822185075 -0.1521699692697573 -0.25763584961475633 -0.8701734098769788
Ni 2.361165870814692 2.853932122575711 5.343451356676191 2.647977088925814 -0.8409559077727581 -3.1618321103134575
Ni 4.679397269645947 7.107233518820342 0.7917843712692393 0.7251241108124028 0.26352136186125585 -0.06396159045362533
Ni 7.85987067110104 4.134759917327877 7.772968170606035 -0.4003585574286847 0.3851929054318398 0.734779888734612
Ni 1.5198619011516954 1.2236278497624435 9.816977603073289 -0.46054345444869715 0.49666745386476396 -0.5078946900391511
Ni 3.025587178730709 1.0359862603094327 11.775976781013338 -0.9569471131291132 -0.40531615854427616 -0.41533317646064605
Ni 6.892487530655387 8.358131430852222 5.522054158361799 -0.7103623791221959 0.26800870820864814 0.5857705765810234
Ni 2.0297283134583144 4.1082537481290995 1.2884593626339806 0.20045760063155155 -0.2999695773859608 -0.8225300969674028
Ni 4.843063660917426 9.25810791046043 8.298996903652228 1.3538483081368167 -2.0492034152169034 -0.6086209988166357
Ni 5.552168111701521 0.6775795961463964 11.721974142683218 -0.21223968086814415 0.9967745295386963 -1.8575495289199104
Ni 6.897705932716396 3.82948799852432 10.999481315394448 -0.503207826086443 -0.6345680576997007 0.4988940292024376
Ni 2.4550142761341127 6.5903356088512695 0.8071818785850569 -1.6745939417278644 0.39015667719501834 -1.9420593758385327
Ni 1.6664189283466013 6.073391681227338 11.321259766995924 -1.6140462620517946 -1.6008099658671784 0.19756870911953073
Ni 4.899002722164012 4.271091821613116 9.534492706602803 -0.3964491950719495 -0.931823321478292 -1.2795074313313963
Ni 6.521796913704292 7.875765169089334 9.901235008766998 0.7287910181410288 0.8790838249927312 1.1827735315427566
Ni 3.2412351129309007 2.0341644153867207 2.832076497576983 -0.2660320440982515 0.3435479761975438 -1.027313578667818
Ni 1.6517669070394994 3.124828853199604 11.802971657706715 -0.33329853055539377 0.11573229526801358 1.4290384203164097
Ni 8.045524297864143 4.962838412984401 0.7831036008566398 -0.8413863104419573 0.9553699984499805 -1.6708236760521549
Ni 5.497241438861832 1.2607088760478165 4.641447430036837 -1.8597671053965197 -1.3470279427808736 0.8728157325958323
Ni 7.917401943205747 0.40189979047646057 12.803221527605757 0.6031885149471546 -0.12078348453867585 0.9870061372980227
Ni 3.945047533406212 0.7557884412854414 0.3438411560470694 0.33488772941938455 0.6180695458240452 0.4998808185957391
Ni 0.3533097487108548 5.511516115399091 2.542424811538761 -0.6305473665760818 0.5671151662633653 0.028558528363983073
Ni 6.304731635734445 6.1802354722789365 4.642403676904807 -0.30535963805328054 -1.4856160596011383 2.038538736414205
P 4.121479222135573 0.08406597224949708 6.145580496757731 -0.5532409793844343 0.27926422651780936 -0.03245657786680862
P 7.868816503205627 0.9919197540164655 5.235272133280584 -0.1188800968683759 0.6014257666197772 -0.28854873714352886
P 8.079319663592583 4.844876756518869 4.276092099990094 0.014925510961580747 -0.022089118589555506 -0.14394269626395856
P 5.78055373276668 8.042109787873606 12.3943040447633 0.42839618029219123 -3.5248867890853615 0.40516343501649577
P 0.7341408160866761 0.24592755109740552 7.952513413863155 -1.1367818953039908 -0.44677648257159186 -0.5661412323858701
P 2.343550312534671 6.08134353198697 6.710915669878276 0.5075182805363389 0.25644722862329383 -0.3681470056931466
P 0.8686430584147216 5.161441407824822 13.170247298523881 -0.3151943647555152 -0.21119529876402982 0.14630605428981253
P 1.4026457306948803 7.803305769748371 3.6114002082635053 0.5304175537320155 1.159766529124622 -0.3932252888180131
Ni 0.46733505497974764 7.834652996238314 6.271554747287308 1.0594233147181689 -1.2765475773721242 0.8529709299557633
Ni 7.0801751377632565 0.3036741858268528 3.0837286449388466 1.2540949047955627 -0.29617282934768996 0.3245418674086863
Ni 0.11585772928537777 8.965187130221025 1.6828849656082445 -0.8834904387008591 -1.4135318400403785 -0.5241137230011748
Ni 4.666668786311951 3.5826769084536223 3.6865645253570802 -0.12746912408896757 0.9162100404210672 0.665778421864234
Ni 8.338831626404362 5.732465283439037 6.2465137802192405 -0.8278653931373872 1.1233759063107298 0.0656592898710224
Ni -0.1255444456331948 2.967917853661425 0.09562928856246368 -0.301933385980551 0.7804971882660686 0.5395591110219675
Ni 8.546757798119215 7.36161911488083 4.232394655289095 -0.4887458850248421 0.2450808957678811 -1.7666520333073898
Ni 0.023226030760428597 2.642950378578221 4.675702051960771 -1.1311370383133874 1.855908907992694 1.298219405918603
Ni 0.9196803190657284 0.561216593010667 5.356773467757867 -0.5443593606240883 1.074923210125981 0.376309486899281
Ni 6.482065270499041 4.94332692732419 2.5602189183196344 0.5838864721844331 -0.9433320934488398 -0.15571526341885442
Ni 2.6363330398094984 8.933711054297476 1.9917582260810658 0.03093628456754027 -1.5443845358895985 0.8439041917678047
Ni 4.780240358503934 7.26604044573871 6.338637443834547 -0.10625340924330087 -0.9460435788427319 1.5158717731618863
Ni 2.8528645129829826 9.357782150884999 4.261584574119249 -0.06752719631769662 1.050945616264461 1.1302752045337243
Ni 5.400650381312816 5.815066973910921 11.09626564709387 1.9926129204163683 1.8062861027592443 1.079726030831263
Ni 1.559722393790551 1.5795191889108877 0.7733423359079511 1.041118088651078 -0.010829486515336188 -0.6552027032309168
Ni 9.041042632490582 4.321978144356185 10.177120053177605 0.28536828253301816 0.3743767886529423 0.7807334726465909
Ni 5.75060544298445 4.9100653663921126 7.010953540618172 -0.18210738025913797 0.28100306358578697 -0.19193156543841136
Ni 2.1198861028580445 1.6814943120784058 7.26480073011681 -0.4245084152020109 0.10593896332667561 0.42954546340528604
Ni 8.435919674625856 2.117263096531082 7.091330737654173 1.3996653664709313 -1.4933324544087894 -0.9606690420653907
Ni 3.44366677665559 7.51070711309298 11.763113005774056 1.3691216893561196 1.4466021402317861 1.759727024052782
Ni 1.06003508673874 5.787658858676907 8.500943541294705 0.6892672490147935 -0.6479496212129293 -0.0559582605331746
Ni 6.40874073924673 7.310585535642212 2.71469650426887 0.23832172266717663 0.9380014252645458 -1.8601412009064868
Ni 3.405996724388022 4.216432051171609 7.620282512137009 -0.4168889509835401 -0.16439890723578138 -0.9984781424933642
Ni 4.880531235503614 3.6571242704844935 1.1801181570932702 0.13091054567034874 0.519493450620344 -0.45974615535838237
P 1.40720147852592 3.67738124215342 3.2730664451499596 1.4620809525936753 -0.853110540857421 1.5335301096735978
P 3.4857821343825366 5.917115725326213 10.32084791495178 -0.3821970560283095 -1.677441952699621 -1.558570340471677
P 9.160053491486897 6.992907257088671 10.278658928977059 -0.7514223823872994 -0.994852372815319 2.1215090067598497
P 5.597495501737624 2.1763313583080794 9.99300801785228 1.1310208244504973 -0.2293786545412759 -0.7754102606614646
P 1.7793002357156997 8.648806549534507 13.543172532794927 -0.1520082468809124 -0.034269205595515176 -1.0011155801162113
P 3.1867410060468866 -0.3555968261573465 10.136829755642367 -0.05458323456251891 0.9398806445651297 -1.853099720678673
P 8.192486280421807 6.9733221431806856 1.5752432284213904 -0.6588174171653686 0.742761621388508 0.3325644806028466
P 6.158634785088128 4.632192359291598 12.963073975642521 -0.37835762767756126 -0.16101482125489688 0.24347292785081293
Ni 2.6050318309744145 5.854853838302002 2.8677723924511005 1.1327892292048298 0.21835967772295295 1.5790093250523192
Ni 2.217765654743112 3.7763468106931604 9.755001025509202 1.2508889962637555 0.5109465894915975 -1.0452817331104645
Ni 8.309187053144202 9.225711481439701 10.716659569690396 0.18841763874788198 -0.3810835112491566 -2.065120857778108
Ni 4.850177990358625 6.8115148651655115 8.814626567053386 -1.15288034352775 -1.0487799760717098 -0.8501108347991487
Ni 7.052987907272566 5.6240476885912605 9.342095652696665 0.39391203047239254 0.6979586061412044 -0.5213035072458893
Ni 9.124196534820774 7.3696814080121245 13.071159323022215 0.901291471438022 0.04121992588173546 0.8739364764638369
Ni 1.190504341794944 6.034055789853874 4.762262181103625 0.4975138610254593 -1.5343649468700673 1.4769144180620821
Ni 4.4440169650422225 2.8554875193099445 11.69438747894835 0.05705072226640497 1.6997331599976535 -0.20995834103313515
Ni 2.7747633491563075 8.071036485717965 7.9500753985087265 -0.8407101103105392 -0.1849188815660041 -0.43814014705283255
Ni 3.792259715743399 1.8096534808606883 8.821658064715841 -0.8413809111253187 2.5486612873426107 1.7037258260968142
Ni 3.8194653532960325 5.11535012471806 5.155810687576277 -0.8070484563920358 1.221096081272039 1.170575703924984
Ni 4.597329383970428 7.9540319964735025 4.172357261700768 0.769084832664069 -0.06255056903871163 -1.175555930748395
Ni 6.095655022648117 9.205739819230901 0.7343672229485824 0.7900161835000975 -0.09983516442178289 1.1677546895364213
Ni 7.902216117102281 2.0853452511208874 9.579684804733624 0.21847871979932051 0.8114239597519123 0.5036852799434938
Ni 6.087307420056697 2.3569230430366934 7.767485627206136 -1.219512024614371 0.5860796231810099 -0.2921991894119226
Ni 8.819228332539286 7.599659239935405 8.38539505064998 -1.4985908745942513 0.7666543688457054 -0.6925335784708913
Ni 1.2164398920734698 8.5125298664351 11.36571190123661 0.948656848095863 0.23109126635700844 0.1336135464238086
Ni 6.801317352848759 3.076178988482681 5.125192380739301 0.35091804340936983 1.2401829227001608 0.9026842380204906
Ni 3.891363337247716 5.297856143888807 12.687741143090221 -0.8763725967091551 -1.651357082687111 1.346076891721514
Ni 7.306204654899636 0.3507217158015853 8.191220794913185 0.21208824289194442 -1.5975310380055907 -0.6548723164746915
Ni 0.9851919728760815 4.09458650463598 6.355825037924379 -1.1934685493627575 1.575973366439473 1.955770297666722
Ni 6.361821138352505 2.4731176215556387 2.796851823488622 0.530040630008571 -0.2991964466653621 -2.0203803203376234
Ni 8.523546493008341 3.3493305841946643 2.472513869923889 -0.1410615180614216 -0.6228605394547854 -0.1438467941160426
Ni 6.463069182573252 2.3418844734287756 13.047128903654851 0.7151042646825555 1.2707055167690504 1.1026034496500687
P 4.665748433214771 5.93204385256247 3.075820971127878 0.10138631095898669 -0.19059124936043303 0.19506342619917375
P 3.2782701215614143 2.8940227034888615 13.492927696160594 -0.7429071458274367 -0.8749579757498156 -0.4280675933081789
P 0.5639822540676921 3.4494557976368507 8.386284111741855 1.3314342021076748 -0.5511874392895153 0.16921715456003114
P 6.744273867885557 7.37805662119646 7.502619050074964 -0.4156730762985679 -0.7449087496384977 0.600859609703662
P 4.574099671797611 3.0234427560142803 5.969685373884024 0.2670193477121853 1.0170571910471322 0.08573626312655556
P 4.819714302841975 0.40609015812792004 2.4905638348657786 -0.2522110790547592 -0.09554733567970641 0.6689331654431317
P 7.850068910616075 1.5346795860162896 1.2208207728160452 -0.24506366937670054 -0.24515700042145522 1.4507056208771985
P 8.817277183973264 2.1255922920605586 11.716101369570113 -0.5359688225675479 -0.3383039541897851 -2.7184037182784926
