# total energy = -381169.46931102744 ev
CRYSTAL
PRIMVEC
9.25197309174175 0.00000000000000 0.00000000000000
0.00000000000000 9.25197309174175 0.00000000000000
0.00000000000000 0.00000000000000 13.54119782353341
PRIMCOORD
 96 1
Ni 6.5539588311288215 3.776405539330088 2.8098389764717675 -2.238710687484538 -0.45972455809182766 -3.347336946289919
Ni 2.827717488926539 7.831721054059442 2.4876399450154576 0.10013392660912432 -0.7172012564209003 -0.14294356557548285
Ni 6.3056081222572455 6.083810575642549 10.903913600404803 -0.8436823055649857 1.2011456062920411 -1.2428224172055369
Ni 2.0784834705556765 5.50755144283079 7.901627110986457 0.9605721114762102 -1.2944599388761706 -3.1233262409287756
Ni 4.470562562956976 8.611088748204052 4.0662726262488045 -1.3573815181010558 -1.3701426744214662 -0.21088779482594
Ni 4.05647201134333 3.9132237147498565 3.3003693282827444 0.0975733649707997 -1.3333131642979426 0.18352148699784523
Ni 4.047765904833321 0.870443190291125 5.911247402878024 -1.324628492039751 0.6617716146976861 -0.9837344085252864
Ni 1.804708340122462 2.085866544939297 13.31113262127898 5.212819871124293 -1.0915353647613655 -0.6122909914690553
Ni 2.4779836608874066 2.7980279078525574 7.1216811685348596 -0.2675682782371198 -0.8447346580889 -0.708009048398671
Ni 5.569502653448234 3.659627137237288 13.276196246366712 -0.41616904209838007 0.06887188327104912 -0.6129551074156153
Ni 2.780504671157599 7.0532137933956305 6.406124331562967 -0.8041659926379182 0.28040862453489773 0.0025253375250150058
Ni 4.50298147603994 4.254482735601775 11.027653186916444 0.22679392453323519 0.9161527048205705 0.02097814491356387
Ni 3.658109813679752 6.296661464451531 9.357698907057127 1.1060163319863596 -0.18874853972473946 0.4318095768491144
Ni 7.352367085525925 5.7798555095710284 1.7526909728204219 2.4271236982467297 -0.2786803289898814 -0.19745403791853736
Ni 7.364662957525714 6.88752946249103 4.393739731081096 -2.155267077046901 0.08029915127138429 0.9224537073379339
Ni 6.178772825609315 9.040741118255355 5.5532043779668 0.8660992398076052 -0.10950791162485657 0.29295252263817934
Ni 5.830528565208983 8.483642821343942 12.134700781270316 0.580743041459445 0.6268092396898883 -0.15179921619389986
Ni 4.89448796177587 1.5054717802359603 3.2288312233340872 0.3432188749928992 2.2987397756529764 1.34950005847045
Ni 3.13417983965716 4.724732762790077 13.066930497061056 0.4119706877463163 -0.371692814062876 -0.6973286858666894
Ni 1.9332089918945183 3.9145189909575095 4.983499342765762 0.32440277072766066 -1.4081592628745556 0.45489731190651334
Ni 2.836895446055049 5.19550090046144 1.9707044625141894 -1.4928781404801903 2.5118569740300676 -0.23363948670015894
Ni 0.6153163364589438 2.890288581729074 3.4471555793176916 -0.5944771032160858 -0.944157931784245 0.20038946639777747
Ni 7.508734679708338 2.5367059329586312 8.622113399125759 -0.357116716020914 0.5181420787987722 -0.8545439308698379
Ni 1.4156906350998069 6.65684076990809 12.338942709284863 0.4335756676106017 0.5541863740168391 -0.34849375023859336
P 4.275225658870042 3.0535118878391345 5.2344720607605435 -1.3870561623473532 -2.392277279991506 0.8938339867187123
Ni 8.881366632876604 8.806268368751486 11.54460254737708 -1.218196648237057 -0.3396730666231698 -1.1600997440943246
P 6.4488841747694545 -0.0514418945869257 3.42841478298754 1.2266494069901004 0.2830370632966803 -0.698665402400242
Ni 5.598886919416127 6.488464114886155 6.050924437927541 0.5115849944065448 -0.3201887326463131 -0.15340872677286485
P 8.716968326206747 1.1314515233033406 9.858763555225485 0.720425676895469 0.43466864356446433 1.5624146539184318
P 2.3027975538023835 0.2498578552589084 7.164322586488076 0.8235577669009687 0.6803792024965444 0.9660611596152394
P 7.689916065240211 7.7966190688320545 6.550121112765004 0.02839269221008013 -0.22414825938027202 -0.1844432274811662
Ni 0.7540903789522684 0.05347640343023157 -0.09355872567604336 -0.003961041530277049 -0.027052376132101798 1.5621940532671934
Ni 4.5204399489245155 8.262927755559927 7.040731956740315 0.0936478046641484 -0.074046228383137 1.9597380240652185
Ni 2.2474985117085264 3.0539652345118125 1.682439817303797 0.6802213367624415 1.412442977851574 1.4946403745869357
Ni 4.3498058125121 0.6854148344225238 9.012019293547947 -0.4987433625571862 -0.5797120290917693 -0.30639964928202074
Ni 0.182535874366161 3.966126495859556 7.577220558793391 0.3228593374999408 -1.0973301170662715 0.30222700596156976
Ni 3.7942896029686066 7.360212758555137 11.639268734210665 -0.1489746022609112 -0.8293291221671072 -0.7496372654624187
Ni 8.072882979978544 7.407592111836488 13.41393776868308 -1.384648581347125 0.9943656629868874 0.23792268745654507
Ni 0.543039924071925 8.379197299142577 6.86985541863761 -0.38798100969993826 -0.6735087006289562 -0.4762066149072509
Ni 0.3253447022463235 2.0250348230441806 11.907845181064737 -3.044953874366459 -1.153785886061155 -1.8595950985950296
Ni 6.91059463096016 1.7486506362498369 12.266699604000326 0.6277908868768671 -2.337648536903032 1.4391989057891794
Ni 4.823886156485889 6.087835183859186 3.8689095400941858 -0.2644204766367575 0.403472420467318 -0.0767217183327711
Ni 7.597091021016073 1.9953082340785517 3.6748373807042953 0.4420595367118968 -1.6372298992571093 0.3970246079594453
Ni 7.630370367579836 1.5347820304205577 6.241083937973028 -0.23162374182171075 0.9111642504670437 0.15965445057226052
Ni 5.9248986889093915 7.4299171224726726 2.2571955045173886 -0.7822038865445303 0.31651385489788714 -0.015040696383206355
Ni 1.8370439854492195 1.1402038896779079 9.45566897341752 0.8612894771237877 0.39482554342559745 0.09514675780717807
Ni 0.8779724458467518 4.103879120543418 13.32763906615093 -1.0702800549270148 1.3225070748213739 -0.2387413267030985
Ni 6.900361948919704 2.259304029143989 1.0912618781717518 0.3805430653646543 -0.4812459771033712 0.5111826167618035
Ni 2.2839420330081253 5.997739471644031 4.312925598091064 0.22898527575759917 1.1842352036899475 -0.9294507074810574
Ni 7.096152199679316 3.608963333572245 11.055047353511005 -0.4541311231644502 1.0958741013460354 -0.6192818209645916
Ni 5.212617050348277 5.182557390357824 1.601964306522337 -0.9090402621455054 -0.44666309692217915 0.18090101865586264
Ni 0.03602348172940305 6.760573890195245 3.5010770026449807 2.8884490251667736 -0.6443079106952839 -0.6688879140274931
Ni 2.5916811560005755 1.4087053955513942 4.044336198474915 0.8102291681128628 0.8293090675624492 -0.31130428567248963
Ni 5.253362739051866 0.29354104536199466 1.3955426136897695 0.2525707763870231 -0.5808114328035352 -1.954208866716873
Ni 0.8221284625483894 7.261475703640356 1.0343779731181026 0.8351727254320778 -1.2896267791535856 1.1697110419318435
Ni 6.580086402631758 0.6301231939069962 10.168504805156049 -0.21047821809234718 -0.1478263475890809 0.8700253143348888
P 8.834662673617816 6.7394701399834185 10.248641693728938 0.6411670510734571 0.682441998562844 1.236463821977361
Ni 8.614077135454565 5.643490680823938 12.204261739607722 -1.1387310486105613 -1.3693530886406353 -0.9402969061669418
P 2.052448418781858 3.3320055244573696 11.261360798260506 0.5739740981667276 0.8692773804252707 -0.43561609507939814
Ni 3.1602241434038905 3.4920554038586804 9.183193745178412 -0.15614900852216332 0.09877252748522344 0.9277308965764732
P 4.380559370470939 2.47308011524415 1.206293507778803 0.8947459570100202 0.8579853524512192 0.4823669780816918
P 5.62766055517184 2.8194832330350326 9.513436441884245 -1.4209420164615205 0.969301263819092 -1.3610540818566363
P 8.00426109689169 0.402074089195794 0.5400839187266034 -1.0211362462125124 0.32275880736633444 -0.8394962925080961
Ni 0.11001613509156169 3.265974193785819 9.998332342191933 0.7686294902942054 0.2157572071030994 -0.9405205921419737
Ni 7.757020624769531 5.11876503713093 9.48544644823416 0.6645126677779329 -1.1906611618209493 -1.9091875648111767
Ni 0.4517682860996798 4.732707963440052 2.062947557642174 -0.1837603424815287 0.7634664580360272 -0.11661521209359917
Ni 2.9662842872266384 8.271939177176025 0.05368272242616481 -1.0864324963171612 -0.1835795939292903 1.6315881275902997
Ni 9.377244625030606 2.1723817436375836 1.2553502437490653 -1.5472343466335676 -0.4042815466321747 0.5389975820915427
Ni 7.254314676606619 4.555079335506313 6.725005605533103 0.8987288529171683 0.5342184155353444 0.8097925947960762
Ni 9.0417958431673 6.353126255132275 7.829182312692443 -0.5502888387346458 0.42394251539621186 0.6260978154451604
Ni 0.31062851413280684 5.507903017801439 5.7347512164286885 0.10470714780210355 0.29911160026103967 -0.7157940916607285
Ni 8.173276138044539 8.441111501868376 9.1621094241097 1.559045737446199 -1.1607661740337298 -0.40796362346945225
Ni 1.2030617936407095 5.358825978273528 9.796744805205783 -0.3166637502121901 0.007859348143418722 2.782503119861563
Ni 5.379911224539532 4.673920927558445 8.209174718139634 -0.46301145637321556 -0.13083958322309724 0.5091100505034909
Ni 0.7202059533600745 1.3619736803738682 5.491971120447311 1.308495333923314 -0.4975801954870205 0.2591214330213473
Ni 1.7328482665164742 7.7240373413389465 8.965531830455294 -0.062100625985486595 0.5733565191873868 0.163402347650467
Ni 1.7946236896485948 8.393880180153612 4.766975420710795 0.8381719172697177 -0.18891668987148752 -0.06899375356089409
Ni 8.001124678074587 4.621804564146249 4.015845673090304 3.9572915763163135 1.1465855116579737 0.9405653293369801
Ni 6.111020627976168 4.0150046687526215 4.909063519901127 -2.1054570955033096 0.01680370182090009 1.6082993322656882
Ni 3.84321403572623 5.015540775353924 5.912736970516824 0.21973727479676997 -0.3304672317541857 0.9855830316982509
Ni 0.18953776746581485 1.2363781480961185 7.877956863488895 -0.171356312390221 0.5941359178265831 -1.0034308585129494
Ni 0.9408516293472506 0.19738066490315176 2.9409588617751554 -0.3615858075358611 0.3147593341006257 -1.424682200230243
Ni 6.600015152283785 6.809933165679724 8.173331649882009 -0.8272904944705236 0.1691225379636958 0.9160022952856353
Ni 5.0307972786854895 2.30380601884977 7.329484180923158 1.313095551699487 1.3382111158201921 0.535538934118981
Ni 4.789709368549682 1.8484146601578275 11.128968766681744 -1.3298660862896066 -0.07703744980097701 1.427145317058755
Ni 1.9676540870451675 9.258449292843032 11.510762531254862 1.2441876729841799 -0.491072990496122 -0.702946289163783
Ni 6.556059028979801 0.13377612672636752 7.962061923243656 -0.9088487149599896 0.4842770506202111 -2.067226334156885
Ni 8.63783620189208 8.955521195764721 4.642368924337317 -1.6092318713822868 -0.6519908811618385 0.07474891087711642
P 3.898513077820087 0.474418040985069 12.507340643844495 0.6137691186764784 0.12048395102038603 -0.4336630851180854
Ni 8.216112772626195 8.250169284914548 2.1255482567580275 -1.1026507579482365 0.5356569477540839 0.6177219326766394
P 8.911296765246293 3.137020195341084 5.458740809339982 -0.646257578222487 2.129063679178656 0.4037930370315304
Ni 5.667767857744513 6.1430602101697485 13.002244403250883 0.49873307814454104 0.008607539163352919 0.7781489997488663
P 5.070145919479396 7.926248461299353 9.896028651719652 0.6883367667807243 0.03385165844212234 -0.2116886934606806
P 7.978596124034343 3.5497784628554303 13.015622756081353 0.2825896913466166 0.08027729689451336 1.0174300010055186
P 3.8986333534679405 6.462132999979159 0.5461892956511034 -0.6947395849832745 0.6052112018041383 0.2557964824131724
Ni 2.90585040016673 0.928796308643169 1.5907518405505205 -0.3429183130333449 -1.811458905209435 0.2599817241391135
