# total energy = -340860.4413232629 ev
CRYSTAL
PRIMVEC
9.31478177825988 0.00000000000000 0.00000000000000
0.00000000000000 9.31478177825988 0.00000000000000
0.00000000000000 0.00000000000000 13.63312468505523
PRIMCOORD
 96 1
Ni 0.9337230107217516 5.9310380733323065 1.8601031791997908 0.8872812732018589 0.83234605461656 -2.2025758894351934
Ni 8.39035462504058 3.5810677414628485 9.256660041816732 -0.6678275910837788 2.0630488057404275 0.03555270029362909
Ni 7.661137641796567 4.900255039548927 3.098726932232125 0.3378054172868118 0.4187494012310466 -1.51985029819366
Ni 9.23251333377617 1.7061512652693043 11.64116120012494 -0.615039757858786 -0.858414726679154 -0.5062116459097734
Ni 1.3174547487300843 5.823182218530906 3.9220176195940457 1.8250497565199923 0.9235235433633451 2.4489091695529375
Ni 0.03669278722114827 0.7544237134174356 4.852110659971545 0.13795742521480112 -1.0021918438995256 0.1546935070225594
Ni 1.5173313298103543 0.47381964712930535 13.319916761572118 -2.711357352954672 0.9973100903271922 -1.3834759011952624
Ni 4.294682465721427 0.6928222690303469 9.915643572672579 -0.3254456101698782 -0.22740558997530516 -0.37052373345543926
Ni -0.08926727687224623 2.41178322179623 0.11076951844954584 0.9740074110455095 0.6754743089957593 0.8488851899221638
Ni 5.35401530475278 4.14088610864172 3.596745450178302 -0.862795886465985 -2.0576281489454886 0.20461507444335084
Ni 7.244133504327953 0.6663673581380889 9.187471707911055 -0.21086953999349492 0.036766260985756034 -1.6752243762230115
Ni 8.92553539519469 7.268091122304393 8.858340424526556 -0.8428526105748386 -0.2926355056183928 -0.4938919480021558
Ni 7.155261174190622 2.749555827963289 2.7054661727658225 -0.2582755400812842 -1.8456342655395632 -3.8346453275372863
Ni 2.7848588497870486 8.384737811805824 11.877750129467474 -1.2018030373703819 1.3934576949983228 -0.35753811982904876
Ni 8.487992164554207 5.054489191358374 11.43515083543756 0.11934649498183318 -0.5384687061712662 -0.17687852776003085
Ni 6.297090356084308 0.23991710076671088 2.214115175405779 -2.157092560291414 2.0108561828972724 -2.1102444895896233
Ni 3.738180160750802 5.8123584424466825 4.891428352614839 -0.5455695788821056 0.08021790441148766 0.10989537687126236
Ni 7.176871467233134 0.38083018357611603 11.452983053110225 1.522598036142126 2.0872901947862954 0.9838657918968282
Ni 6.6948222106628545 0.7453473903395805 6.260998372268867 -0.07462781191821986 1.3985081129380368 -0.7690640067284626
Ni 3.247691712156163 4.365716989317201 7.4064808308098256 -0.3273523402742879 1.215491847711384 -1.4609566091812451
Ni 7.308731513918393 2.903268352009641 7.216463014452054 -0.4372865408032856 -0.028299875385957716 -0.11785191271417769
Ni 1.3657705202867698 9.493625288331215 9.3575307419834 0.6217601073017549 -0.7753079307556454 0.27009824374782515
Ni 3.725623835310584 0.9832310743083689 13.317544286728182 0.540639745680656 -0.4427388221671085 -0.9249060255331683
Ni 7.133939639374109 6.060373814235445 4.805935425199846 -0.8651733855592262 -0.49823197013840637 2.3738450414282473
P 1.6665168700555588 5.966723001196904 6.175041568735979 0.9860350316340052 0.9918760637958144 -0.2179742693590762
P 1.9436875078887454 0.6354339003083997 6.5442673975395245 -0.20822078951673817 0.1730781801773342 0.6014887586472286
P 3.266814958542489 8.403637503436537 8.72380889851173 -0.4812778587825711 1.3764783868315067 -0.5791034489734931
P 4.3526856100213065 8.754068897640137 2.494356896694188 -1.5374363867065393 0.5985620719187369 1.5172861370109096
P 5.465718164307007 6.708505624662617 5.8300695679600585 -0.8705901856994233 0.13023691664209183 1.0144889160993238
P 7.769030755723903 8.43477681793702 6.990002978495049 0.9004970005611846 -0.37831674713729685 1.4390495246955086
P 3.307911774449198 1.9436129896368748 11.385253413984918 0.06050782757706999 0.43310001352576377 -0.299925868632219
P -0.06586668282853972 8.520538011058749 12.60513210075917 0.8340208712158218 0.9952629779901762 -0.7118420489915159
Ni 4.142516195401392 1.3580951403440846 6.845055663824992 -0.4371104202367376 -0.6070500547850901 1.150339065163135
Ni 5.481339052855408 7.757452482339488 0.779297905891886 0.014418746528491296 -0.5118971263303249 0.5415584008401834
Ni 0.7096401069994227 4.4497456330829355 7.329399151074742 -0.15438934551857927 0.4334571397548664 1.2650256927754537
Ni 9.272268821149204 1.1519124521992539 2.0593789568743532 -2.081797289992524 -0.32733639943468784 -0.6526948492073984
Ni 9.002484805032704 4.846378343446388 5.149789652197705 0.20641947464194127 -1.3627479246192917 0.019935048361030182
Ni 7.11900804465551 5.8257717277834145 9.826592398730758 -0.7495081960837221 1.7418223758582196 -0.3629718892501104
Ni 2.2561239084197555 5.7778564918305335 11.360973504569136 2.611024937181497 -2.3018857774811257 -2.133956231384267
Ni 4.758698305338989 2.7532724257753416 1.33967981735053 -0.19724012213551836 0.4887993639705969 1.0189721486816579
Ni 2.8289643401130378 1.2378506261691753 4.776419677111997 -0.3003303031594892 0.3716804727677018 0.47036455430417706
Ni 5.890416311281274 8.536382454362762 4.671430912051323 -0.4664297380261451 -0.5935643615938293 -1.1145660213285837
Ni 5.499810264537866 8.485924283064794 12.24592618239779 -2.723420968987426 0.19127773390449637 0.7732613326392618
Ni 1.2861198238184415 3.296892387953813 10.416511482274665 0.583374308434705 0.31419266296387827 0.7071032487549499
Ni 5.360256208346954 3.264747077053076 12.705471858381259 -1.0845064829390418 -0.8229062493598989 -0.525175845717102
Ni 2.6078780015940604 6.371152183662332 8.7876123572416 -0.9560050609308183 -1.1754913960590465 0.5553711383535597
Ni 0.6310224197976525 7.147995644633226 10.967275881851242 -1.5078990393690548 2.3178001347185373 0.3201144277649519
Ni 1.7959364439920522 0.46837702030829675 3.014719712463804 1.9146753273986252 -1.3070457459609812 -1.6069433324584261
Ni 8.679960496154695 7.342283356823191 5.3944908247345165 2.5286586189684384 1.5858973104214042 -0.294513439367396
Ni 7.500513549889206 7.839757891530711 2.765138525907607 2.0078173960709487 -2.193716896382667 0.2138044542521028
Ni 3.043157740333972 8.04564250666806 4.411337994590612 0.005393403101429421 0.5107020775809591 -0.7380318200130064
Ni 6.042796821575436 5.816932000155249 12.153834663779643 -1.834136806422925 -1.5218408462611275 -0.13027471185856274
Ni 7.620972304038243 5.223133310123323 7.091828443763809 -0.3802962394611708 0.9819184383624701 1.1248288367071724
Ni 2.4170274437716333 8.17379527032275 0.8507059522251629 1.5860297222342103 0.29656158014567635 1.3086598845256368
Ni 7.553682322598972 7.408697748802981 12.087441695797269 1.5170951040460259 -0.2968989088804371 -0.2823631771581072
Ni 8.927146852391395 1.1503382541284846 7.213081748773419 -0.03591136918462848 -0.9768608213339048 0.3183982164047936
P 6.352904526735486 8.140243427417952 10.294045392715859 0.6305034007120238 -1.099652594551861 -1.6879839898815254
P 7.4877988731637615 0.7106740477441291 3.7338534447515577 1.138098043012253 1.0048071700351857 1.9814368491948906
P 7.271900867931285 6.105354894020916 0.972809696784247 -0.10554481321205048 0.4975195174524141 0.2929725772428374
P 5.512021943063182 2.1481749058035167 8.379681748416395 -0.07526698816411553 -1.0155181286947863 -0.6196111792795522
P 5.727146821432501 1.2733585731855788 13.739189979810195 1.4914768892572894 -0.10018329178982101 0.21450482275323704
P 0.5949527914577731 5.343219473013008 9.822393295237843 -0.058250141891144844 -0.19839788988904541 -1.8773699060799476
P 4.498135922891492 5.260820916006947 10.136050863621385 -0.6154801878303142 0.40603169655406196 0.5823109001671971
P 7.2968737970894635 3.216617601126068 11.823967512657921 2.018539667584459 0.4320296632797205 0.29060819077571887
Ni 0.06871048561555651 8.03807890410318 1.0496901772392808 -0.6506063421094859 0.03150475547650058 1.0139165885356216
Ni 8.961322785655609 4.8952716314550715 -0.05627804676907332 0.9339989889733722 0.4407827268820022 1.2406562627921538
Ni 2.955114425748702 3.710207871954826 4.301482256204631 -2.234561441202855 1.1855366961101903 -2.410783309215493
Ni 4.934682471913206 1.499363116328024 3.781760297401103 1.0566005005573933 -0.361043561879146 -0.835403096275329
Ni 4.21464986321226 7.549816688283179 10.369790401308013 1.5681520706228413 -1.8492865175801698 -0.25393294684187234
Ni 5.473496006846014 8.871546921714346 7.8427004310014565 -0.14529175409268527 -0.8070008909835521 1.0620561243553257
Ni 1.485083556313295 2.285772857882823 8.039248840657551 0.0719554072923793 -0.0633082731403426 -0.8414909543406217
Ni 1.3576666603958278 6.514534615043103 13.234832753064264 -0.34396989422631086 0.3658142437949119 0.2179490725480956
Ni 5.242983109465389 5.31546142419116 0.8424735483497439 0.35020893315748713 -0.7929773230109505 1.1400417970021852
Ni 5.900802292635758 2.4254480062330255 10.470048188853044 -0.3641191154806761 -0.21128785847783613 -0.05559984875249134
Ni 7.588370568844798 0.2722356666030472 13.919283827975082 0.5869797663977763 -0.29426429947106736 -0.9717103874812169
Ni 3.6741130937049404 7.462108705831327 6.864768535879245 -1.9568200790874752 0.48508951921917737 -1.8268112192957893
Ni 2.2251708895489504 2.066279346997583 1.0089361452911778 -0.3626857254682593 2.0660341136209968 1.8050164920182012
Ni 3.5578459912236315 6.779465630006522 2.237795212894001 -0.3121059556381786 -1.25807188716544 0.8422322033820204
Ni 5.726913951895405 6.230107762434004 3.244942920140281 -2.0405400831149505 2.5919483801660204 -2.1366132093911396
Ni 7.174449624047335 2.751130026034058 4.748771542711659 0.48542607662298976 0.3115966201019279 3.980617652636764
Ni 3.5984491237116965 4.703023856410068 13.014234509095042 -0.32398548068458394 0.6853077501464133 0.6252796904192393
Ni 0.856622701423699 8.274339021659335 7.175303789509403 0.726058192590898 -1.1364597360778814 -0.35953046766872915
Ni 0.9209068028781341 2.5654119128092274 3.6244615824834723 -0.4499926755160444 2.2652349590273113 0.1383873136633681
Ni 3.302201813399603 2.9875950687828574 9.090922134874742 2.49666895343572 -0.6443950710924514 1.8903593763610795
Ni 5.7881679549331455 4.265815957903001 8.784354046678551 0.10769708366836289 -1.832644795258431 -0.27588991072893776
Ni 5.273228204943423 6.307988650420403 8.053836719939394 0.3328647854520848 0.5776880566832051 0.1608397291296133
Ni 5.389253123106152 4.441129460210382 6.296553824670839 0.7310453613928443 -0.25771658225402067 -0.4217583632606995
Ni 7.2420004193681535 3.505832251417861 0.460130644260652 -1.41189533287822 0.2877725210991367 0.2987966401237822
P 3.1010025333486273 4.678889257585435 2.0720573059520095 0.45893265831815155 -0.8997403249008181 0.3208515630412926
P 9.284098593633683 4.110156644526527 2.070353632418615 0.39370222845443165 -2.868111599161002 -0.3297416664420708
P 3.658343168652797 6.988731510822504 13.103504580401731 1.184321849866483 -1.3084765648702368 0.6293644020115742
P 0.19667043329353176 2.857774959242559 5.847491935247436 -0.6395480274127954 -0.25576768605776595 -0.016074536964359412
P 9.168930635367468 1.7006462294123539 9.449200301000328 0.5530499464195507 -1.1707245707980225 0.22746703934085988
P 4.305934721753907 2.758358296465519 5.334123588894037 2.4862397876825955 0.8041577651078022 1.0986516640911725
P 1.7018385214422858 3.883835398813631 12.635492699527601 -1.811521125905938 -0.22395851196696917 0.007739277625786672
P 0.7370637551660004 7.970369757497136 3.1980448583254364 -0.5128720886490845 -0.9110950877920052 0.6220138751837739
