# total energy = -340897.01756611135 ev
CRYSTAL
PRIMVEC
9.01807885842914 0.00000000000000 0.00000000000000
0.00000000000000 9.01807885842914 0.00000000000000
0.00000000000000 0.00000000000000 13.19886997069723
PRIMCOORD
 96 1
Ni 6.471084698339075 1.732688551489724 11.329844239821773 0.03311298050388491 1.4747639473779826 -0.20480430763602145
Ni 4.664231467600638 0.37835078653647647 6.162195663007998 -0.28430924514088457 -0.8586363557716568 -0.5423281891266725
Ni 2.916545851228787 1.5295112383241711 4.7746253762284585 -0.7059064002333714 -0.3683048714272496 1.5694502206089747
Ni 3.3390518565159293 4.32546734114418 4.984962142075864 0.5274715837298142 0.5858281692918362 -0.7527848099524649
Ni 4.9186855762681585 4.525533417157398 2.562903698529075 0.4375019992482013 -0.03941244035935148 0.0719230113925471
Ni 7.193459856639131 5.993541358731055 2.444694722897736 0.3789371543301151 0.5266020366406673 0.3005776432836049
Ni 5.036290340626435 4.596406497679728 11.390756852417278 0.11698390828692755 -0.09485853714279793 0.07569379128888899
Ni 5.573172638096387 7.8699871028160775 12.249541272785901 -0.3758484881024624 -0.23718118130483024 0.7352352311044758
Ni 1.789240923032608 6.682125776133139 0.4480379897094374 0.15800174546018594 -1.3133012399523898 -0.31218206029175266
Ni 2.7424247876424364 1.6694808378644528 0.373883230347297 0.39278717283933 -0.3805083554719769 0.6354769426672152
Ni 0.5592137657607579 9.058389514221162 4.968938819837401 0.7734361676542293 0.639971488103459 -0.3863643000321217
Ni 8.695249521032059 2.1962358329515856 1.4835000989765472 0.25947778791950155 0.10024396982442735 -0.08310731014414074
Ni 6.897693929435819 0.6888342181821407 4.8814436166507695 -0.4968682570216605 -0.26583561181672927 -0.9515020308541419
Ni 0.9157949103095894 7.604404685029769 2.5891427003216405 -0.22613572212394606 0.14292762473588286 0.13516109341658658
Ni 7.668288754557722 3.8792077165548604 3.6233540020727237 -0.11180879184389131 -0.5853571431926886 0.45977598015505333
Ni 7.577539828575256 3.840078273065054 12.665701256090149 0.4214747705820096 -0.8828332647328344 -0.8699438103646759
Ni 7.912732795865555 8.741349939358837 6.851441105578969 -0.405869717054901 0.6922566706604206 0.35871028576027897
Ni 6.912727066632755 0.6356482954188704 0.32562027674767846 -0.18788567750381188 0.38268942228369573 0.08071258465971905
Ni 1.573645715493821 6.529061926316942 9.262504707571766 0.17492526068840195 0.32080245497091203 -0.9183815941510893
Ni 0.030555054259543978 4.647205335010467 1.384508649060068 0.005763384846338461 0.5724342644834335 0.3475079892865564
Ni 6.379641380296522 2.0751410721354717 6.843653994619429 0.34561231492574024 0.11128685790215027 1.0029986560715372
Ni 3.227408042179953 4.34933819546949 0.40068586205876344 1.0254772967900274 0.15558028050288691 0.09344520173503908
Ni 5.950128327857599 5.6995790472682275 4.497857835427537 -0.03392133533779319 -1.1112446702648346 1.5228170941314678
Ni 5.330613375237361 2.8840176413491534 9.36393825320086 0.01597143572759185 -0.018525826718329384 -0.30940346910535105
P 0.10326241198994578 5.515763549076773 12.34268540047173 0.7540580202379337 -0.6965938645831938 1.564640715035473
P 3.9323242001121224 6.138732425840039 12.443458822739807 0.08314459113997939 0.3182094974327552 0.7535466278191538
P 2.5688538268569325 8.485218468052667 1.2937398833044569 -0.7937139440666588 1.0057785328095192 0.7259568911263432
P 6.282823287347327 7.632991994516445 5.692421398202115 -0.2828514296484354 0.766207511116274 0.1424386009146063
P 4.754926285110889 1.1152207027349348 12.426168460443654 -0.34974382059561054 -0.7567450801517934 0.9417189833254491
P 4.004847589036994 6.2065213234461405 8.118532566317771 0.4759603032243997 -0.4044995761802518 0.13053696438101392
P 4.85950894382287 0.968785140765017 3.842996523333158 0.03330272791718781 -0.9462410395655187 -0.6964069453833683
P 0.19050420716504005 5.687963761899508 3.4793145436140396 -0.6202801803221188 -0.18073312561943067 -0.37443695246691644
Ni 1.7046783990400032 1.078174435425388 2.758537388860052 -1.0323089749998802 0.3502654974270355 -0.8357666502623348
Ni 1.8230947904814978 6.608601380472298 4.81612206537765 0.15445285176666304 -0.5466245025091813 -0.38950515965394855
Ni 5.8453923618076775 5.585861074830694 9.23849587664231 0.4100112500271003 0.35334850722773337 -0.6824605105056052
Ni 8.590874278130235 2.4281717990991596 10.189474821009396 0.38294447571729534 -0.19910879991314095 -0.18312039490468462
Ni 2.383911068827676 5.205604768264395 7.175447146238914 -1.068998874221746 0.3961326922727952 -1.236580292950567
Ni 0.4605262250965505 -0.023767146420231436 9.070844382717077 0.4086341671739156 0.8024112147303407 0.4118328766168714
Ni 1.5372036594573364 1.1694734642087015 11.559860257013602 -0.39606224404617596 0.5670812277016363 -1.2827632192645326
Ni 4.0742777769669365 6.675001493958225 1.5406774233735092 0.27880014239719725 0.9665668956070642 -0.45867040579570045
Ni 5.679017827826706 7.876371902537392 8.099090490443222 -1.5433717783543677 -0.7021844712970938 -1.608555157030236
Ni 5.206876317361437 2.846123674641579 4.839062253980869 0.41185395966279387 0.35778494573253217 -0.11342678706328853
Ni 0.8717082289570621 7.550097815083788 6.9529404831825925 0.06828104376458563 -1.1675824256246148 0.43428143542837466
Ni 4.989125789012771 4.521466263662606 6.951039472192122 0.6768722177845504 0.37321413580340884 0.12364486524687092
Ni 8.004627017843228 7.196760473444217 8.795700096082589 0.3043116564047404 -0.6204249334300993 0.9173495533421491
Ni 4.587686015574485 0.21768289275839747 10.393225683980424 0.0040569436781930125 0.6033461235709415 -0.9358273004313625
Ni 8.196315298741895 7.273116545817619 4.614311892943385 -0.7711717971000848 -0.43262461655124207 -0.1618306322879729
Ni 7.194172284856622 6.042915339626813 6.837199755692105 0.11561351030196217 -0.8400357099513338 0.04738465993155065
Ni 2.1582877577717965 5.346918061531338 2.6496729463801625 0.372626638731055 -0.5074871701880873 -0.7971916182026142
Ni 2.299312472520261 5.261751326265671 11.249977429409519 0.03344619547358756 -0.2305657328708416 1.386548112362683
Ni 1.0876253819055255 3.429620420924347 3.8831738675681855 -0.1295100657783963 -0.6937340265368955 -1.0611999470026177
Ni 3.6775815129261242 2.6124021289109254 2.8663593414419424 -0.2958324152891357 0.07510912243001258 -1.0886791262594928
Ni 1.130894123519743 3.4412357062930656 8.233745736204167 -0.6007138281544171 -0.7108089797413113 -0.002605813053963254
Ni 3.504254040265586 2.7468797185214324 7.213842518122344 -0.017684047543324383 -0.4173705186056489 -0.46528225468526324
Ni 4.0817718003686485 6.78693388681268 5.901320682304354 0.7079110893682259 0.31292459488473207 0.299392107615936
Ni 0.8357774979830047 7.302497446230108 11.468154512880808 -0.4675301701791755 1.1868667277755236 -0.38671679827553396
P 0.167237564112793 5.438126909527628 7.853340631339278 -0.028114498848029 1.1402742247279651 0.4132009606089916
P 8.557200772255394 1.7624752654438214 7.884728054263055 -0.47456727953161487 -1.0358660962235193 0.8397575165892829
P 1.8157721105751317 3.2955847171702586 10.422949271383603 -0.6736030601149753 -0.7276288795121275 0.23778307655488723
P 3.868124497829584 6.104075949386633 3.716669473253899 0.676329457907203 0.33097990972454616 0.2417924548245965
P 6.970821529633753 4.085424122243129 10.413657043088628 -0.29485822430132447 -1.085846541906704 -0.15851159521706892
P 6.317064932180421 7.753789158735379 10.142156962057792 0.34536626035320517 -0.9560503123464568 0.8705163950386943
P 2.5484008243598413 8.364619701565186 5.791334390833883 -0.18521841508429393 1.974605428095354 0.569652073752606
P 6.855525393423297 3.832133345728221 1.5400705066768363 0.5801995102511491 -0.44885650502907215 0.9960307093941363
Ni 5.213811219883599 2.6948093320936515 0.7192909753838284 -0.6976873547576887 0.5600795995728224 -0.9897515612536438
Ni 1.6015025606056006 1.0760461688516165 7.038403011429699 -0.2735193536142322 0.41846606566267286 -0.2699725168032383
Ni 6.862757892542638 0.5916139189228172 9.018246438685203 0.823362363060711 1.750479280202269 0.5853291181682306
Ni 2.7729149117353225 1.6244265166671557 9.308542901155498 -0.0597624647706132 -0.5302308916425063 -0.3694608394085637
Ni 6.481058693383953 1.736800795378028 2.518106392574797 -0.2083745414857831 0.7375523092734265 1.1192508283987628
Ni 3.9379695173798375 6.847860026526239 10.224240416215101 0.10738032375889249 0.2144040355093146 0.45949161614541506
Ni 8.35421283874259 6.9944218415979895 0.4937046384506288 -0.3866224387895148 0.3469819415797573 -0.2452053371608874
Ni 7.521961409532233 3.836714529709051 8.220810204113413 0.5035233004443328 0.15257414668671143 -0.2926840994681411
Ni 3.0931288503008996 8.267711427828965 12.236632794931253 0.47963312409029657 0.1488488753163243 0.9839498669702021
Ni 0.10781834535040904 4.90752119483456 10.307340207842172 -0.7617813570241204 -0.6588395286525557 -1.147693400010172
Ni 8.631464650369834 2.4310756204413395 5.761214007967795 0.14149037806872405 0.4128474339243148 -0.04370618263869892
Ni 3.7209314172486634 2.700671083250225 11.394254063338076 -0.4655481067521401 -0.01404850767326613 0.13571670880974046
Ni 1.1690405964309853 3.3846202081992645 12.765247317846825 -0.8602957457519507 0.054774524637718564 -0.9299741840846952
Ni 3.045576521303032 8.210473682304697 8.172145946011536 0.6489212410975792 0.6547419615444143 -0.5728574680637811
Ni 5.685673169909093 7.742372271098113 3.4612982259823424 -0.3808752518930924 1.4837988038867413 -0.5754694517653315
Ni 3.190379811027811 8.262823629172253 3.52300262588792 0.6564969965623081 0.14791427931719686 0.15619785948222775
Ni 3.345337457371517 4.342989468062985 9.244369351301197 0.774425528150692 -0.05419705486769376 -0.13178909162056013
Ni 7.1050736672767 6.0174663215285795 11.491371556500193 0.4194076036403358 0.8125863554911297 -0.35288133778332775
Ni 0.5807218834660328 9.098069060511815 0.30451075812105055 0.11830082732613818 -0.42575051513922807 0.7289910499669767
Ni 4.60330532788708 0.3429449077429001 1.3740548922282212 0.2971966426265139 -0.8619787898813285 0.5187046361704615
Ni 5.888480741847847 5.396923307936264 0.48489577917410365 -0.5196484881409696 1.2028381635031156 -1.4361431496819912
Ni 7.8066080456954605 8.767655674933799 11.419173720216477 1.1118375666538272 -0.7782428450142532 -0.479164154873678
Ni 0.17031723798966986 5.0114996422734785 5.573249291765357 -0.4988770599215731 -0.6185300304002316 1.055788546179059
Ni 7.815175220462761 8.757275866347314 2.4553595027712194 0.7827607874892649 -0.2836667264608792 0.34938952257998535
P 8.600794164702899 1.5184460557563 3.679435629907342 -0.07814765214602025 0.2510563966250257 -0.7156794204597352
P 1.8436019014508038 3.278251969904205 1.7524534745818205 0.08441703009449977 -0.7807753816281199 -0.4971623912233115
P 4.804038741724275 1.0988979802835521 8.187667863074145 -0.31664986625511915 0.14604791553241944 0.5474976491427539
P 8.538398078160844 1.651038866918001 12.365387511797204 -0.22108761817707728 0.4200475512171798 0.07462472659442632
P 6.397262706081054 7.681446131384554 1.139545166418976 -1.029575378118801 -0.5974420993816807 0.790647132215877
P 1.745665566742508 3.2953051567304836 5.912209110529658 0.13693952547324803 -1.135515369886741 1.3069457300480072
P 6.838391043888696 4.057035210487907 5.79009350320443 0.4364871848304418 -0.15113921401239777 0.19216193628166262
P 2.3024327277512993 8.580314107969699 10.268826699127741 -0.2545512971521616 -0.14856348286542154 -1.1422452324114067
