# total energy = -340871.3097004577 ev
CRYSTAL
PRIMVEC
9.25233567348463 0.00000000000000 0.00000000000000
0.00000000000000 9.25233567348463 0.00000000000000
0.00000000000000 0.00000000000000 13.54172849856653
PRIMCOORD
 96 1
Ni 5.063738397082963 8.579894166122656 1.6433424489474813 0.5319015944767097 -0.7916632321852172 1.3287052332122857
Ni 5.374801913170194 6.773144371240618 12.338491655301809 1.5847937929445803 -0.9887292906367166 1.2809091967749295
Ni 7.846979669890237 6.727715404435494 13.065709488629562 -0.20820921955251243 -0.42945393213274424 -3.282888388897546
Ni 6.677253167173751 2.5112133597650166 5.38122580963716 1.6115713181487408 1.3649025090684495 -0.052073837877103867
Ni 7.961283021399507 1.4627942264542326 8.247521596379848 -0.3788042282966767 1.1475455615783978 -0.3030417885533813
Ni 2.5580764385568613 0.5952166146688203 3.6603293601484888 -0.9669746725684445 0.0811293604821635 0.7190187692456134
Ni 3.7076513547760843 1.4102317090571013 1.7505529601404972 0.23099690687098928 0.33319928597336806 -0.9607474607118098
Ni 7.139064983903733 5.23774706891677 10.971373053499665 0.6235297976076681 -0.614627867132348 0.08479986735521525
Ni 0.8907907960659377 8.382060730638505 1.9054296528379209 0.16379984019920177 -2.316669363548204 0.6210142302746658
Ni 1.7334065321805667 2.9863948011453867 2.1908345923988852 -1.5150310224281456 -1.5487708378827523 -0.36110398280343614
Ni 4.515537524740058 3.700980420953987 5.878098426125052 0.07369167325719567 0.07306201009299676 2.521914872486702
Ni 5.5780479648622885 7.177582456166409 5.8969084239895775 1.7111663415352596 -0.17713126720078526 -0.3478941689813815
Ni 5.658441507137184 1.9547501519115256 7.274534903103449 -0.5839283811659621 -0.7784711589749754 1.2374524111428753
Ni 4.566721444162859 4.107324486971805 8.545399609291117 -0.8606328173763953 -0.7776157529532156 -1.7784449121772596
Ni 9.15713811928049 4.398143893207791 12.117544960759432 -0.7163278526770115 1.219588386378261 0.22969644289201088
Ni 6.232289853203879 6.880610246890624 3.615763636236015 0.5881156797744324 0.6105320997964194 -0.5107573562989268
Ni 0.18291959605580535 4.554906211859367 4.544454773793569 -0.2678377298484226 0.775514904560129 0.23574804840272945
Ni 7.365515892774495 7.685480155514787 10.831215901187226 0.04205681996073402 -1.1787566970738796 -0.41598469400171584
Ni 6.978573974086686 5.0625263411458 5.221731276342498 -0.3779339098765814 -1.1297409292968092 0.6595283271894642
Ni 3.6074578147490577 5.901990731823805 4.917990058489396 0.9534588974701966 0.9527233048557527 -1.06320412191684
Ni 1.75192045531235 6.03295753938522 2.900949483743079 1.137544484501628 -1.1887374624356755 -0.6932727706297608
Ni 4.129021213480566 6.367272174328108 2.699611263610092 0.12641471468252424 -0.28729301035955684 -1.479127623663317
Ni 6.874679499900383 3.793577793619098 8.646136261406015 0.7084029414029799 0.604310801477056 0.48828308645581076
Ni 7.658676139866224 0.9288882123015351 3.977313445657024 -0.9782756994035603 -0.11072275786856414 -0.8250631478019017
P 7.818612009559379 3.5289147395538016 3.625161233299959 -0.9147432260675536 -0.5992804381420002 0.8435943738368697
P 7.834165185363741 2.856214442092818 10.878530493946503 -0.3504040798874288 1.914120997557052 -0.366376286945969
P 5.805257565235702 5.607340858732966 7.395679431406141 0.41833751050460855 -1.9842177543741377 -0.3317846650140286
P 6.563023834347667 -0.02992852931253325 9.13399062658129 0.3919790751157378 0.25826885521306486 -1.538191262594693
P 3.4639170833814994 1.7851918534042501 5.530170830110802 -0.3978432472059987 0.18463965976268845 0.29615483162556094
P 0.9862711964411249 3.097552358619271 13.533143024347485 0.7085363816570508 0.9260568513081601 0.40010016156097544
P 5.343306963474748 4.5432390169222465 11.875837876050591 -1.093724401992884 0.8868066475582856 -0.0038281154968385685
P 3.359115880326173 7.279626463273074 9.557196148628774 0.27860859521168146 0.17192375485791683 -3.2298059072502694
Ni 3.317683922413067 2.696861469529749 13.099685914678803 -1.1516891514331262 -0.7246952508051003 0.6994416184446342
Ni 7.2749817909031815 4.109100935368258 0.14120729238013416 -1.3510985133058213 1.6579517051854928 -2.056123282265188
Ni 4.355398103668143 4.590037329366304 0.33897133534879953 1.5574490823830403 0.8474991082079146 0.73181669234123
Ni 6.45356870658705 8.870528525650679 12.609515689953362 2.887156274497279 0.795999654777042 1.9239500678323316
Ni 8.199984022337475 2.263500584149209 12.970511284484019 1.2954896656922656 -2.7474235025496103 -0.9877160188808537
Ni 5.33213014231373 6.098084728253095 9.645596661957265 -1.5997781821685546 -0.006446526956292124 1.1467523762531413
Ni 5.926213345896272 2.528589245642822 12.41967442178617 -1.24396784366389 -0.8328875289423269 -0.2626217328651219
Ni 1.2722423789284583 2.697388852647446 11.293977007529064 0.8611205556460912 -0.8613550402544004 -0.5420291698290148
Ni 4.022878421792503 8.926606930499124 5.94664712862318 -0.3045376563726175 0.4368597376785121 -0.8664445389621658
Ni 2.203906291849451 8.905483848785051 12.3151859476673 -1.5530303844900544 0.9892278275396899 0.7587078603051192
Ni 1.1857330429553585 6.586996635364383 5.527150867836832 0.4404163446815189 0.697625905392134 -0.30231982278569225
Ni 3.380812606834934 7.073003309160639 11.483819200929796 -1.3358698692815252 -0.9571972814667064 1.7740624668388476
Ni 3.8660420844577414 6.561543460683955 7.198349322967651 -0.556947481701744 -0.09992181059831824 1.5935250021699912
Ni 6.77339418429637 4.776508896981475 2.1288004592546237 0.15816526762124372 2.143504537194334 2.210439865564303
Ni 3.295580093146785 1.235445841049847 7.8653742378953835 0.7542603660567269 1.720258276534199 -0.46273454856274504
Ni 2.307698990346375 4.743357779249751 12.43733250389362 -0.5436877884783604 0.3445926154119743 -0.6092578610696863
Ni 5.16894670289581 8.91234908165051 10.737954210840526 -0.8360361018736375 -0.2890179634704635 -0.4737093024066939
Ni 1.7824809191325797 6.322583394354838 8.239870840239083 -1.6957098977708733 -1.838131786514931 -0.04773870083685972
Ni 8.899386559757641 9.093435790063934 12.681963326588289 0.3199701888776038 -0.9066072272239806 -0.5134590715008059
Ni 6.874818284931356 7.1335135826648175 8.336842717080458 1.1967400210251777 1.817925229660069 -0.24220948775735707
Ni 0.2353044686132916 8.704254806209763 4.560569566356601 1.1105872391864937 0.6467697419722152 -0.9023564223674266
Ni 4.985879994707173 1.8465533417650628 3.9190163307800927 -0.5261127557090746 -2.8060806500711863 -0.14290936990343775
Ni 1.2530160259710144 3.3332278458820306 6.769387923068952 -0.9216391818564384 -0.03882725727984281 0.6437926616217623
Ni 8.87677385204446 8.527572209445879 8.94019491026491 0.6176681966205685 -0.09212134071729296 -0.21934621000593835
P 8.716273589892014 6.2922079772425725 9.742000445405193 -0.07039423345284651 0.3955426240972801 -0.8031640337359651
P 5.939240634136928 8.916318333536333 4.607261476943579 -0.29107021801380195 0.02230534836541965 -0.5785105525845005
P 2.314508709199444 3.336928780041307 8.6690487447861 0.9109248807627279 0.6355157663249508 1.4798742720213545
P 0.6630732424791639 0.6225702190400365 10.759377068221498 0.38698804965904965 -1.3967952440119877 0.7425567044665534
P 3.2184433729320543 4.247062508490706 2.60297709701075 2.260199453485933 1.4344639622073554 0.020206556854861973
P 3.9540965604423395 1.490921326064738 11.563688135787611 0.8653636471931613 -0.006491778371930756 -1.2183583706259016
P 2.458262244281161 5.1402644631614125 6.4334448770959805 -0.6440122338317359 -1.6770300619731828 1.1341925373102595
P 2.646815587360926 7.677245577010396 3.9771922400633075 0.5862367175841645 0.7366588509248797 0.2827030769960293
Ni 7.7026154806722404 0.7331458046173748 10.75354069505232 0.502381730640722 0.9152615604648688 0.46133329733984413
Ni 2.9785673253985157 6.404392543945657 0.2793946224862983 -0.7950426901804114 2.5379750112733577 1.2982839406079512
Ni 2.983063960402037 9.538695178766549 10.142957801754182 -0.64205279611252 0.20184265390453626 -0.5376999463260418
Ni 2.0781115397756262 8.493135017093806 8.284558694978813 -0.578801601462358 1.1909527249194392 -1.4370548628629831
Ni 4.34829231008233 9.113633638238188 13.04738708884052 -0.8293779731271717 0.7149499984928784 -0.7010344168530507
Ni 8.541395198530779 2.730549222714568 1.6988370314323 -0.8047740585355623 -1.5580296374768587 1.0269166003397154
Ni 8.37481615202172 5.499874983082961 7.605928575761128 0.8457289036813692 0.6990279279459833 -0.2234959705082538
Ni 7.987920495010903 6.863317632031403 1.5776925031296067 -0.19332947422720254 1.4616451506078376 3.4477009866319785
Ni 1.11667361154325 1.5718052421157367 8.884646664234783 -0.18674333636925258 -0.4999080722892488 -0.5084793588980275
Ni 7.252350578519202 0.0155494748702023 6.3020358079025325 0.2460951959650084 0.18296227206026555 0.7155673203619032
Ni 5.658441507137184 2.973062185836591 1.7025740496996302 -0.7997480660758808 -1.451198501353217 -0.5206373344168002
Ni 7.830316213838093 9.417304538342263 1.3067073282867254 -0.09260856476635664 0.32977843321727723 0.13661659491619052
Ni 3.7652193856236376 3.675323694894799 10.602388067352667 -0.6789244723278888 -0.6182379530811094 1.2934361255973466
Ni -0.12697812577125392 4.874731689568687 1.3858740108878196 1.84884685893959 0.849825442348246 -0.32044687140370615
Ni 8.054194973468155 7.100658539665837 5.387495192102975 -0.3901553916434377 -0.4147562209112534 0.09256305624040187
Ni 0.7442264014902501 7.261038521458105 11.368429625244776 -0.24305383803552333 -0.543013131008839 -0.6366059140653358
Ni 1.0558580109709306 4.935001402352513 10.048964251677484 1.0395191195950744 -0.8850989208385597 -0.039326051293132276
Ni 2.4251203788848352 3.7543108821891686 4.656986303074085 -0.01907347169168328 -1.144710406122448 -0.6966851387454196
Ni 1.6246638342456106 0.6052850060491333 6.2142857337525355 0.09219050339233156 0.529936500330539 0.3657430242373443
Ni 5.064534097927207 4.0282170193172595 3.8018540076327807 0.42448938903861727 2.2460247046474477 -1.8622019400902572
Ni 0.29891242400878537 2.181922742943346 4.853815860167533 -0.31382190988802083 -0.4176939633833387 -0.8348040292387494
Ni 4.75201796518246 8.524167350019344 8.197484966546424 0.002645408042647057 0.5072814819351844 0.6458019787423072
Ni 1.0557654876169487 1.0230677343197365 0.6229523404919819 0.9245923509474915 1.206931873956515 0.10644547064944893
Ni 5.805516630626852 2.1453667657850874 9.840367574424615 -1.0009736552217086 -0.9330417672664253 0.4959696564667909
P 5.959262687938616 1.1469287482953394 0.6826632122177568 0.20502105163251788 -0.5114947486855835 0.18250564413882117
P 8.134292441010308 3.5507224940873416 6.917913812749056 0.2575795424555241 -2.1649573077514717 -1.3175895829150985
P 5.769043924487177 6.526828698269938 1.1361377495204275 0.10591222385379824 -0.0409720715369875 -0.2298514804126364
P 2.8740899540821263 8.76543124786261 0.9917152705894214 -0.7695879975527327 -0.17741588832073962 0.4202905204659213
P 9.113994479318718 6.516207017232813 3.44379695482459 -2.616324495017539 0.7734932461444098 0.6707869308224189
P 0.7563932225388732 6.427495625434943 13.435290325176203 0.3202118725747647 -0.4711438556723628 -0.14255507188781255
P 0.26037274614115435 8.169701128579192 6.753950401457068 -0.40604789450397816 0.5295215242803074 0.877531907124579
P 0.20712092975685747 0.9789433468057565 2.7661688635305293 0.6878379727674349 0.3101475463602271 0.45663177809911676
