# total energy = -340897.7697829128 ev
CRYSTAL
PRIMVEC
9.00321581733233 0.00000000000000 0.00000000000000
0.00000000000000 9.00321581733233 0.00000000000000
0.00000000000000 0.00000000000000 13.17711640767127
PRIMCOORD
 96 1
Ni 6.46616353659293 2.06517562419523 11.544260793911603 -0.5843456712090388 0.0387084723137914 -1.2249609635440841
Ni 4.664097888077925 0.39178483481721343 6.090041596132782 -0.2952114938756851 -0.13620033331437834 -0.8274997822678521
Ni 2.645991075573641 1.6127820415925762 4.6750169880815164 0.6940356169377144 -0.9250890880782519 0.3163328492353326
Ni 3.3194766261744912 4.154299802158233 4.6609566661194375 -0.0038486843221288555 0.2244575630905747 0.615383771461766
Ni 4.996856740430139 4.675603997745299 2.6584830373604023 0.24083651866923036 0.027455525107791423 0.1388673386235802
Ni 7.306811793135976 6.070193106795777 2.560722519979956 -0.29862720442545343 -0.37945008941079167 0.10915952714650233
Ni 5.087825231884868 4.564720393157368 11.374157637721078 0.381138275746492 0.5452571898480094 0.4996080245503267
Ni 5.603313350128332 7.729314699607424 12.255522036955618 -0.5191782333727704 0.7477503328523508 0.5501623404591106
Ni 1.8631704734856347 6.373808549920067 0.4656094029318696 0.4557845996074731 0.5705635298232818 -0.45722030361273513
Ni 2.6491061882065923 1.4898251247480365 0.4123319736927065 -0.008427819052379033 -0.3400278788594273 -0.22090198452883247
Ni 0.5613324925989145 -0.1501970462730264 4.655580846023671 -0.4009038884091934 0.4979715173881682 0.23222897950587748
Ni 8.487691571064039 2.1715756273634788 1.3030074986064322 0.66793377764434 0.39827159299266895 0.42588318406235043
Ni 6.926948116230006 0.5849065125934771 4.912099567488338 -0.9194676281264164 -0.028043022180145254 -0.9375640806168112
Ni 0.7136146836285636 7.487119194003341 2.4200823871747836 0.03919852457633249 -0.6441878401776518 0.7400676194961124
Ni 7.335775138049859 3.8455345196523023 3.783742749323597 0.645265903733179 0.14632302357067703 -0.15194474063282867
Ni 7.563664533903193 3.846758956987798 12.625996260205797 0.7797052884923926 0.426234139643866 -0.18394160525439934
Ni 7.791310842932569 8.842940456240274 7.053565740579049 0.2983580099244668 -0.03241209778211837 0.3832540365379141
Ni 6.809294093434045 0.7027099887700948 0.27785004042781836 -0.5767272354318325 -0.5778140407381082 0.12084699078675962
Ni 2.0343846264938077 6.257604044852155 9.213307541223594 -0.31831157022825823 0.8654780612838385 -0.7604919487887355
Ni 0.0022967203256236465 4.589452226691231 1.4411285316581377 0.455760431237757 0.4224908705513498 0.21064662534941142
Ni 6.429682506567735 2.0282264269535233 7.092029278701861 0.9866096731905525 0.23785532455371936 -0.2724646870974727
Ni 3.349277270148675 4.274483728566505 0.4280443857361342 -0.23321139802380483 0.3644471882440562 0.06639539670609856
Ni 5.859823968698866 5.664859332668367 5.0192162266264795 -0.20449680369793166 0.011425468228122258 -1.0491329885357545
Ni 5.4209892289436805 2.9501197019929544 9.452327612649523 0.38693199961013364 -0.5874520780485044 -0.5395210586951805
P 0.33852811297416535 5.465249037335551 12.44498210690581 -0.7526778520609554 -0.655271094575007 0.0466701503630293
P 3.9713004397959195 6.167742948928793 12.597969249724938 -0.1937807028320082 -0.2994095911174327 -0.4676769801696849
P 2.3894534473560007 8.4340143990477 1.277929941589607 -0.439202783989392 0.07509112470788358 0.2037180165503782
P 6.279751955479494 7.70158479524474 5.875729049558321 -0.4935286511254661 0.08408664333827454 0.3198598885519846
P 4.680969914303792 0.9553312181572916 12.494858121252694 0.6043370267293011 0.009673518534022051 -0.3058355492484346
P 4.0298753611542395 6.128686999212778 8.232851049006257 -0.15890703088327474 -0.19376321933051144 -0.3577749184302032
P 4.654428434413794 1.0223331494128431 3.7275554807694924 0.4012543297700767 -0.37025711005761397 0.5753339546287317
P 0.3057375010652909 5.558180229813352 3.584044222476898 -0.6479053982385552 -0.45907535454360293 -0.6151089205338245
Ni 1.406968530640963 0.9461389349253757 2.687762395145431 -0.27634293910595636 1.0507111316561517 -1.362021073755596
Ni 1.8985080951166533 6.340469642174931 4.790000657100214 0.553556196632008 0.5309705980220082 0.27582229071579595
Ni 6.0047127189938925 5.617988591722869 9.13330946810196 -0.5588020184119796 1.014572991172698 0.3245547229244926
Ni 8.800301226674796 2.362146694131318 10.127035799942728 0.12565135415393844 1.000939202439347 0.7320316365655134
Ni 2.5243666346530222 5.079551276654573 6.982092812405799 -0.23407940245105494 0.17175149094611064 -0.3517829625128264
Ni 0.47126792400068357 9.082353968192388 9.039159240218085 0.799912616678203 0.5411267126194035 0.1398782963865978
Ni 1.6000064785111967 1.0427524426253654 11.306479564966294 -0.6241057247157962 0.4978483615467426 -0.4451286625555237
Ni 4.028101727660912 6.8560928086539255 1.5623847410565377 0.47175474978348436 0.31070007642958747 0.048783340051290175
Ni 5.433926849907699 7.973049755096579 8.122914582710195 0.1801749391231155 0.20641201844277351 -0.33819391097448204
Ni 5.2762895461784 2.7682907576719225 5.019440406697464 -0.21634161885165967 -0.22134190027972847 -0.6625300901302655
Ni 0.8160577734957085 7.528281896193663 6.860599818434433 -0.3467459143095512 -0.6070924779872512 0.02476615120108638
Ni 5.074248382605996 4.412809134614649 7.08675879622981 -0.21874431475588133 0.3672900570094901 0.5227554092010674
Ni 8.140086416018946 7.275156486727145 9.200565290040315 -0.5088344282446011 -0.6668274319540387 -0.029315975355297896
Ni 4.705962841093017 0.48878998240024746 10.159846218926146 -0.8936167285015836 -0.43532864574596636 0.7933935846127625
Ni 8.014941717758777 7.084576416743604 4.646897244478929 0.14319604790592114 -0.010393941639814356 0.37582483395337857
Ni 7.1898420147333795 6.053014971236037 7.075241882703594 0.4695991368930622 0.8524469391314933 -0.757997978722288
Ni 2.456464381827254 5.128168641446294 2.5346708150241564 -0.9956368163898272 -0.03814848604526334 0.483139080361026
Ni 2.415931904736083 5.0732490256630545 11.371772685881574 -0.03346650718856172 0.6865665622541789 0.6658149315291242
Ni 0.9959717338368884 3.2749737309586635 3.729400239666867 -0.4624370719269842 0.6083808577813715 -0.5473325843197993
Ni 3.7364875710676158 2.672424516875213 2.6241960910018274 -0.6553567123102778 -0.2163393048588145 -0.27407625455896667
Ni 1.1420849214674103 3.5702882092055517 8.230281531244858 -0.3476576274905432 -0.5129458793098134 -0.025165186411717947
Ni 3.512352516162086 2.685596221447488 6.880707600383659 -0.05668871094129592 -0.07740511755304089 -0.11413281199137763
Ni 4.012688222378797 6.906816925919953 6.212786037086751 0.3565238196319215 0.4105462965949639 -0.999803031952375
Ni 0.9260257510467272 7.221056163572804 11.311183745170677 -0.44742542900950044 0.5680811297210604 -0.04393398237878885
P 0.20969659788395936 5.765677342101271 7.9863601091906675 0.33344559765621923 -0.9443703049053671 -0.12587195480517677
P 8.490761667618479 1.7984913718812432 8.030569499574604 -0.1869549381594264 -0.02107096173768629 -0.684463142757931
P 2.0432437907447434 3.1674573290433456 10.404124168322143 -2.0260231204456978 -0.5537109770423173 -0.895996798697986
P 3.9994805049437128 6.1919435927362265 3.9195328498300106 -0.6747389734916315 -0.3117809681985921 -0.3249357604129952
P 7.019366125412785 4.209030350411727 10.388087640513437 0.5877698663992393 -1.4418648826571168 0.37578858139880444
P 6.218629124077459 7.7856748299030105 10.176897409144487 0.8935087421688095 -0.11180544940978164 -0.14754635445481687
P 2.4365492686940535 8.481875493720436 5.666673480632355 0.09875581531467509 0.3720823361918108 0.7673560228984204
P 6.704550681954996 3.9459293779472038 1.5136422315665579 1.2249187974522386 0.16303570833966757 0.6085929737921777
Ni 5.115393078364914 2.8214277367461316 0.48561454822209194 0.5709967607059586 -0.412553813943296 -0.43719166709663415
Ni 1.338553094520171 1.1477749537911819 6.833995316034519 -0.4716395643618587 0.06980313683606688 0.4236910615070381
Ni 6.9563166058504855 0.8315865199388118 9.394348704170687 0.010573404640472113 -0.322314006519432 -1.01719680194879
Ni 2.7186470262901556 1.5955588899543245 8.988690814277998 -0.29345465908557844 0.48169489171533175 0.8238269614019552
Ni 6.277258064729992 1.984920959426084 2.475189269844628 0.3037699249686575 -0.3289410249176464 0.8697946863813214
Ni 4.164977615981007 6.794105668544484 10.356435935390888 -0.07772059191093067 0.7446110158924208 0.3958730108535053
Ni 8.200074842242506 7.011911462811388 0.5618375729998062 -0.3067624319380782 -0.42125416993077136 -1.060479266786509
Ni 7.594653602350063 4.0319911168442495 8.198208475627446 0.8779245145773075 -1.212533022193376 0.22015996415648534
Ni 3.0759486446464868 8.406176456096588 12.137613223155286 0.5381414047388345 -0.8441970404178752 0.6957410296645954
Ni 0.2034654722964873 5.003717190795193 10.138881330842073 -0.5429100297720715 -0.8369650414458102 0.3467541418396673
Ni 8.488834979458215 2.414608432027864 5.508640935733729 -0.09736947649010973 -0.2526949606697132 1.3514240149660404
Ni 3.72497245818454 2.6987769292354655 11.593147354852817 0.12368780266966442 -0.5413213451287129 -0.22345868951241515
Ni 1.175153732741482 3.2109968801790414 12.500694905992411 -0.8544832528352315 0.5095728490725224 0.4968260909298153
Ni 2.8932553916180463 8.476365525710708 7.942835863521665 0.853704208577362 -0.7302686311278198 -0.45263165580078824
Ni 5.607382803625713 7.695174505664794 3.4138348283410873 -0.44480727466036296 0.7250755169626545 0.90193913232435
Ni 2.924316485790534 8.202343652599453 3.527606664526273 1.1904989252114722 0.14516962669252417 -0.11246056649527729
Ni 3.5274058928161143 4.267911381103921 9.328120149143952 0.3253607637655558 0.0022078062845961974 -0.8490749373354668
Ni 7.375803435061707 6.129272208233419 11.352915450593377 -0.10327272934842215 0.2267273329613579 0.6461529343238227
Ni 0.4502238076184307 8.917234992214585 0.1523119016414662 0.8358604955277217 0.44559711755151005 0.3632796502985163
Ni 4.506325536113092 0.39190277694291187 1.5344621678778265 0.23628283786027696 -0.6793487043495009 0.2866458636938612
Ni 5.985004679821842 5.658088914460336 0.3664803967646936 -0.3395740791514603 0.12377342040493522 0.1329139492536227
Ni 7.948074834738759 8.684132734469692 11.336733971011867 0.08081568589648662 0.20591605264296148 0.126004366617983
Ni 0.2678006510610559 4.802918470989689 5.838674514692897 -1.185171856571604 0.6040542053815596 0.05132898929127934
Ni 7.676177720533215 8.832433703515841 2.425695892165087 0.9604024186675653 -0.4104647926247511 0.42588652649646
P 8.371478062780424 1.5169067975801647 3.523600233538807 0.24757820826843815 0.724396745728075 0.006486379055292055
P 1.7841492492676863 3.0657029851774165 1.6213522026194722 -0.27582254782611204 0.3963453225042335 -0.034247865439276506
P 4.717144834995112 1.307149878151001 8.083132973808587 -0.47856354517520155 -0.7922846678193 1.006513096982699
P 8.519409899982785 1.6570688596315521 12.29812345301515 0.11333731267327578 -0.4207196375835399 -0.178822281749963
P 6.207528159116683 7.8086510363749495 1.2886914853184113 -0.22135449868521878 -1.2928964510437926 -0.27877957357190697
P 1.608325449820002 3.133074048276757 5.951194003573912 0.7680263094925677 0.3361573401604275 -0.3023347351840277
P 6.878033645320115 3.9740914366635924 6.0043507897226664 0.8055644156473416 0.2136558444893804 -0.3213634696807046
P 2.3085235414091914 8.371036905211017 10.014687372160056 0.38722150582609444 0.2958745813809808 0.5061463398894767
