# total energy = -340859.56988821854 ev
CRYSTAL
PRIMVEC
9.36656700883237 0.00000000000000 0.00000000000000

0.00000000000000 9.36656700883237 0.00000000000000

0.00000000000000 0.00000000000000 13.70891760452758

PRIMCOORD
 96 1
Ni 0.6514147455234632 7.676678889328575 5.912450446102183 0.4354155490328179 -0.26600221930158063 1.960533009162688
Ni 2.644462794889763 2.0550528480402317 6.262959551002152 -0.9604006188953524 -0.4095001147186367 1.9115588932568306
Ni 0.26042521237656824 9.091367667315223 11.812590413504534 -0.8488283685422995 -2.094437090243722 0.6698428217415948
Ni 5.223181657652827 4.275294467555956 9.082225898152144 -0.9534162171577194 0.012886369044364904 -1.9554005730321293
Ni 4.208585779052415 5.397680796493177 5.211609264414111 2.5828998968105066 0.1464855172904703 -0.8440869972025721
Ni 2.9925712487277467 0.4683348948692827 8.608843360452958 -0.8821562932704679 1.163075796003513 0.013325513464312535
Ni 9.178916966871894 6.510260330026971 7.705644997050732 0.7084692758645412 -0.43346613861593086 0.048633444736987205
Ni 6.057471126018306 8.881528472068824 6.861601186055712 1.9814404487393167 -2.1022997808212507 0.4804396791519919
Ni 4.447105401734623 5.218095611899186 1.8226140005021545 -1.3512679490041501 1.5177548491172117 -1.2800193379708085
Ni 0.0038168759569212566 1.6735806833837117 6.474804128193032 0.8058022426897608 -0.6624727545297687 -1.184404125167644
Ni 2.147631993949949 7.407315162287738 9.916468533683796 1.1262660833743314 0.6647908611399841 -0.504857445874724
Ni 2.894156731723154 4.873349755529999 10.244345203308407 0.11523015882061445 -0.028651345188105495 0.4512188346136616
Ni 4.57302015876258 8.330268551654976 4.632640229538029 -1.3044054801246567 0.9215566494449613 -0.5528756256252155
Ni 2.325887126063246 7.656653169584041 4.30804092162465 1.3819766909419167 0.07707884456187371 -0.38831293911806025
Ni 5.598659219579458 6.003051373111036 7.139480995599698 0.06402098293665104 1.1553568300927006 0.25388589565402087
Ni 4.81666329346549 1.5816290974472798 1.5596495118754727 0.12668802294856893 0.7386591691843601 -0.21449453834059187
Ni 0.6161280785479799 4.243982034859054 8.585552455533989 0.8112609518114868 0.2268777424962931 -1.4412485892293565
Ni -0.18568000958826975 2.9030456035835672 10.278246555059278 0.17121618726793095 -0.9848240420450395 1.3433484370467572
Ni 3.0226566611783756 6.822682164488587 6.3110512514026835 -1.1883952486049083 0.9116159932924814 1.9179329151039743
Ni 8.112655105993255 8.188140267556024 13.409939419954268 -1.769227764454366 0.4703900082254738 -0.23087889323588623
Ni 1.3409364312754872 6.027722909971234 11.804515496296037 -0.8386177465578848 -0.29746146625212644 -0.29055291205775124
Ni 5.716396963821176 0.5912429839655299 8.848242503754442 -0.9351724404561831 0.5228996480884156 1.050617800611397
Ni 7.541987659241391 1.3696917912454214 1.4268100520378177 0.607125902328348 0.9366554527596127 -0.7961472360984998
Ni 2.522950324241568 5.382057363128404 13.899470855413766 -1.0409136859497556 -1.0250916313158345 0.2849034270814577
P 6.218866437953791 7.413038134581428 5.243482754460264 2.2600295035669724 -2.0231990207333412 0.955520922205548
P 7.6750678398449175 1.5499420020797594 9.645813157086002 -1.1445718236620548 1.9059492603795372 -1.078703760214336
P 9.094486734048118 4.999264512557955 10.320347399356628 -0.7793088243849223 2.042191245565128 1.3258978456704777
P 6.2396602161730925 8.464622585338605 12.314692718219943 -0.010710444438968651 -1.73602916621521 -0.5545352727158256
P 0.17540020256318734 5.281348037266276 14.150892923815384 2.3697862979778415 -0.5814945749134889 -2.0971336632392785
P 5.357629357004109 4.472638662737243 3.435824351112505 0.3178328308196268 -0.8209738082238764 2.2945599332436744
P 6.932102397442584 7.270769351980993 8.570486332891761 0.42085950559551394 1.3209482149746863 -0.24738717530355459
P 5.0760141606340605 4.993888103234587 11.037035875355166 -0.2523717730023396 0.5180438626580111 1.2715053869625264
Ni 6.72534480266202 4.426939183488607 1.459862792839741 -0.39929977714686715 -1.1980880504126399 1.071836343670541
Ni 0.9783004323842885 7.489441219687211 -0.029207765144705657 -0.31837996157234844 -0.37369776030804674 0.28867523541906415
Ni 0.76888179598566 4.609605968548432 2.5312284959488736 1.7298793445637304 1.1357082026238374 -0.16044686456656884
Ni 2.6092445038516674 0.6199131081778986 4.267201753870607 0.3321140233289893 0.728971509582951 1.6266924900608952
Ni 2.940099741707691 2.722729826781871 -0.34947503592906337 -0.27898294783196464 0.2184452954582238 1.4393495724344307
Ni 6.751730421240294 3.5425573160614956 10.733163843037053 0.9048943582979319 -0.36021695221279254 0.20393373210561005
Ni 4.80834578217777 4.404459423251525 13.35983297104249 0.9040530933435591 0.32636760776351537 -0.8123364442638527
Ni 6.041529229383508 0.8863816294315358 11.368873666064884 -0.38344249839963634 1.510645234655624 -0.6588562408231041
Ni 7.995348223822747 5.640743204056629 5.868156888525042 -0.3224572169655156 0.29307593558992107 0.2800838942056273
Ni 6.881588502876507 6.283842311605725 3.34941777270122 -0.6599510165491795 1.5698274014427351 -0.052468759322677375
Ni 9.479340229306967 6.331733567477475 4.0508752744824585 -1.8409571717788682 0.9787906913667659 -0.7509693540102809
Ni 1.642099652485031 0.8483898979741903 10.67564094656039 0.6658295868171435 0.15533988235730667 -2.570327716572451
Ni 2.7065443994111718 2.897135299954568 8.943601646680145 0.4282339436827141 -0.4712227885394143 -0.04039177355348528
Ni 4.1611909512192335 8.210123599754537 7.853304238824683 0.2164776302088917 -1.951186020730149 0.5644260494669763
Ni 3.6816976653622686 0.1898687382457794 11.091611113270742 2.271711567890591 -0.06865256817139144 -0.457629880346328
Ni 2.1455245164277224 5.432318360391814 4.237124771330068 2.308070566135599 -2.0967870785331377 -1.4179808769506677
Ni 7.859017844551609 9.038877427161635 10.274244221080401 -1.350227680665094 -1.3623671442411052 0.3058597176181507
Ni 7.439948280898569 4.261150951740126 4.040223614756788 1.3590943870271044 0.8263746675244735 -0.21522241764555192
Ni 2.5734735853744106 0.09370313392157117 0.24519611147262155 -1.4513895343181005 3.285131676405768 -0.9275702026288929
Ni 6.409963133102521 2.3146472459447045 3.8086389981077193 -3.3063355641768926 -0.45031612029373413 -0.1599465278913826
Ni 3.4313293357217654 8.946213982151031 2.319069202114674 1.2050734805915375 -0.1627174057683004 0.6537716272113451
Ni 5.811964044529072 3.781648299316396 6.263522481664756 0.7075421360645815 -0.4738851658629258 0.44879531277383355
Ni 3.866762291514049 6.8214645108090775 11.711143938837964 0.13033950365822713 -1.13835592465933 0.7615515004015013
Ni 8.47961845873009 1.5933560390376245 3.7581485199585556 1.084452489772655 -1.0475373619138606 0.2670964808070239
P 2.9451670543277997 6.727405447350419 2.4253403953221273 0.45052180854663704 -0.7709933625406915 -0.13271417453799078
P 7.8717001759520295 2.8508550935664743 5.521759706435105 -0.2682899868944928 -0.625993171546496 1.5621914821640321
P 4.566875690964444 1.0824285551158066 3.7336371513900475 1.2926105443722578 -0.19030919934363996 -0.49472987052241896
P 3.5281047035424047 6.117042490646575 8.530469549699724 0.08220948092021972 0.17742077341674606 -1.061180920839224
P 0.9833396453041011 5.167628550166937 5.847963507235407 -3.99249177836653 1.3544718006534289 1.1772369179952433
P 2.207765352584144 2.768326273796086 11.31695759645402 2.232759612107426 2.2327572981145805 -1.8173174208727414
P 2.500948258909524 2.8585356783141442 2.358660743175559 -0.7456314867371353 0.13765300660050486 -0.3895223860451292
P 5.953698932823875 6.648014427446457 0.23218782354876327 -1.6972019089353674 -0.7123691251395796 -0.044613782054632845
Ni 3.3880651638321475 7.48433644080004 0.4022031868784929 2.2285710279473747 -1.8204382258899099 0.2877874334974721
Ni 4.535947287504925 2.847604894898863 11.527225780458275 -0.7838704756136758 -0.19763864312551768 -0.6431136332768667
Ni 8.034950068107074 8.790850739212495 5.633254633927651 -0.33436836658080477 0.22431975196112983 -0.6873101252884227
Ni 7.893393144580814 6.287111243406867 1.0052958144589947 0.18865983666567507 1.9932145585561092 1.2998636263902452
Ni 4.865388173779365 1.048409184623689 5.970151307347391 -0.8190603932512474 1.7517059535205186 -0.20108006470689885
Ni 0.7409441372943495 1.415297604826402 8.66810750169132 -0.9012225658732995 1.3195935007190047 -0.6247528713814918
Ni 1.213916419369207 2.5322044922058335 4.265228218253126 0.5741517613951724 1.2683735262017641 -0.29358527112617183
Ni 0.4248112690802618 8.604690224749158 8.298199300363425 0.8192820223437502 0.9024224997186717 -0.9598982253376371
Ni 2.431017471438667 4.478792497102144 6.976098098196584 2.3681629034418057 -0.9344476464750164 1.2542265452774206
Ni 6.549356379705963 -0.008819559266348602 2.9659102530865677 -0.567774654224235 -0.6272892646501003 1.7027243814154933
Ni 0.6956277506264213 2.0158912323938813 12.38547211663975 0.9819420925115541 0.16285264579458406 1.762142061252178
Ni 1.1364642787856931 0.9813913994168874 2.2873053008996767 0.04185318859036018 1.2925264692988836 -1.8709141231522746
Ni 5.670566352637824 8.79012014700479 0.8597009640001488 -0.20380569116817804 -0.5566618321405251 -1.1490928514608596
Ni 3.989286351372912 3.205098648635829 4.853806413973885 -0.16978536835867533 -0.9693537143235822 -1.7061156664852295
Ni 7.546268180253202 5.2825001249784265 8.601577714612999 -0.63998537206053 -1.7704354116092218 0.7639912201912454
Ni 9.167274324382438 7.299412313149743 9.999312070097504 0.05647325249638016 -2.5026172005993543 0.8071039922203196
Ni 8.315778472868823 3.873412553917519 12.613986372703103 0.8766896137289417 2.206775786449154 0.5664011709154761
Ni 5.433039586032754 7.518908438731319 10.138512365425575 0.630303883106708 0.6739784411765232 -0.07056212648927848
Ni 0.5564274552983487 3.1337816092836857 0.7383495983003195 0.8722318350679042 -0.8048792166548588 -0.2664974137704443
Ni 0.5731355370945601 9.061478952766668 4.13046954888523 -2.8179570897937984 1.2367337878092959 0.8103073296489658
Ni 7.9800526202947655 1.7376386334926308 12.619606312762373 -2.6354391043598033 -2.864445720273641 -0.4502893808208568
Ni 1.233155347505443 7.981354573075163 2.3255536762863955 -1.6324329920890983 -1.0699789787468283 -2.1443123778076103
Ni 8.064838782655627 6.161898978886319 12.109717581094843 0.21268756703884018 0.45461577611035253 -0.3599706405299413
Ni 7.168523909169331 1.8325032216931179 7.436224133952625 -0.37839619422498055 0.1537483695004707 -0.1965497809367131
P -0.10868308414955687 0.466837180843487 0.19416330910773863 1.866851780157443 1.055222903483576 1.5810073293189546
P 2.238028729803316 9.211559452049489 6.467757660015384 -0.21834682220714652 -0.4085158964284964 0.3914684540279065
P 8.206583037517197 7.979884022092987 2.9921628664167734 1.1630680826940294 0.24643432447198205 -0.045910903599501576
P 4.650959360817898 2.4434656386699514 7.770652717029668 -0.11390938312666189 -0.45322532352072914 -0.13830066748683278
P 6.57995695332869 2.897435030091062 13.682226452482604 -1.144740745139751 0.2038748538432166 -0.3282681672203379
P 2.3711463766739045 8.307142498311078 12.117435632109576 -1.2618264691118657 -1.459700368176641 -0.26654137963450225
P 4.433299082322348 1.117478247952124 13.110166197252717 0.31973878959308805 0.0107855206512782 0.008062465293160308
P 8.590883905336883 3.3345633344678918 2.4334836884680104 -1.8951316009387424 -1.9811504283027235 0.10801975711510428
