# total energy = -340893.91316368256 ev
CRYSTAL
PRIMVEC
9.00942861506963 0.00000000000000 0.00000000000000
0.00000000000000 9.00942861506963 0.00000000000000
0.00000000000000 0.00000000000000 13.18620946515849
PRIMCOORD
 96 1
Ni 6.415416020946993 1.9997688478979527 11.491333596621496 0.5793803567839634 0.1411481642379569 0.352829915720102
Ni 4.455928329087641 0.6653904609964613 6.049305269605693 0.05159252736531115 -2.3842801207186417 -0.9941052102366491
Ni 2.5811833242555893 1.6875020466682802 4.557826770382154 0.055748201404897536 -0.5485142633327263 1.2067428978741603
Ni 3.146678139973502 4.080964913035195 4.578212404864047 0.44121235822025306 0.03405888935692199 0.5282943367414257
Ni 4.970024353662585 4.505218913898013 2.6355011703206124 -0.6098530714515239 -0.05567595340606541 -0.3950199188245907
Ni 7.088402331340937 6.141385235424728 2.6239636958354793 -0.08893265857666618 -1.2627960321139864 -0.03719177855894885
Ni 5.107976727015982 4.717931527199588 11.276807385308164 -0.5518862651287528 -0.5584505486098318 0.3758795984507139
Ni 5.640920476581477 7.9483793358930415 12.358906450571084 -0.5061514820957993 -0.01441283299122034 -0.20107646516247304
Ni 1.868483451835668 6.430155446417615 0.6377828684111154 0.737599360461278 1.1303996459267305 -1.7122698590120833
Ni 2.632176691103828 1.575307630173384 0.23707771247195894 0.393592956570077 -0.1007982996660006 0.16101842079932271
Ni 0.4889714305590995 -0.03754048780622619 4.778194695311104 -0.19625641806601038 0.1420588489776844 -0.2253361090407861
Ni 8.338217318847684 2.430716854338199 1.3581002128575714 1.0258254241580655 -0.5617700999013681 0.38663169476089543
Ni 6.775748124674078 0.6941972085513302 4.797749660460239 -0.10765517468683396 0.2858143689315013 -0.9817292051697996
Ni 1.0380573736549812 7.279005806436579 2.715053525432496 -0.5929850920515916 -0.3386284274087394 0.5224435343876035
Ni 7.620580279460831 3.909866851230443 3.6359261599958956 -0.23935762013085873 -0.4787226964608852 0.6330220533688194
Ni 7.7290177641578985 4.059405349984341 12.672936397011393 -0.2167385971797622 -0.1487300903502729 -0.4678034784452202
Ni 7.767262789294077 8.921595850677567 6.937133121319981 0.3302355753593539 -0.3569372530202562 0.0567838417582635
Ni 6.680122047690473 0.6682563602887625 0.6030884591538925 0.8575536642304392 0.3969618730423099 -0.5946321407367114
Ni 2.015796621682938 6.308014620558681 9.275786226810936 0.3159960347212042 0.09183337716322894 -1.3125252810183137
Ni 9.032943380867918 4.7659788108394565 1.6057378767929262 -0.41097567082289865 0.7759239670730894 -0.854178062889987
Ni 6.195658034345892 1.9460726524181824 6.904853238973593 0.9916760319698664 0.05745669945557202 1.6226422312509217
Ni 3.2238529068325152 4.328192647961434 0.20003094136242594 0.8772092336778375 -0.5403440688171081 1.1573597194553422
Ni 5.9126989049107985 5.391710667325448 4.696334124547892 0.17021319992471332 0.4822397084752082 1.1514441253018555
Ni 5.697571764698389 2.9150457262512033 9.373140312232966 -0.14705193131690159 0.29568354841609723 -0.10819150680627818
P 0.3338452840809475 5.785819119517911 12.502359981132525 -0.5411699071525132 -0.6732446483342921 -0.366280384798053
P 3.8973887923815367 6.334907765442425 12.438498447169563 0.7190941025682389 -0.3616169178841127 0.8078825222575571
P 2.4528169831153597 8.40886024984716 1.568130719213789 0.8348803910026397 -0.12472215747144971 -1.9293714959582189
P 6.3214206505710795 7.748442092589842 5.737267307866824 0.35224627530249014 0.030904145778024195 0.9199250273788093
P 4.712291624788458 1.1034297888229703 12.675098659916618 -0.05299352147789583 -0.4161027076368189 -0.2296434781668884
P 4.274613575055697 6.110600017311578 8.010701158478907 -0.564009530754848 -0.40696629255318945 0.6756560859892622
P 4.643432560685793 1.1944430382754272 3.7728118169827147 0.43533404506260515 0.0991571645181518 0.8865749911634537
P 9.285838046491603 5.376214449837997 3.7215968181866903 0.21573972360160262 -0.20643284437837997 -0.9036160058061405
Ni 1.4490585047945206 0.9902533445919505 2.5522567512980565 -1.3757980729350305 0.5012465885950143 -0.5949576423969303
Ni 1.9625328787842127 6.381432455619864 4.7552638972011865 0.09531876460866809 0.03860845640081738 0.6345179211880556
Ni 6.1050862469032525 5.7001484613271165 9.252829301357579 -0.28826411602357455 -0.2841891746232525 -0.7429045747242754
Ni 8.720460353347722 2.299476505419773 10.144586164959236 0.3286234936772276 1.2178829736513799 0.4436250814268037
Ni 2.4675023520133506 5.211350912743312 6.993372678542024 0.42064096182680455 0.09512413209935874 -0.2766599561257429
Ni 0.30360513640848946 -0.12104708120604124 9.156952762254118 1.4711078386826342 1.039862361867106 -0.19515341480981874
Ni 1.4433915740970749 1.0162725748848325 11.295109138915144 -0.053260401986037306 -0.2600262042238038 -0.2492378553590482
Ni 4.2523602859894165 6.800758298944522 1.8642264967410052 -0.8608325920920271 0.09965030210448644 -0.6685629265879066
Ni 5.613306577395991 8.099990003264447 7.971432662234256 -0.22984196733093964 0.020720263266486894 0.05436623345570637
Ni 5.457893931082896 2.9688410254474635 4.860080492474878 -0.6821090407034576 0.1057733842830888 -0.27220089191312474
Ni 0.6656400221734394 7.452527404580938 6.806681998361962 -0.05669102493414107 -0.684353356652944 0.6424132647757322
Ni 5.148897552497378 4.232332325829764 7.2912622333377 -0.15929681012252567 0.34785971619902023 -0.507364528567294
Ni 7.9728038972933195 7.097673033547092 8.886014913629202 0.39332376206909037 0.16667381931288716 0.2085989987917633
Ni 4.524562157471011 0.40917852369900953 10.550669048932265 0.30053162053701793 -0.41858510773904034 -1.3580839434847192
Ni 8.280800229285171 6.882726081910119 4.78476166794285 -0.9249924145993875 0.7630440257866278 0.24767102509256056
Ni 7.078203657971289 6.097121911869005 6.877518632080032 0.11979618092474206 -0.8600185808311639 0.2588614944917413
Ni 2.3104229613774776 5.051307420041526 2.387231044485479 0.7042282412000002 -0.17170161154478172 1.8059868263512704
Ni 2.4397082642524293 5.033639930220078 11.418730213921283 -0.5127119089221364 1.2860182358667205 -0.7066818449468152
Ni 0.9324038024483923 3.177310197797533 3.5434245529103414 -0.0901215366784448 0.5021395327229288 0.5635235922573649
Ni 3.306027906659862 2.5542901793718458 2.408790607536334 1.996627183782084 0.6457742108281652 0.4264495980887817
Ni 1.2780505372774862 3.4285651473847545 8.14823369245154 -0.9808565727568592 -0.13576710243170165 -0.6031908289399999
Ni 3.413429307048175 2.4723494246925646 6.809873138032925 0.8415439190657442 1.6091755642230545 1.0165499123934107
Ni 4.208565452729825 6.884230656515004 5.999527274698767 0.4093435345361144 0.4735403809289974 -1.1499809104927678
Ni 0.8243384071595996 7.427544258596811 11.005395640729853 0.45930161162179606 -0.4351964910434763 1.1299597301758346
P 0.3853846223127555 5.6389384022516875 8.023742306626051 -0.24473662505458493 -0.3175980891010014 0.2959776826177483
P 8.560011436351207 1.615534729639353 7.999572712060013 -0.02989550200785174 0.7209910624806357 0.24236015440260844
P 1.9507845836658197 3.3912571028408403 10.146300659254505 -1.2575322126118857 -1.4468901037858501 1.7587062960977518
P 3.91635363994612 6.022505822781176 3.92660276611689 0.3842153720099189 -0.07649494703394567 -0.8175979497731081
P 7.110790761838794 4.182501175293083 10.541240681722604 0.15812927217698575 -0.8686047798382781 -0.5197567315840597
P 6.304681131913124 7.820986013060163 10.156256078047315 -0.027626503468016934 -0.15863783638228807 0.9920377861846592
P 2.3307302138290558 8.345848305017377 5.747420033149736 0.8270048449093047 0.6129337672593765 0.08922087924104635
P 6.767342327630014 4.069703127070478 1.4647105853997229 0.7464025605752049 1.2834358198515252 0.5912519114105688
Ni 5.243613677175034 3.014023310737908 0.39469856977701506 -0.7427289683783596 0.08822123433193839 -0.8256460168885651
Ni 1.4654826934454637 0.9725678359129589 6.985196621931639 -0.7225838608890524 0.1923030898452172 -0.4563875232987946
Ni 7.019218927802488 0.7536252026157031 9.359795546336214 -1.1294676210307644 -0.352282013636432 -0.21513422880711983
Ni 2.618374246225471 1.4835916452767288 9.014066825705298 -0.21994142038777606 -0.192844564170984 0.9165648526573246
Ni 6.11284336507575 2.323405548237604 2.537224519392352 0.3882291211550024 -1.5981671289276926 0.7169220346175846
Ni 4.1196514001811915 6.7652701590125055 10.161398659990244 0.557269126707221 1.4516286469121 0.6922265887534336
Ni 7.986714455316939 7.153801774795242 0.5510833334545838 0.5443675881542044 -0.1064297869201651 -0.8095313707148897
Ni 7.861636555678405 3.8761625781952382 8.337033479907074 -0.5132456699384192 0.1470169643139081 -0.40288003829895774
Ni 3.100657977807283 8.431383821776596 12.33873163672245 -0.1590103892303584 -0.628514395306453 0.2382057659146027
Ni 0.28133653131329667 5.129220960059824 10.288382053814006 -1.0544615998375195 -1.668155128081056 -0.10892298565566404
Ni 8.5071891554623 2.1989492991843234 5.726243370821682 0.5227170997639644 0.8736035186044502 0.15616340669986653
Ni 3.690892684932486 2.609256704308436 11.278112851537195 0.07075598766763944 0.43293572003375763 0.16502857039998028
Ni 0.9582158158795235 3.2642962325890066 12.387877169729599 0.5921736518938898 0.12725417986468407 -0.002324791478434706
Ni 3.1186047599206557 8.07262836808457 7.8095458404057645 -0.2399132355240126 0.43456914187212253 0.4471984006003588
Ni 5.534257849352449 7.778695754405458 3.8128848552166863 -0.9960885592152653 0.15039822208131517 -0.4360878925094941
Ni 3.0830445445584655 8.568912751977718 3.6386551159708658 0.7117345768793742 -1.1264668865312277 0.8347148119590527
Ni 3.6079879213746255 4.220025446127521 9.186727122459075 0.6628669046443939 0.5278022275963555 -0.34742391421318225
Ni 7.353261518373537 6.18960369821126 11.404765599325033 -0.17325481496451453 0.47249599882488313 0.00012829804774816615
Ni 0.6803028674995009 8.978634544231666 0.35572017713881376 -0.5268941139597894 -0.23226548917076775 -0.242903171390272
Ni 4.574825760588736 0.449097500700984 1.7246767516663724 -1.1306773250681494 -0.6330809316312129 -0.41804928984022843
Ni 5.911491641455381 5.717491611712781 0.1580352910285577 -0.5844132912221806 -0.0756084306639343 1.3642011121260504
Ni 8.019004248034975 8.589499296721222 11.639968449669585 -0.9423193359136093 1.3788869962729995 -0.17232047607570322
Ni 0.20778445576341428 4.888939494716623 5.9912467087146295 -0.7859834081916206 -1.184458118334031 -0.3741597875461298
Ni 8.052771587071582 8.365281642878092 2.593476689814675 -0.28603934045811386 2.193442816785674 0.7092930573174172
P 8.495774209208461 1.4656538725921273 3.495281769325492 -1.1246293191018566 0.06491932638120432 -0.18150188546465515
P 1.6263370347367094 3.1965273093677258 1.3740820385558208 -0.5892603349018368 -0.06725054561754223 -0.778426164669653
P 4.637143979403095 1.3247373971728167 8.407896240968581 1.023796566653495 -0.6524151131834507 -0.9603047167474364
P 8.44588900209915 1.636220378099345 12.441676973640243 -0.0999889163908278 -0.7046311330653735 -0.19221438678615285
P 6.152394757383836 7.841779774665416 1.6931887981090237 0.4793284483656841 -0.020235096099952245 -1.4245808987656883
P 1.6379501884235255 3.1596877551199434 5.924669732919855 -0.39329136616925814 0.0793972082824052 -0.6838195956366611
P 6.980307204937198 3.9075334091785536 6.208845135239137 0.3226384797383863 0.447128723704688 -1.276277611540189
P 2.4071662075287827 8.429581936022242 9.875679942522357 0.09763147190224476 0.34391538683929157 1.196345099579604
