# total energy = -340862.97977707145 ev
CRYSTAL
PRIMVEC
9.33306132972375 0.00000000000000 0.00000000000000

0.00000000000000 9.33306132972375 0.00000000000000

0.00000000000000 0.00000000000000 13.65987865634941

PRIMCOORD
 96 1
Ni 4.024033412111492 7.784333175709451 11.438345236378446 -1.2341477722496745 -1.194581065700646 2.4224391482868666
Ni 0.990209813374632 -0.12301068231202567 1.7228252660123673 0.3419538922375466 -0.3461427335079136 -0.09768829328210918
Ni 2.394060907169669 5.747187201884482 7.509382120721701 1.5581417375746907 0.22782390845964634 1.4271913398053422
Ni 0.06863626670441558 0.384992515204284 13.01954502915373 0.28082025815101963 0.3776019804584594 0.5903841640936348
Ni 8.795019725754713 3.637952661950145 1.0783353788555343 1.403859349947621 -0.5061879917606895 -1.502798999138328
Ni 3.8414880645541207 7.607378331919494 1.3566855347983635 -0.5004832280664284 -0.1648182541613871 0.233771641402649
Ni 2.6985987000423632 8.673344604526354 9.64436657700712 0.3274240740524877 0.6682335682729459 -0.6132716102147696
Ni 4.678159685144545 1.27775210147193 9.405304876255121 0.9368513708205026 0.14979555550030976 0.09650455738665314
Ni 8.66683946074357 0.11679019690137134 8.03650316117152 0.36930297367446074 -0.9443800750973801 -0.37450405825942595
Ni 5.875134140361091 7.058491659022282 7.144840209616179 1.7487502133263044 0.2738073171682962 -0.9149183181928371
Ni 4.172830409713986 7.777809365803903 5.596821316663787 -1.5666865418209084 2.3877665366053455 1.9098635078322788
Ni 2.709910370436531 2.6279660915084815 11.898587425581953 0.6707126259410577 -0.806564831887398 0.025531825722517318
Ni 1.5868537613600933 6.239832846897818 5.296644863374587 -0.714229575387086 2.0491982730105804 -1.6289509470777686
Ni 4.304594570295557 5.741120711986619 5.407386303194721 -0.8161941274470459 -3.7917726965434757 1.4872546236458257
Ni 7.7405331186468835 0.6725758687716599 11.328014451259088 -0.8797188874735689 -0.6313153550903579 -0.9546205218784657
Ni 7.563475611181732 1.6789804102551702 2.1651041119752352 1.0635869591775553 -2.6130522520241706 -0.1858755890523186
Ni 8.972627883841364 7.633426906234777 3.421676697254521 0.9224210543277856 1.1549585662130173 0.7032291105115244
Ni 5.547805011595197 0.6749240670152018 1.5205899588588108 2.0577942422097073 -2.2004740126008424 -0.2581816948158973
Ni 5.271695723690025 0.3005171100296186 12.300857304015349 1.6955453471685509 0.4955850194338627 0.6160252617005069
Ni 2.291061241765346 1.8031381258109611 9.585724152429828 0.5606290443183893 -0.6663682329294329 -0.7230399745898645
Ni 4.754084139481638 5.830214115932765 8.48462917008979 -2.5243049699854336 -1.59896957022433 1.3030800764450137
Ni 3.4529807184336287 4.37882974052263 0.42039001710524226 0.4991786503223919 -0.7662270515002997 -1.6668261248569876
Ni 1.6126130107725551 4.520402948615978 12.59760479055305 -0.5652002086288395 -0.6242581911332604 -1.2870073392528674
Ni 0.5125409319599108 0.3301551797521601 10.22118150278181 -0.33347722222510306 -0.0585995548107636 -0.4956824642436754
P 0.39211644095665077 5.662144346577832 0.09261010147462981 -3.735348809227793 -0.925905156221644 1.1213655607489204
P 6.814525434514399 6.072248396734714 10.452880351410078 1.2782879571019987 0.6827600440238952 0.7345186646534254
P 7.415331927875932 8.52733819227688 4.6460931528505816 -1.1412371028618666 0.6469178375143052 0.20653800249767656
P 5.768830571227778 4.15091638159063 12.753367985170565 0.9251104282344906 2.506213145480729 1.9230815491844493
P 0.7353864385618513 8.15200912882682 11.668541462124319 -0.34788928388537504 -0.09200718373693187 -0.6338836300381663
P 2.4091897996687996 4.469519097964984 5.9158477540248535 0.8571469157103238 -1.628155447759667 -1.8674565036209774
P 1.0201036089790216 1.3116591134702904 7.688284774421939 1.4209798116779917 0.8923975113825019 -0.600299623435134
P 0.5475343123030575 2.221557933658605 2.777053347319934 0.24566196508233176 -0.26008508248619727 0.42077003120550116
Ni -0.5671570738572972 4.757341377903722 10.018483275783742 1.0081681160876186 2.2476974643641805 -4.556369668639521
Ni 5.368507569398528 8.090345592280393 9.75032575617546 0.9388568312863057 -0.18210686603850573 -1.1082619334874269
Ni 7.679466898028862 7.204852727604249 8.879139541290751 0.15844423231424323 0.026865456932276315 -0.8137353814939082
Ni 1.7376760332823344 5.474279154033105 1.7126895613522464 2.2341793752730874 -0.3254324975437557 0.4205052075798887
Ni 0.12668510857785403 2.666436970522311 10.14330643861602 1.7769729556174236 -1.905237579024493 1.6156884256409079
Ni 5.34179634772517 5.856029363713515 0.8996175197706451 -1.019923456851334 -1.1813581392524686 -0.5635073943074489
Ni 7.44760565413256 2.4378609642322355 9.72796467441194 -3.4502026700079096 -0.6563784687065728 -0.8373751324000354
Ni 2.724469946191401 6.236603607659879 9.911156803123035 0.39337852656642575 -1.442977141884689 0.3837073220252489
Ni 7.3790916505322395 5.330746003049679 -0.025284196588152497 0.40325104848513127 -0.6849318548642334 -0.058797529754182606
Ni 8.765797910569779 4.734428712212565 5.253630650080328 0.25665934463409995 0.26523628766983354 0.6523829743939344
Ni 4.499142234789315 6.191319593837682 3.1946630454396794 -0.534319459889583 -0.8047676307776592 -0.04174751625043133
Ni 5.039293162233605 8.334274484542751 3.5640805478108053 0.4640980045691749 1.732625282739984 -0.06829544194228884
Ni 1.2261402720331926 7.5030067064921155 7.463607187870845 -0.46665085289801567 1.5564075284924033 -0.12962447986907355
Ni 6.526927148048813 4.599500643822722 8.97798226115583 1.0240752742361783 -1.4199097185422644 -0.6214690584238974
Ni 8.93624761057695 3.3171753422739423 7.863377672466322 0.18332222650284558 0.18113216083006223 -0.6125740699271127
Ni 3.9259056047482215 3.8303257231420536 9.800512427141268 -0.6478465199761617 -0.5682801331057439 -1.3594905940242585
Ni 5.846014988851351 -0.10080359606129662 6.512565433195227 0.20954799296859394 0.5195055348052021 -0.7884611803081517
Ni 7.174650940974275 2.1506919985901907 13.042548225540285 -0.4602979140967944 -0.948632679726147 1.3850532729847114
Ni 1.9680439873576245 4.133146232720584 3.8455834118882466 0.08632864529491584 1.4808744311510948 -2.0865003518951486
Ni 6.830615632335806 7.611988864241869 12.018275538042227 -0.018301112302032997 -0.0050388479754880965 -1.5919319466512585
Ni 4.931589633893093 5.457386312932902 11.116696208769225 -0.5159111325857244 0.41931324415431653 0.8449012655737512
Ni 6.948230871863287 1.7527582604745586 7.354095845540771 -0.45500298424644214 1.90809484596763 -0.23249148913864476
Ni 5.343709625308342 2.7763990997171035 11.404564220708732 0.031812002304274244 -1.6596401486315095 -2.655128355258614
Ni 6.473234045922039 3.475258735950856 1.5135556304957047 -1.7183800856748792 1.7194136691457165 -0.3875837742615196
P 3.9317387681115505 4.274178123253813 2.4027313211929213 -0.520289207048762 0.14026267630921008 0.986340735799882
P 2.1695914478873775 7.1843666578722365 3.0153637366307335 -0.28050606934471045 0.5639686502145835 0.1474854193098944
P 8.222156418168872 -0.14333715669441735 1.1990025294547089 -0.2838400188139499 0.21419757592546335 0.7760710341739151
P 3.120667734890106 6.158784541862375 12.802584951058854 1.7311600110483667 -0.2521537434542625 -0.7617618166400945
P 8.473131771774131 5.551930224725743 7.4458631715726655 -0.48961671766556975 -0.9428842072781439 0.3155026400245534
P 5.0116766336062595 3.0912779246003077 7.990756227504808 0.3409434486951612 0.046717715771513096 0.6387921230833773
P 1.7666365227485918 3.8753857434910994 10.192017552577441 1.4365820369916227 2.1509645930168055 0.2908707004084861
P 6.710303138069122 5.3743034005163315 2.762068183966076 1.285258989103193 -0.4015515492955214 -0.4270167834461614
Ni 6.660399258863167 7.359408224079021 2.0552922450686824 1.2480209306873409 1.7662612256268742 0.23566371621903928
Ni 4.265741035765094 3.0472165418190635 6.002232703558138 0.1552360097895907 0.34051484579817487 -1.1008396728814267
Ni 8.952440472073553 6.316961266153103 11.602782578243765 -0.20296108377969563 0.35611655689117383 1.3914514632015715
Ni 6.566695322594646 4.377793770709304 6.386785631571361 -0.32976840591494816 0.30743580385601893 0.8426533500798391
Ni 8.148761223466119 3.4944941754577705 3.2676205195636494 -0.004522056240069632 1.1495777615170784 2.426704094210808
Ni 8.929835797407979 0.8900735312021002 4.421812221408194 -1.6505060475407252 0.553899953124672 -0.8835611440377946
Ni 8.948669915275497 5.690871509509556 2.2984791589512246 -1.9364782822063296 -0.028547472620389543 0.28724364517886014
Ni 4.937637457668193 2.4538764975625926 13.64621903543975 -1.7829857374704068 -1.0239346348932559 0.19592500286852066
Ni 8.573042193861236 7.237341114272648 6.1007067674986555 0.0930713633353881 0.4899609883788658 -0.027027179321121194
Ni 3.7638929922297693 2.426763954249838 3.420638860828917 -0.2895944047992238 -1.261600983364621 0.6596507116999414
Ni 3.524369304939398 0.9982455792239543 7.02896371942404 -0.719352241325632 -0.7597249887157239 0.6734608781101562
Ni 1.7768468918997633 2.413576338518023 0.9297623747261925 0.03560797901159674 -0.12351502453722599 -0.38394206374387424
Ni 5.581553361550075 4.081795729000524 3.9780438188488656 0.21154548301459697 -0.7278502514943143 0.7668176338964472
Ni 8.31725098058321 7.324465242267334 0.18214495922411242 0.9075431087746886 1.8948577784520655 0.44906193617165885
Ni 6.475063325952779 6.526693821514279 4.879090230316993 0.6664044854840071 -0.09735070743703235 -1.1789747266219566
Ni 1.426819757854482 2.458981682138178 5.1540086195899075 -0.40559846567138536 -0.7716024568796 2.070983487206472
Ni 8.011910544431723 3.9961835569496125 11.803378066512623 -1.6698376579898015 -0.5365840875540436 0.68083840152115
Ni 2.335785271904664 3.340069341842337 7.613292692916841 -0.32171262549000723 -1.590961869428505 1.5261862677140168
Ni 1.9295824414051765 0.6369058414783669 3.7744290852231495 0.2657988450415229 -0.5559480939029522 -0.7599543311177105
Ni 1.5529934146686393 7.349291185541663 -0.1488903282163068 0.44603009132387056 2.1601352037724793 0.3609761989763203
Ni 5.940372239416566 1.1810989178069093 4.037532752093442 0.21837201901812714 0.11855536653910549 0.4552235848976805
Ni 0.6925710194750145 7.328618454582024 9.580861627450156 -1.0138703086787184 -0.20787908990660328 1.3004740062807345
Ni 3.0847914469402857 -0.00350736446710262 13.796204131756085 -0.854362153876335 0.955335545667619 -1.8854899640839204
Ni 0.9956883204054708 9.112717135175078 5.845485804271031 0.5534284128048921 0.643516268031924 0.8419493820342789
P 3.734643177860691 0.4648209891171867 4.935778311841033 0.8899459645182157 0.774059660170841 -0.5015129548825233
P 3.749996063832974 1.4522990154255042 1.4555553205414493 -2.691820568473325 1.260756118865822 1.216323342473744
P 3.885512115089839 7.720915023623335 8.056528177671295 -0.6931714691652062 0.3479643600976846 -0.9680961877673973
P -0.13698880834283883 2.6209756285338677 12.768257017992195 2.5217035278068445 -1.3189412118469865 0.3146125241101162
P 6.7552604947429735 0.22443866017973307 8.947698343585701 -0.1462687732939739 0.1492689935728784 0.4545422425599398
P 3.3379414038473945 0.5365716984045511 11.533568595039846 -0.9084622781548484 0.9470478517375303 -1.2971014902640758
P 5.751219084401215 7.947829744987533 0.06689005091996934 -0.9921516860547043 0.35417640244566745 1.5689663389940205
P 7.1109714631694825 2.691878895847808 5.159992045241476 0.4935237660294597 -0.05018896214956517 0.09507116737423627
