# total energy = -381164.12995872874 ev
CRYSTAL
PRIMVEC
9.30291291545158 0.00000000000000 0.00000000000000
0.00000000000000 9.30291291545158 0.00000000000000
0.00000000000000 0.00000000000000 13.61575340461619
PRIMCOORD
 96 1
Ni 2.055367013916124 7.73259997239547 0.48349006920741305 0.05511185337247927 1.809255469800213 1.0312635644545014
Ni 4.184748004435263 6.775088338931191 1.3544008846478797 -0.21201368090026712 0.8157670672119564 1.1346185691040847
Ni 0.939770978187514 0.4328143106918779 4.108989731626484 -0.31253070188042303 -0.806830683954275 0.07469234660756814
Ni 4.905705163658537 2.317299835086871 9.743229277226138 2.0833191259536896 0.38929150098124565 0.052998663684218406
Ni 5.332746086482161 2.5022510503765294 0.578550956402013 -0.47487401213875635 -1.7776766665526673 0.6283326183129502
Ni 4.487585734495332 0.48257745343255687 7.883834639746176 -2.145388127370292 -0.6227749217195145 -0.5628648756274435
Ni 8.20865794432936 6.142564671611919 3.7517122844116666 -2.9116558023005403 0.05850056733905409 0.40978422161795874
Ni 8.812984482050375 4.964825176392593 1.2596246665940605 -0.5718205421588346 0.26201983761506487 1.2310866168258474
Ni 2.860320175495936 2.3137554251967565 0.8864383076913579 1.2404924835207798 0.6561972059337022 0.9299973240131466
Ni 0.8626051746270968 1.404525910708048 11.153984418544214 -0.10197843601703081 -0.10292871574544207 1.0309840855408696
Ni 2.0539529711253177 7.276338599532874 9.702109471044265 0.2598763089095008 -1.1738129799153592 1.7452013196327816
Ni 7.7222551330311475 6.082774849134849 12.831813170810666 0.44573801400474844 0.0029205160809046477 0.429771206262847
Ni 8.80020227945453 9.2116143082745 12.625738761042024 -0.06918247253293247 -0.8044490710959759 1.101592234776735
Ni 8.834809116176904 0.8189921877351173 8.59785833783795 -2.469687539750869 0.8476523459563272 0.7287527087039256
Ni 6.35141507064883 1.4072516642455897 2.6447102798024456 0.14308034826366325 0.9288536973270067 1.1999749830227078
Ni 1.2146720602160535 2.5058698835714224 2.9094414172328937 2.3025799753346727 1.0420709394826504 -0.7069955195324921
Ni 1.0117848284745843 1.2028759664085344 13.674164973333387 0.5337270777212227 0.8684790528936914 -0.6914112919409899
Ni 1.1322947647384658 4.232099832101093 6.566660292148903 2.0975910624916714 0.656944625622688 0.290318427449442
Ni 6.150927990486493 5.854379029680275 7.716034275042908 0.3364093082702336 1.503386753320998 -2.2384201528273127
Ni 8.327400327104733 2.4637648988925336 1.4363800154448982 -1.2494093263944352 3.614683595434536 -1.8871059024207888
Ni 0.4857832372859252 3.1161688915009753 9.707977748626114 0.07366184846052475 0.5882108105913999 -0.580173284998904
Ni 4.196320828328444 7.821107887604253 11.546499439989411 2.9200481401292935 -0.49674227296675744 -0.3088499105947261
Ni 4.7379364288598 5.643863409198928 12.430188736860483 0.6911603522724484 0.6573593445626034 -0.3267226771100889
Ni 5.295450707874634 1.0437775466165857 11.957205377705288 0.13622810122852022 -1.9993242709982728 0.13512329820011568
P 2.669498822041811 5.713942253561736 0.2570273950944809 -1.1470207994231794 0.14870566487024067 -1.3338497535277027
Ni 0.8921270390504256 2.1735791306449452 5.756250041746148 0.5718557662721442 -1.0748121384694134 -0.7334038343226917
P 6.894286564448337 9.11723625490125 7.310815195471885 0.47411270849269954 -1.3675967680711607 1.1547672761378178
Ni 1.1154192803797596 6.664979059510216 12.469906594038575 -1.5743132051282307 -0.22705926237947993 -1.6073020013494255
P 8.786945628290717 7.102522971220818 0.9182412464061723 0.1900654587639501 0.7866986890910903 -0.09137572080052006
P 0.24008399947016354 6.2463014555611664 10.03124281526548 -0.506790915452011 -0.6599983248473472 -0.6892873036194517
P 3.763112074121236 0.6119791140349453 10.039357746360354 -0.5783501157472362 -2.0392612164025268 0.3748652982535866
Ni 2.3545859107813003 4.595797219644434 2.120545083659216 -0.9031339239633995 0.35524006782349143 1.4187676345180211
Ni 6.580815604717926 4.322170636710241 11.399354333236326 1.6379354099645662 1.595996603638935 0.305448598222661
Ni 6.822105261725514 7.683303835892282 2.1565585208419193 0.8773053929360697 1.447487628160533 0.3057257631434476
Ni 0.459516462155381 7.562356662712822 2.8833262795858374 0.5227741782541447 0.9781083205877606 -1.3192332891661087
Ni 4.273767579864403 4.513326895035873 0.8170246216150144 1.282995646990313 -1.3734799663248152 -0.006786426794214118
Ni 0.7043142476920035 6.817314261480346 7.657758966818096 -2.11046457602023 -1.0631820104296528 -0.4409207951217632
Ni 5.727989652338829 2.6902536211621384 5.061356854147895 1.098306879157244 0.18660732501202054 -0.20747594093091365
Ni 3.584170540692506 3.492127518506707 8.089201097828106 0.4147431082851309 -1.1294010294588872 -0.22092281046443885
Ni 1.596398493342181 0.3142356591870191 9.217293736720471 0.8456538274690597 -0.8047177513763303 0.880371176345587
Ni 8.663979722969119 3.11780620420612 7.67558148773012 -0.582806608856693 -0.05690519782747618 -0.38872560117544663
Ni 7.349645554740484 7.332128169378057 9.22150051402312 -0.0984511395900627 -1.466300647101978 -0.8410690363118547
Ni 6.695408888251852 0.5405708833905167 0.5554843833769787 0.6492251454912431 -0.28206724318424325 -0.6699988877034849
Ni 3.4818571024471634 1.3538343372402473 3.6073031644005322 -0.09383523808460614 -0.5517615666254304 0.7343687693391223
Ni 2.3620561499985224 6.3788400584600025 5.4626677799266945 0.9817533735395155 1.6684775444174813 1.8335796483678746
Ni 2.6506325142802583 2.507190897231255 9.879290893314964 -0.8340491533505958 0.4638748328147753 1.738829868888799
Ni 5.884259986549164 9.031137794184698 9.48658609244258 0.8435324102506828 1.3065253546811368 1.5468471384974778
Ni 7.0047214458277205 7.9642239026948465 11.721325364663846 -1.9772307815333432 -0.40508218815659913 -1.1821852631394543
Ni 5.5717658326939805 0.5084404821346734 5.752642372046972 -0.6924764999807106 -0.9976129662795914 -1.0265736151779996
Ni 7.252364992480842 8.899678329205162 4.1000300960223655 1.3169717468254416 0.6420337699491265 -0.01733823416813143
Ni 1.8334274161511543 5.004362557056598 8.689015722696874 0.08518681838098878 -0.17533483742199482 1.1316854546176898
Ni 2.9064440186329077 0.145377553264575 5.605891708809218 0.12483451467959791 -0.8396148203638315 0.8487784891409703
Ni 6.364039123722019 1.8296783421728968 7.8571343488652925 0.8902866356870861 2.0397746657038356 -0.19389100315762736
Ni 8.327074725146325 3.6299129643924837 5.108344937911615 0.17216312456223254 -0.5187905110160485 1.0942651049877026
Ni 2.395593151714695 0.27416522160253426 1.8381812047439319 -1.6203683476150803 0.19716170348909914 0.10984575458024952
Ni 6.424145245244402 5.623248153775061 1.2401545997724859 0.22997257937153295 -1.0626711322315054 -1.2591152408282897
P 4.088993119923596 7.392011020986102 6.42188370707042 1.077226661448177 1.2176376904097934 -1.1218291306489
Ni 5.854648814160099 5.027061665014283 4.931707736057115 0.27372349920523825 0.42123077289200356 1.733971255244917
P 2.812410173044262 2.9756762979038514 12.496797594637956 -1.3372562081060906 -2.404420600222259 0.00975347984233804
Ni 9.185724301124402 7.749921996582852 5.2634421747803675 0.2986428881547373 -0.6917429642487958 0.09416228240672171
P 7.397964885368445 0.6904538374681686 11.110373292234852 0.2952390046795109 1.1176225487667204 -0.2597888914020171
P 5.721114799559841 6.003011672237635 3.1013279542366727 3.121817517593733 0.2654879986693234 -0.45692565519045175
P 8.846670330376107 5.46005645222025 6.163701820460551 -1.302500035571828 2.1966528390825397 -0.4648086574829543
Ni 4.271125552544738 3.3134650724709 2.878057109607463 0.7030378204363248 0.5322484362931672 0.5947779222859563
Ni 2.8348208906959287 8.128345895559399 3.5900657967223366 -0.5925793719727408 -0.7335352176942335 0.04848689185679392
Ni 2.319541837143347 8.745063913526165 11.430221398893542 -2.060731727571477 1.694012198353476 1.1165509129690965
Ni 3.9452165980030856 4.722772680511017 10.037547399471597 0.591998045547974 0.5476313465071407 -0.6009989634950037
Ni 6.8999241297853695 7.269584684624152 5.890951571940133 -0.024334977200938735 0.42444619450550775 0.31891655080210884
Ni 4.583182469484343 9.133469838256236 2.192027737608424 1.4994951315760754 -0.27816533702667573 -1.0649951523789918
Ni 3.5416841365766234 2.4236693434426853 5.84343229183855 0.9867156026407974 -0.12063975987195998 0.09297186164304633
Ni 7.582534681221109 2.7336238020222754 10.050468215472593 -0.18808673777102444 -1.8941895487404474 0.19972997843690765
Ni 8.029009389505228 1.1393091612139148 6.048308486400246 0.16396593346342084 0.35750906636332624 -0.8667348165090749
Ni 6.207908333208145 4.327891928265149 9.185446144022789 0.09724863464152929 -1.896977138787914 -0.4653408758373405
Ni 6.994944084162341 3.77298246491759 13.615753842577352 0.18913523364019685 0.6365912587773166 -0.10417235834455608
Ni 5.794217090679308 7.6877599312659415 13.660549229724012 -0.5190090547847578 0.8077238851925057 -0.9835235780660608
Ni 2.5505610780913925 8.014794538292382 7.75068576574815 1.132615679741443 1.4238584187773673 -2.22307503782981
Ni 1.2102531764947826 3.9794699240277582 13.82856821288507 -0.3587331685784144 -0.9911510127043317 -1.4140779423518355
Ni 0.6016761377795611 9.111207967214126 6.93342764101439 1.1277133573438192 0.7190989876642455 -0.6184061032278576
Ni 0.9900253147397364 5.565458457613935 4.126649451559302 -0.15110398989908816 -2.2904173718302103 -1.2107018825219085
Ni 4.778813429009831 3.2095794419120938 11.91728378673036 -0.6809993525790465 0.6133988798212533 0.8172387666614763
Ni 2.3449666986385758 1.6589605839222803 7.593015343116654 -1.3264496044088896 -0.4094191249690562 0.012802551081306983
Ni 4.519038883677683 7.190314562121101 8.781589010929226 -0.60420692890934 -0.011777709361218426 0.08424965127870006
Ni 3.9002649219163885 5.2998509857697105 6.908075342241322 -0.7870378175980639 1.4678875319731237 -0.6000286291619344
Ni 8.413368547037923 2.363553919007206 12.494046723235051 -0.07611339532481085 -0.10650563446342302 -0.4899165082941756
Ni 8.960798468255161 8.263647463648166 10.479024582839786 2.3430146863109518 1.1817042097379775 -0.061285329173042837
Ni 9.08844373886476 0.6322845824526676 1.9005953790057823 0.631225623590029 -4.90604252678788 0.7146805468815756
Ni 9.350450983340284 4.745239215641269 11.52219557952242 -0.9356164699721371 -1.2115549745508232 -0.189245533965816
Ni 3.866746526026411 5.795491589773653 3.582536018861291 -3.9347900527796877 -1.115688564968801 1.369152542594055
P 5.629732284203958 6.157430726741585 10.302469246620543 0.7514833175322219 0.5235879324046918 1.0370482894570783
Ni 2.5045023553461028 4.81311326959999 11.751593322717586 -1.0099442341514349 1.4837057299523029 -0.13695032410652544
P 8.636796610898479 2.029644459201779 3.5002015167839513 -2.3781410977004396 -0.3852330146411559 2.407231844418809
Ni 5.108992420663195 7.793729414358568 4.185604802731534 0.024127489175822962 0.4086773617070252 1.2224628797125783
P 5.435775849036004 3.866681405634729 6.977175520146282 1.4355211998272763 -1.4649107087329867 -0.39226472467695667
P 2.5406534756426478 3.8399076217403763 4.767923438937999 -0.9994456486129559 1.4147286885619572 -1.8848119641802896
P 3.8696304290866093 9.207521026511639 -0.005776178742183425 0.2318255734198717 -0.37149046824408277 0.06110432351048831
Ni 7.21530218670075 4.043520480703443 3.238738492724624 -0.999559548483001 -0.8096771522641346 -2.4260502626768927
