# total energy = -340895.84479097766 ev
CRYSTAL
PRIMVEC
9.02037403915354 0.00000000000000 0.00000000000000
0.00000000000000 9.02037403915354 0.00000000000000
0.00000000000000 0.00000000000000 13.20222919968893
PRIMCOORD
 96 1
Ni 6.296509525253636 2.0250107629059477 11.363963360657463 0.8924103668983082 -0.11441717600101585 0.92284580057003
Ni 4.43847490072239 0.36971445049476337 6.067070906851411 -0.2356907128022328 -0.3651884372854549 -0.29278128716763774
Ni 2.5633376475725695 1.650358559823733 4.78691660381674 0.03769597188887702 -0.7241103248359078 1.0370323486174784
Ni 3.509637995931647 4.575133562943596 4.929065065498528 -0.2489630044311067 -1.1071360474130998 -0.5227068153513192
Ni 5.092893995473957 4.464210027013948 2.889479182697067 -0.10764026228849849 -0.29094423395889896 -1.0521362941384524
Ni 7.281597480711801 6.131680235829999 2.508357567565674 0.21764825347822514 -0.47476139782029203 1.3461295993363203
Ni 5.037689308160836 4.306389567989379 11.666374096536314 0.9214543195391421 0.500518452179738 -0.5254758934560241
Ni 5.717167001173164 7.960966929239199 12.377419489503051 -0.43781361695134924 -0.7826648853413488 0.1409494179635895
Ni 1.8382078430419906 6.4891666676774316 0.3829437306276756 -0.3336456294821673 0.10625880855993958 -0.6955826497098601
Ni 2.803198405798582 1.72058216942057 0.36253603706930887 -0.05751994859333965 -0.16734590567924726 0.4846516603508105
Ni 0.41411002395048 0.07415468847446119 4.661232128292452 0.4424462306273541 0.1589797931027391 -0.1511798374423461
Ni 8.689948433358456 2.4587554343849356 1.348489046369521 -0.7994631878456103 0.07915012526860561 0.4940397864339298
Ni 6.571910556030905 0.6265109604250862 4.689906994387172 0.733725993548801 0.90601818748973 0.050972634393125126
Ni 0.9362967538770097 7.52987424764094 2.549402974212879 -0.09752271423852236 -0.6821396368310768 0.07823584098445235
Ni 7.656448132016382 3.85362092828435 3.7355307054151146 -0.1572476409029808 0.43233356767338443 -0.34181248156367583
Ni 7.3581624130506516 3.9877989877259625 12.62996469728784 1.1899075714843768 -0.6815806790038134 -0.10569882229141152
Ni 7.954914258456993 9.10931462908955 6.56665618832504 0.6133253462708406 -0.4682212827089291 1.104811255934665
Ni 6.977980720863381 0.6664856487088813 0.3492887161889087 -0.275218595693526 0.5656997739730774 0.48278118280097504
Ni 1.7346990543298895 6.3904296566758925 9.278843533233795 1.0928746523980792 0.4844120335361787 -0.2822312795659333
Ni 0.11137455461684656 4.905495730942898 1.3567932024382234 -0.3564626273766829 -0.20954233654163912 -0.0370411119136975
Ni 6.254249074263118 1.9052292199597174 6.883404808269937 1.191965996675302 0.7704608870759893 0.25171588458589556
Ni 3.498218202771776 4.3593030803715305 0.5766138610229198 0.21533426063306785 0.010436621952291704 -0.38190472159887134
Ni 6.110879253976395 5.6280096270877245 4.710040468583721 -0.23200606486179398 0.47003339621700346 0.7018635976225654
Ni 5.255296804360465 3.042139085902708 9.197239820121561 0.47038538023978343 -1.1275971434809289 -0.3394182702998864
P 0.19747221792832928 5.594886814699852 12.392786598213284 -0.41775155609415154 -0.055432212826375504 -0.7810391768124677
P 4.102096143435857 6.075970407587216 12.373591242886109 0.15851159521706892 1.1922017668351919 1.104828739436162
P 2.37752696882045 8.571745455817421 1.1850615230256982 0.2884101546831356 -0.14925999471181392 0.3566546887828309
P 6.382428585164988 7.775535106184327 5.8924581200650605 -0.3953554477871385 -0.8557513209143779 -0.9322521814855944
P 4.8245108154695 0.9077743320985641 12.73024870238647 -0.5737735521201472 -0.13111289148914193 -1.5543935833861682
P 4.132756393791625 6.022154857830667 8.13453966693287 -0.2815555936551474 0.6533445669762554 -0.7598753982506591
P 4.585227361163102 1.0880735624931157 3.8993181416713223 0.17888964465278867 0.1717229517010204 -0.28154273813934094
P 0.3160964469232077 5.548783684494402 3.4972836920518997 -0.6040601189188306 -0.3656620344877638 0.014976161693858079
Ni 1.3223326686241197 1.0171463637442484 2.448617436334083 0.12811215698960515 0.04475853516261324 0.12413697439194103
Ni 1.800647006772083 6.4286038783603905 4.764341314447695 0.8720834824154982 0.6769308389366278 -0.37457579203762587
Ni 6.047186394970195 5.6635950015077015 9.183113914838499 0.22374562462521466 -0.6495457620554556 -0.11654707785982509
Ni 8.761867873219161 2.1830567312741156 10.18660162865962 -0.03673926440256253 -0.022825996755580044 0.5519400011848237
Ni 2.455571242453313 5.30869741692479 6.883787272116682 -0.4722103492636642 -0.009733425237680011 1.6680695103457854
Ni 0.5774013396507688 -0.08314258887295684 8.90174771090434 0.23655666034695388 0.15506914519442327 0.5136516471275863
Ni 1.729710787649472 1.1054468023240096 11.541467177228757 -1.649641899768217 0.1006579174333944 -0.7633854682864466
Ni 3.8385478837581695 6.84984631183023 1.5007637796162943 1.577448922543735 0.9017753530529758 0.2257683114821983
Ni 5.602103113695032 7.907900070503401 7.95759060334683 -0.08334745117940484 -0.28144452199857983 0.5426920002239943
Ni 5.22166885104293 3.0105316963038233 5.000805901959102 0.3366034265589106 -0.6997671201048529 -0.7388612578928372
Ni 0.8454092721074769 7.241691347268459 6.817511880107581 -0.886747512185576 0.5421551538839179 0.6265235901286694
Ni 5.147205665786425 4.429842403049407 6.990447779414927 -0.1919773310746823 0.132530597772275 0.23876935172755656
Ni 8.264709974320036 7.055619077677765 9.485999122376281 0.8685214760958527 -0.5429527100845488 -0.7391625911833399
Ni 4.796980634802892 0.32842639579384575 10.473011123554036 -0.6871005803807779 -0.6759684750233583 -0.6593408937690064
Ni 8.280026568937302 6.934773130629745 4.836438455671157 -0.37599118432791373 0.612282763938939 -0.12446581848626952
Ni 7.191511008130732 5.968528735922742 6.998158394891276 0.3774456573862532 1.381759689835104 0.4473035587196555
Ni 2.386926198261671 5.256523575189645 2.506535452069391 -0.8732775027235994 -0.513189105668871 1.1412921244695182
Ni 2.4248388291075935 5.039439260667168 11.51473349556374 0.419987901623838 1.0444818629169883 -0.9482997218667604
Ni 1.0045539219976607 3.138079781043615 3.6446603623556957 0.07358908624106036 1.3155704956025407 0.24476979228536558
Ni 3.350861377290217 2.6466768805931453 2.907935769414612 0.9281139909475048 0.9743102869979091 -1.3677034688523542
Ni 1.1290621407857333 3.2737462021529833 8.14479853799189 -0.3865566185485859 0.46712342165906 0.10935364543517939
Ni 3.5159161760574524 2.627355240033553 7.145692921735591 0.33708216596754204 -0.10164239283385076 -0.13274142823150042
Ni 4.172166406679047 6.7955075803965315 5.905805567094019 0.270915597442798 0.9882592929788335 0.3113531366325541
Ni 0.9910323817554438 7.384249333918224 11.354853685213424 -0.30507810225711973 -0.10328455642296405 0.2793321036412673
P 0.17602086712778478 5.597818436166644 8.125998275034702 -0.6058256954596857 -0.9222225651637342 -0.45574037663309896
P 8.514213512078355 1.684266144727331 7.991123842740054 -0.2674960302382877 -0.39545057860410604 -0.2640384107069904
P 1.7842750284267705 3.184110748259114 10.353411792157434 1.2466351060834078 -1.115120094059841 0.3155260370633211
P 4.022978445327461 6.2234625386749345 3.6936004001036262 -0.027853531877158482 0.4662690440785647 -0.3250082655221435
P 6.954690115856439 3.783676950273576 10.310478421285616 -0.0720255984086824 1.3731292678536158 0.5528784538386929
P 6.437958005932892 7.769725985493208 10.150005070342944 -1.4301727910311692 0.468075244049368 0.24045496696009558
P 2.2935923911327722 8.494991095629947 5.738969244512348 0.7355651036400687 -0.39263342087028513 -0.31782177507603326
P 6.806016315808261 4.01507659792774 1.5198671271312822 0.017355974779944303 -0.10607317491169474 0.8958864983723667
Ni 5.228019194158687 2.657474267964682 0.5331284432779702 0.1393190814490181 1.3737252495664019 0.033321496970265194
Ni 1.324254008231586 1.0636012885257145 6.808019740816797 0.19771551911004015 0.6927294965317812 0.8501740839369165
Ni 6.861320227232565 0.9391291512326175 9.302092644521515 0.17561097390151692 -0.9836858146755381 -1.1063336061164626
Ni 2.7844360284111156 1.5441977812309033 9.211603863271465 0.2731105482115877 -0.0884947997082992 -0.07281569841014557
Ni 6.1708737597475665 2.0321188174161993 2.617685399380013 0.925534917366419 0.1251139935932297 0.49256680143282905
Ni 4.096990611896768 6.753959738931787 10.168409338892774 -0.20544451232318164 0.9317395035152339 0.7216950305261958
Ni 7.992754726312964 6.974156082395935 0.41399005297968516 0.8846307229528894 0.45119929422963584 -1.0551457703887377
Ni 7.531994035470774 3.804811685955707 8.120809756057167 1.1569079766299042 -0.5165716489878587 0.6699119844166334
Ni 3.1805386802565003 8.244341970406142 12.148466167208252 0.5336800265333713 -0.41375734733309383 1.2196122976376609
Ni 0.19595048087772085 4.576152865176665 10.272522492645722 -1.365133908352965 1.5785341851881136 -0.008650733696462522
Ni 8.618308625083815 2.509242466229958 5.711891886607688 -0.09010842405232224 -1.033974278517445 0.2212997341878834
Ni 3.73097992686128 2.473602969567517 11.340384103690715 -0.1602190648264789 -0.0517629915049044 0.14006495847610717
Ni 1.0701139983688635 3.546729772766868 12.507910020158128 -1.213913704590987 -1.8020725788985288 0.917277305343317
Ni 3.011262346577085 8.463230359677414 7.972337110343479 0.5503806271175037 -0.8607621438654078 -0.5154035968216866
Ni 5.5698372368128375 7.843693050193794 3.548679977570315 -0.3478106081286397 -0.4203581404790631 -0.15341618297203255
Ni 3.095476555850826 8.422900268668107 3.5674405508830316 -0.16987509985900423 -0.31574252394950136 0.384335442527551
Ni 3.40872707485781 4.324195785759984 9.285206504872795 -0.7745417420135822 0.14965131661296163 -0.0593109790554914
Ni 7.02119733147076 6.056432278057769 11.385549115026793 0.795375905150114 -0.5669416167999785 0.46483925361057365
Ni 0.4427037066815031 8.779367398282469 13.452543403449319 0.39134092731110665 0.8556824153496554 -0.10382320253525346
Ni 4.444410306645925 0.41304471781131674 1.6848813342166702 0.4303090810441879 -0.46728000184158236 -0.029996546362090273
Ni 5.922326381606108 5.7788212557132255 0.5436308644280791 -1.1598495757567315 -0.1068542760520934 -0.6644519897433265
Ni 8.069319658651814 8.798580794357134 11.285911870725604 -0.15234968938073115 0.5552875775008178 0.2765087752598593
Ni 0.12867472942041425 4.785299250804446 6.0092448989282925 0.47099113214458244 0.8990250440013484 -0.2500163853962855
Ni 7.947905428057925 8.723188510605 2.6632987232911662 -0.23693306984976614 0.676869389571073 0.19123736758486418
P 8.308711357443139 1.719977804379724 3.596881246708614 -0.2475326997424834 -0.9346667044643582 -0.33802936037215975
P 1.74150943650659 3.330763984588643 1.5214646353213401 0.5505438921682454 -0.49495741315219277 -0.315875707093256
P 4.9275234836256825 0.9900040591486308 8.233979365049064 -1.9169713225216531 0.5913115610039107 0.33633834582298205
P 8.616197857627725 1.6499797041264859 12.537773771512304 0.3664485349448012 -0.3410167251352578 -1.3859037939104646
P 6.358876389319471 7.921421610745618 1.468140695933838 -1.3654370414156807 -0.8701950071435336 0.05508125724485998
P 1.828709389489586 3.3878900115092305 6.003224701491563 0.038669134435423726 -0.8790419160112021 -0.9610786187989834
P 7.067877765595825 4.062117847002564 5.989468631532003 -1.3526856552872832 -0.6783120355548704 -1.2991555445796272
P 2.4696430254939123 8.497670146631908 10.092945794188063 -0.45277769446034927 0.08359042042814636 0.10771868093491771
