# total energy = -381164.8633448443 ev
CRYSTAL
PRIMVEC
9.31794767146356 0.00000000000000 0.00000000000000
0.00000000000000 9.31794767146356 0.00000000000000
0.00000000000000 0.00000000000000 13.63775828977609
PRIMCOORD
 96 1
Ni 1.3070098670947545 5.016960002504424 1.7248219763113632 1.3357989068342735 1.3528000693779605 -0.9022553780131881
Ni 6.62172488359391 2.7539193987214095 4.755868316738924 0.3345473153608303 0.7782230475199113 2.0416947655446833
Ni 8.882892579919158 5.942875132707598 3.230579937491613 -0.8761982759148201 0.3446957166487419 1.419977338555406
Ni 6.549016938852841 7.4472764007244105 4.530149423466831 -1.1377293468189245 -0.2626641560672831 -0.20578466927141978
Ni 0.3546792873790276 7.72144768946736 11.153012960251484 -1.1335659594698544 0.5727721074388264 0.37159974012843744
Ni 0.13440952983480492 1.0716105581118447 10.875607411913554 0.8194188050319308 0.7080728117570708 0.6672771178969475
Ni 6.485272859655908 3.801033072721468 2.587055457566197 0.6367550380486905 -0.5656835760231612 0.1414474406459306
Ni 4.019911660696315 1.743471848334848 7.870704436930055 0.5713934819237451 0.3745035440387937 1.1493741301467044
Ni 1.0179484981651805 7.7183634488279536 4.810978385735027 1.3705476231693685 0.04791045052803362 -2.0792418705605225
Ni 1.4250030369340685 1.41750208915545 8.444390899960133 -1.3108170400779555 0.17827669365913812 0.5871306901533436
Ni 6.142102169297218 7.436775073834345 13.213446907868102 0.18571978020074464 -0.1717437776366268 -0.6797531388767712
Ni 8.033943696487897 2.5392525230396505 6.758054842418993 -1.1500819548470065 -1.7347338444425542 -0.21263974452004025
Ni 3.951042710346289 5.303878243497251 12.355522045560885 0.19503822938819315 1.379315856280302 -0.42155498900064176
Ni 8.45477016173728 4.412420883337968 1.457139706242985 -2.0832016265392186 1.1531711352952914 -1.6387036555891583
Ni 2.4848170734462474 0.5556646206715372 6.664717893594589 2.950227234815835 -1.0802744471355654 -0.4044491825582905
Ni 7.757955407972489 1.0903303147419627 9.054776099420138 0.29395319598855185 0.5357158260164774 0.7002227195850328
Ni 9.161788068070505 3.3912483753201137 8.53058098301286 0.31548849895716635 0.5828832277308994 0.9666347727305223
Ni 4.128857103463531 4.262951686671109 5.3581385156766945 1.2691101472574724 -1.196147124636185 1.118167879747229
Ni 5.541709536790992 5.316997913649169 10.373956137811357 -0.06632006338347288 -0.012044075648727644 -0.6297888911435023
Ni 2.076020078485308 5.772235559204687 6.64374319365711 0.9262291152199661 3.1025483849514757 -0.4037788959641433
Ni 9.09256503571354 6.419646555053659 7.835573911072976 -0.5884699777900575 -0.042412917748572115 1.5294073457544757
Ni 4.1440267220766875 6.6625002220774325 8.536336679215161 0.036447187083440455 0.3291006904239623 0.943633940959975
Ni 2.146221495335137 3.5475196736992602 7.133897984070786 2.2742117086046254 -1.2259048155145917 0.8468213654145995
Ni 5.676297971218778 0.6710506287860591 12.877807914514948 -0.3299614957623608 0.29861306335806637 -0.9875884921640541
P 8.287075059660511 8.591827852266103 4.835021485801075 -0.10321436530666096 2.354555597071016 -0.15476832612455282
Ni 7.389943069442621 6.794861667040509 10.65827653502694 -0.48807585554101107 -0.19454637735343916 1.2716771366537
P 0.6280361875060129 3.0025222393841986 1.5981547290967497 0.8997146138692055 -2.0748596823324266 -0.3210778201194857
Ni 3.7294339637389764 8.437736953613909 4.600765488982684 -0.6005330796021786 -0.915383944975346 -0.3749902538672252
P 5.80999188268166 2.723514935862239 7.261356325032486 0.7592601332641634 0.1133465686446564 -1.222508131128217
P 4.856588807202804 2.76350756675147 3.6982057943162903 -1.6060848411128728 -0.6310924404462744 -1.3561967537643353
P 3.1384338223642376 5.5903212691649715 10.208025855000761 0.08815541409100947 0.600477543773895 0.6119055831051784
Ni 0.9574004749782691 0.7659334251091868 2.263991034433225 0.576408418639833 0.9791035946214944 -0.0985904933814044
Ni 6.085495637924414 0.5489640845875562 3.788882469114861 -0.19532876404541846 -0.33395956117816034 -0.33842505314868165
Ni 8.216929550495989 9.1462084597651 2.595306500122677 -0.1019565816401599 -1.2980376289250999 1.818912533274003
Ni 6.620709227310842 6.9130877855686 7.499989893610375 -0.281554822324199 0.7697258086821775 0.4568937735112518
Ni 7.430112741335324 9.252377154162096 7.195935947071115 0.7868195309396707 -0.8278260552590194 -1.5278826815798332
Ni 3.262120258157261 0.9451473739486 3.0647726515886924 1.3726672406155327 -0.5076468356944032 -0.4083035233073742
Ni 8.264656077852615 8.640830938437228 13.256923519346682 1.131568212313535 -2.8405455166172757 0.6386645963665775
Ni 5.289183840209199 7.492664123245717 2.3492949806738435 -1.0693076637114165 1.0551647965521311 0.6009321148128103
Ni 3.756940544909762 3.529042183705471 10.12769955634193 -0.4044972621874066 -0.8795360820388013 -0.40526396515010205
Ni 5.423930679745353 8.961843549519452 6.113943331797858 0.3860485685639158 -1.2257965720715018 1.1049986893551227
Ni 5.513774330032857 1.774276982938715 1.6614748416801073 -0.21114824757617828 1.1194243778621495 1.7065316709767255
Ni 1.554876589901008 7.446950272560124 9.069846015994498 -0.5188254780190419 -0.10788760241261419 -0.1877049289515735
Ni 0.9396684207885657 2.0425500108818317 6.060810531272096 -1.8376587035332543 -0.21176042723888044 -1.1263761265896344
Ni 3.6632579002312133 1.2730645841661736 0.7616294651353434 -2.252681547842333 -0.20152717954664648 -2.206711765980438
Ni 7.393465253616929 9.061769219057222 11.162205115510623 -0.9327406910862387 1.1074998585104217 -0.1771981158829787
Ni 4.6743204351561465 4.479612603128799 8.041667343212987 -0.020478065348693765 -0.7321581348410487 -0.9862798006549596
Ni 7.2940147994042634 4.774739955914125 7.064045058459367 -0.6306383836279913 -0.9457957244979841 -0.3034505939560258
Ni 5.4771175243669115 3.2711307134391543 11.739859160607951 -0.0469030923094418 -0.8213031665388371 0.2730930647100909
Ni 4.282966638010826 1.378720791447859 5.358943586345108 0.8010457018413817 1.3663366704118147 0.04271245126686192
Ni 3.3653631170232163 0.03748423940848076 11.959673270516927 1.1414461335488795 5.012623237463612 -1.5377150942892228
Ni 3.148618339037567 8.925009702850035 9.6222297873333 0.657594600501861 1.5540760521457495 -0.7586811208322418
Ni 0.2648589319604013 4.421664287308638 6.2339417239501635 -1.3267172562479796 0.01559759732794088 -0.7386751100239601
Ni 0.7425742623933866 8.604817071152308 6.855851360941342 -1.9893723019918836 -0.883366511528485 1.259938250950217
Ni 1.5876198575954998 5.145221550545028 8.746507645203524 0.38485506247644685 -1.1345280662728072 1.2160171240872346
Ni 2.630232962928387 7.482144160460549 11.443402136707086 -0.3969220209433099 -3.3696803469821255 -1.8611974100851432
P 3.554629267680734 6.430091974258419 1.404757000495084 -0.7150818960850522 -1.0895864685651104 -0.08824103182628029
Ni 5.368488891816433 5.336360608660312 1.3212560771055994 -0.3338034952162703 -0.3189044666172508 -1.9759516577106033
P 8.023116241433545 8.131428063767286 9.139766030828286 0.21480615604373973 1.0390537499228814 -0.9752189148551077
Ni 7.317346940072165 6.846976947693695 1.5652465337306039 0.8534812939332784 -0.05999232139323217 -0.272991249024904
P 2.2030796112918214 4.735548668514286 4.835294501664322 -1.778335383182589 0.23505333632855002 -0.9561564989070177
P 1.7695900553205224 0.4476807900915924 4.64780248822053 0.024366601769822555 0.6967584151855162 -1.2928095477569412
P 2.3866338601005275 1.7008701921313145 10.269327700144556 0.9885315728036137 -0.2921868481167484 0.9617568758129306
Ni 8.298787719732218 1.423987380651001 13.293909248561178 -1.122694821083305 1.541105093807378 -0.5772203730181672
Ni 3.831950022695948 7.954806367936584 13.472318126732178 1.6425124878122874 -0.9781255469789413 1.4465615168018378
Ni 5.002554455590457 1.2291025076201827 10.280619188986952 -0.417396743857894 -0.48829825596446225 0.6985011089082357
Ni 6.714950948842456 5.10983198574603 12.55459254063165 -0.5941716561605251 1.5387445639950017 0.11729886842418508
Ni 8.625679955719173 1.7509727961134665 4.2047117190926 0.47910321972875547 -1.4647656985146902 0.48817664278493345
Ni 6.598737506985398 -0.04062438773319439 1.160910972057121 -0.3196331172531592 -1.285970670458237 -0.25318655559415104
Ni 0.4291706872813739 3.815569070901151 3.8170990778890386 0.1053434958345218 -0.0812561158680149 -0.42035634070685024
Ni 5.498436988363781 5.360251826181279 3.7865231647949273 -1.1342041072744855 1.597056155251701 0.6759844158629583
Ni 1.623950535097157 7.084333025662331 13.381109397128442 -0.270837693017011 -0.6706267510954709 1.1263743268174213
Ni 9.3055174090459 5.242752507562172 10.55938888484636 -1.3145883341949296 2.6675470406379413 0.9416171676402623
Ni 4.61329719664413 6.395811245217999 6.119903091051528 0.030253656678218863 1.2933137410868694 -0.16192396333272757
Ni 8.579164761544186 3.733599086294309 12.53541806816104 -1.5275173278206144 0.5065543739611728 -1.1899762199387827
Ni 6.503470811223166 3.2473979010265555 0.20016442211325947 0.06077959318121791 -0.3100704132653886 0.5586143278812056
Ni 0.253302813407553 7.452839215412405 1.676816842322959 1.0703610446765954 0.3877197856187516 -0.6725651057687643
Ni 1.5650517886267863 0.22221627678764314 13.273479648555439 -1.2088308907514407 -0.5511463016389346 0.788713405528274
Ni 2.6640943843290077 8.268905061935907 1.8974481362321636 -0.6574699019985386 1.2017608712785368 0.14338682376048856
Ni 7.87368431655689 2.091245604783771 1.960196126835885 1.264206539308268 -0.6602315239040759 -0.07857959747711628
Ni 8.792592350201652 6.208716176339882 12.988696149346564 -0.13003868458835668 -0.13083212702392952 0.14568821820015554
Ni 4.980014340464396 7.664831840147004 11.038483271516906 0.29181686637183935 0.016632466350358453 0.2667131293256762
Ni 6.236474342094548 3.041555121675669 9.391124188581928 0.29492173054940823 1.3002544340707607 -0.7029221207940669
Ni 3.263573857975229 3.735499947594729 2.4497918403964962 1.016465065989088 0.46569363119106894 -1.3602097315784702
Ni 1.5598523738932843 4.4329483217929955 12.822765866535969 1.4729855153213214 4.230496741124237 1.6612812837793582
Ni 2.4465016731162104 6.327790228095122 3.3314038571733087 0.21940894492307375 -0.3773970635365049 0.6708504370705027
Ni 5.457503244771892 8.593915072517545 8.912301885979874 1.3433746622990024 0.8561567838829126 -0.736533381090609
Ni 0.9559841469505052 2.4904917035048544 12.985845789190689 1.7340347614930005 -3.8224364441759198 1.1199563391062195
P 7.3770283941368255 4.87322134358148 4.672950696866137 1.4063360936228877 0.6108627436629609 0.14157805268652393
Ni 8.547604873188682 6.6870064241367695 5.674166956613846 -1.1471832931429726 -2.0147861140792975 0.3080114738538308
P 2.886662879534082 7.790903670513104 7.295586737156129 0.08412983787138414 0.7918231548018492 -0.6741555901843358
Ni 2.6123984113156213 2.681304633455851 4.323987970309697 -1.668778620597668 -0.146956800499934 1.6260723399783932
P 3.7891433716462912 3.4609279871070826 13.285058130182408 -0.0692763177983194 -1.6798089102699005 1.2044211917195193
P 7.43603895597781 2.2423268063769664 10.98494141309365 0.4470582754780687 -1.0395083209617968 1.2656332444524654
P 7.711617254800973 5.207949973458891 9.264633982370786 -1.4725078043539543 -1.0981335868041735 -1.5292589931020695
Ni 1.3341903201012522 3.725334066816502 10.786921050711895 2.0285885671800292 -3.7732520120314694 -1.267064320472037
