# total energy = -340869.6454995684 ev
CRYSTAL
PRIMVEC
9.20863395486544 0.00000000000000 0.00000000000000
0.00000000000000 9.20863395486544 0.00000000000000
0.00000000000000 0.00000000000000 13.47776661593119
PRIMCOORD
 96 1
Ni -0.17992105031414532 8.424131894575405 7.686707260249918 1.9535707189122418 -0.054161316533751884 -0.9269657362756746
Ni 1.3240265803687181 7.711659895332613 4.293518155219747 -0.5622663228114962 0.19258513986201026 -0.6255532557956001
Ni 1.4219696097592611 1.1800772163753963 13.029024347998542 1.7417020482302714 -1.1804374272104121 -0.1073031906640539
Ni 4.497837480860166 8.6501301859728 2.795301978231193 -1.048348030740614 -0.12092309544033367 -0.676227642222016
Ni 7.958773584096738 2.7003582008783056 1.042427478783548 0.6283418742843307 0.7751346384025747 -1.5806556024064908
Ni 6.915324867821707 4.3469355983269935 10.29559794304526 0.42594206232474385 0.44362636697838437 -0.28878142197962525
Ni 0.7729239177309536 7.979050995785152 13.212753168400408 1.6623192381255694 1.035705659386255 -0.4770599640464816
Ni 6.151542360891431 1.1614757760436083 13.277824137616502 0.7363096951155771 0.6355558755342666 -1.1730406205257087
Ni 3.0728013960363083 8.600817951825908 9.65527006466156 -0.10985372500004953 1.395189847198081 -0.29323765797876594
Ni 9.141871232367594 3.231862128140751 9.037422303177838 0.4026182999971389 2.1499420652895616 3.603520379728865
Ni -0.004348316893401136 2.839776917028439 12.183038208615885 0.7587245724756676 0.5231832407671054 -0.7146378665690983
Ni 1.5496749436806652 3.442159698862059 3.1540666687016525 -0.09546634593012591 -1.0673325422629167 -1.2977391238480747
Ni 1.066479509477903 5.723000168455579 2.5646570102043813 -0.45282603119978143 -0.24613659072590513 0.18967825062786042
Ni 8.643748602730263 5.872944353070681 4.483123004867016 1.9517642618311222 0.6397256906412402 -0.6163834163708739
Ni 4.708015339341715 3.6264244617526917 4.5160622880684045 -0.5915005370862652 0.24013486461651548 -1.148391711628777
Ni 7.530526067943372 6.669822689977416 6.438396829802021 2.68599984802649 0.1482130415045383 -0.3132968906224862
Ni 8.688078965976414 4.526172447147746 6.520017555733112 0.5646728753704598 -0.6746546413079413 0.778314321682137
Ni 5.629274693358084 7.214273956401493 7.227708432292603 -3.276167268123629 1.0605047207078058 0.016262998826081666
Ni 1.19892728982053 8.631602414711635 1.9379947444208638 0.7614777097407724 0.26686508152250815 -1.2843051098303557
Ni 4.103551406263054 3.3944129324658605 6.750581487782242 0.17369833025983633 0.34595041499144935 1.0927227002012472
Ni 3.0567415386409427 6.135556172566685 10.552889013915669 -0.6931552712152901 1.0008047337440118 -0.06263284433987279
Ni 6.558333760226447 6.670144992161383 3.7818072655063837 -0.4415980236944459 -0.15702986846521988 0.4402589931680482
Ni 5.828521903486251 4.647634327334026 2.411953918894526 1.0259256971813557 -0.9890799891079158 -0.6835581144451582
Ni 2.922332319293033 3.9998529807302496 9.047098735603898 2.900170684479076 -1.9606651638651784 0.551112877297838
P 8.238043822186903 8.175268565384032 4.855755897881867 0.4613752063213732 -0.46225735181601035 -0.2231609557663382
P 7.143210929153765 2.7622586374675526 11.798854926191051 -1.4969165722156221 -1.6872867067041843 0.4504706435937274
P 1.4422009782785377 0.598721429023759 8.396433244885314 0.27619021557817597 0.05598320023383906 -0.3783185469095097
P 6.245820354018581 8.493675497241574 0.9834332870302971 -1.2029646617786507 0.7988106418632758 1.231715251548782
P 7.001950486238108 2.982133187369583 8.610042240331033 0.40834414673732256 1.1363512355244751 -0.2814884878626378
P 0.3908153405074831 2.9525366382476195 5.172752987900401 -0.011127220261413096 -0.6066448489268713 -0.06870836110999136
P 1.489947744674736 4.233227387823568 10.788844601070867 0.8551165155438564 -1.434775065689871 0.2552326394899024
P 3.7670679262018987 3.2361809774059034 2.526177812892297 0.23320394182463708 0.8554142492899333 -0.08738279759104306
Ni 7.786995728676355 8.532370176585225 12.838327354379317 -0.3177639252549043 0.9229285900918233 -2.295372658952956
Ni 6.251142944370944 2.201839599986387 6.682101482323162 -1.2162269261051957 1.1854965869008744 1.535588277754207
Ni 5.0226375226961055 5.482148350694236 11.911501381214153 1.1719903248843235 1.4285702224307397 0.0335922341331486
Ni 8.418091030784487 7.751385941664957 2.5413002313640107 -0.4199804454246703 -2.703175074254196 1.5140465470276894
Ni 8.301390014287087 3.6399335275778073 3.296459773578107 0.2451857967768616 -0.7097136897946036 0.3696469872774408
Ni 0.8606619391137308 8.09088985362157 9.994761084530813 -0.19827627670951659 -0.8948786259331427 0.5949180474082464
Ni 0.5019055364137163 0.337910818304436 5.776732546839729 0.7376677518053684 0.7893433258027889 0.5823114143878294
Ni 0.26970707186018456 0.7298588207727161 3.542226239213251 -0.6764906660754155 1.5294546540526432 -0.22717264802889264
Ni 6.811340974640247 4.509136474566653 5.007946989150907 -0.03239307161872486 -0.6710975200843022 0.1427085667465413
Ni 5.071489325151618 3.012659808508136 9.744640776821972 -0.6619256237770471 -0.6821635480904769 -0.4969423047927055
Ni 2.3831115568830437 1.9336289311231902 10.818765294103564 -1.5525814698780938 0.15016785123806395 -0.8500164753131296
Ni 5.286243874645494 8.073439492518235 12.218229002788126 -0.635104646929461 -0.25885892338858 0.850049128323278
Ni 6.184822363544441 1.0323891470480617 8.892980277274738 0.4126972814996957 -0.8860947090929255 0.4072928226546728
Ni 4.994468311817423 8.651621984652875 5.2788769675833995 -1.9680460297102815 0.22877573084995437 -0.2316507384049043
Ni 6.933235660616424 9.10032187653738 6.450540255230501 0.7763888225246499 0.22690011109379632 0.6787992596039342
Ni 1.428434070706249 5.436086764288491 8.790361103626532 -1.2410563264440497 1.6822625140167158 -3.054266410016637
Ni 7.373528069816315 4.586884969973231 12.69577309841088 0.020071573938894464 0.7969936432591952 0.40782684078127185
Ni 0.0198400015816026 5.709417433559842 10.38959231025052 -1.508631289549389 -0.1723744692420902 3.1913185498083494
Ni 3.2749309085525193 5.2333955251087945 0.8059046397845668 0.7280471979964688 1.0788917078554259 2.195302238591916
Ni 3.491775817925264 6.656387293222922 7.802669744314344 -0.9876730814580603 -1.512236233291828 1.0240390216816042
Ni 1.4160760841095859 3.1206678746722654 7.3469869453983545 0.8670713739128872 -1.0517148903303177 -1.2530561791184032
Ni 4.3248072512392275 6.079088829935733 3.4232856829689737 -1.5170542235057614 0.3369207006890133 -0.3265419285578505
Ni 1.064619365444724 6.66230844477408 6.521042476678126 -0.6167698531760152 -0.8585499667054376 0.37681445156015747
Ni 2.608787546096474 1.2755523319001378 2.611128380815454 0.3914491707541968 0.05196790842685889 -0.07453088132903939
P 3.615475396131654 1.987296849070547 12.861630723143488 -0.3374614036838317 -0.6473531252795109 -1.1997690376594885
P 0.06886584721645712 0.44275019356848216 11.57725283658296 -0.1578107124953024 -0.19295383605533867 -0.4862858535201238
P 6.46473720600254 8.796206744380303 10.626329710417686 0.7300421169393104 0.639283718007815 0.27606808817801487
P 8.986401867455921 6.282212874905326 12.588139823643536 -2.258351601643917 -0.5552042737583922 -0.9493186500495779
P 5.644754406822311 1.6459051671792715 4.7286878014213345 -1.8763424932566977 -0.9334258900787215 -1.2782277932880244
P 2.5260479711553274 7.137685748857195 2.3483526476373173 3.2411478146256503 -0.332815163161072 -0.04023930713602102
P 4.67969879032179 0.01093893612382721 7.807320104397291 -0.35490402464031134 -2.2098086597382074 -1.0517488288920467
P 4.808380239428922 5.127643574232432 9.70586506150064 0.2876506508092917 0.875516419356447 -0.5395035751936837
Ni 8.534524996900887 1.9323673482888066 7.455967443294681 -0.3544684797647895 -1.849502747356034 -2.815428152724358
Ni 3.1678713316726346 6.784534641568052 5.352007333125425 2.768508605354684 0.08931883827149134 0.18012583105273494
Ni 7.165403736678324 6.596715346019959 11.031794145618145 -0.4220067318260797 1.1381268393676591 0.6760571780824228
Ni 1.8011903594143908 5.769319596608496 12.65772486516193 0.5245914339685417 -0.958586191394433 -1.3646885932854302
Ni 7.644096148939382 1.6427005626072604 5.053407251767709 3.550008266743338 0.8714941855709313 -1.4555925166558543
Ni 2.0920911020288377 3.3212042935362986 0.3632612663684851 -0.18771469914358638 -0.6635593027257282 0.638573579314668
Ni 3.480550493289398 1.6619097727716712 8.24130367856188 -1.042431665256179 -0.355203301048285 0.7447956210994011
Ni 8.155635758063552 0.41538857987648126 1.4722708511792408 -0.7991140320363077 1.394053933821425 -0.7485818276147107
Ni 4.473766112034773 1.074546272710896 11.064895500774899 1.3750246851041157 -0.8183294286224939 0.20443355456016404
Ni 5.010426874240684 3.690295545981049 -0.008862389195699392 1.5873810940557822 -0.9917199978339243 1.2456827694724677
Ni 4.487321221029027 1.5953037242965116 1.252574027910083 0.09231160235122811 -0.34579666302240447 1.0298191186984909
Ni 2.701684244149482 2.3920531403296605 5.08444679381046 -0.9776210965386969 -0.466699446747764 0.11513888465838881
Ni 7.156056973343293 7.967733584811009 8.676919022640725 -0.4364630164607258 0.000924311586482279 2.023656162875418
Ni 3.5703622990101542 3.8092895123015262 11.70953762410684 -2.073986278588538 0.1570478661873489 -1.3914571196285261
Ni 7.211888920240139 6.603050886093359 0.4412832581997426 1.2484176519051273 0.04316110876850631 1.0038779733526968
Ni 3.4208969633540893 8.503952332593196 0.47925690151469025 0.13434014017718798 0.8774578593535339 2.320688769120242
Ni 0.16603995568239419 4.6891100140936155 0.6682208302475563 -0.7063308893652998 -0.1251024236290039 -0.289184828065631
Ni 8.736792638924513 0.7261468204768033 9.44559591845038 -0.6428650076011703 1.1304834638897885 1.401046305978858
Ni 6.496902963962409 2.042456565697978 2.6120179348432018 -1.1463273729005807 -0.02340243808434034 1.1253129754324427
Ni 6.611854340032562 9.020860575238867 3.585260947679857 1.205142900376892 1.1082246524915882 -0.3590563562457881
Ni 5.007167017865708 7.423659872373866 9.691308974009324 0.5526743082476868 -1.0428800656475072 -0.0001871763101416131
Ni 2.0614079341152154 5.044913207925114 4.7034036555208445 -1.3524028339395417 -0.837462549907519 -0.7540446505014949
Ni 2.6478966139623665 8.492128446758535 6.5997523534563065 -0.005197485040539436 3.196901186102449 1.257738415085421
Ni 6.187096896099862 4.930440680813996 7.421114605983913 -0.4555550000951703 -1.5419196192888733 1.0434310530549709
P 2.779027559667645 0.2665475895939289 4.443875807493709 0.17610334015690315 -1.1652437501891095 1.3928252036206465
P 0.7917482070013699 1.6613296288405313 1.4592378717230132 -1.3142898291179044 1.5302478393779002 1.1805983782683087
P 5.356487333482562 5.811624060412573 0.5755359307725828 -1.5286493845425286 -1.0272323318079213 0.28465454429544523
P 8.654329322998196 6.414761950220058 8.532127068652176 0.003139574070246206 0.07166050175977981 -1.863048861471585
P 5.2483595550786735 5.877963058506732 5.57150617076729 -0.33784655493739235 0.005708620349003071 -0.8888324197390629
P 2.924837067694145 7.7284380261665335 12.208484426471744 -0.44572927225400005 -1.114894608312596 -3.053731363448773
P 2.5380007778635756 4.811511174930311 6.689904878628685 -0.07381997130494383 1.3942202841959601 1.849542599455034
P 8.0421853893073 5.484468926418795 2.2840901964712867 -0.6146674621210316 0.609153474281338 0.13969446251056586
