# total energy = -340866.25304994715 ev
CRYSTAL
PRIMVEC
9.28450175215919 0.00000000000000 0.00000000000000
0.00000000000000 9.28450175215919 0.00000000000000
0.00000000000000 0.00000000000000 13.58880680610559
PRIMCOORD
 96 1
Ni 2.0120815586218463 3.111153047611844 11.689567708780476 1.1160446627566392 0.16953725690361124 -0.693091250746574
Ni 4.810124062000447 3.113724854655866 0.40323984704857424 1.7588968148420032 -0.24804692037474058 1.0432970985802676
Ni 2.578937541530649 2.6476335715621326 6.157048116269465 -0.18483634915452685 0.48133982236875816 0.441318287670498
Ni 1.9347695107677891 4.784860932156459 4.606864031204222 2.876960307800884 -2.5171948413032132 1.446572058324799
Ni 4.5399821928565 3.614252355533999 4.866083612237744 -0.6966164902910132 -0.37973599608232667 1.7682314619793678
Ni 3.531573865544762 1.4137232605492618 4.090013447423217 -0.9719798390925194 -0.20164390763016884 -1.159482679335616
Ni 7.644877486144622 0.8780307084825563 4.175446649145167 1.2531245704624934 2.0415852365500133 0.5617914400576066
Ni 4.27223572521926 0.06430446060252179 7.505532895318629 -1.200531626857126 0.2588404114458187 -1.8315610752759488
Ni 3.623184046423347 3.754429766186161 2.4646694620591676 -0.10077798795102645 0.8035378721356161 0.3570724930465399
Ni 4.423276003169278 4.461156771182314 12.044465939453199 0.6531288514210235 -0.8249847291554824 -1.2060985794219423
Ni 8.222206387268793 3.224034022489906 10.847944317849274 0.014890029737955002 1.5297346471869073 0.6977475185716628
Ni 6.75276683043369 5.294403684441615 12.562010075530914 0.8080861536279309 -1.5762186496810597 0.34396012403429793
Ni 7.101139913126128 0.9680114592664634 12.246042690043353 1.8565475700179574 1.4915509370283344 -0.30027836687563125
Ni 3.564923796599376 8.066774539889813 9.284579953795966 0.5274615564274852 -0.006593079836485419 1.2329799771938184
Ni 2.8788548084730774 4.4054219058925455 13.684200902861416 -1.247133128765749 -0.6179373911215551 1.0850039914007505
Ni 2.810325899476945 7.970113589942822 11.783112779868356 0.24797132994179874 0.4020565139563979 -0.43894618789389567
Ni 9.31978307144259 7.484524852724732 11.230197476658468 -0.1923293150974623 0.4595916320583891 -0.816564366302271
Ni 4.851087284665524 2.871000119811551 7.706892388562825 -0.13721566195277016 -0.7722076945637669 0.39398607824343757
Ni 1.908698629252935 8.524324081176685 1.182632935116009 0.24569667497500908 -0.08335439315794031 0.23362354586055895
Ni 0.7796196299153559 1.5412644640284476 4.75216927229109 -0.2623484245990772 0.37868544333062526 -0.012967101683629282
Ni 0.5829553093143428 6.579378756256373 1.1662188640938898 -0.8294466215815779 -0.7561179880907558 0.6427220542654029
Ni 7.142381670850124 1.7401106425909958 8.672281904474662 -0.9462670077074476 -0.18456689754322408 -0.011525741251412409
Ni 8.542029626421995 9.035222370748583 0.010000337065402286 0.9267343369911587 -1.5485396957085524 0.5704126060677145
Ni 5.793872752095854 2.331849090763263 2.9113338532434705 0.45026932621619875 1.9334423235934832 0.9470691918937689
P 6.755273645963965 8.2371544354308 12.608510575167308 -1.031512447240514 -2.1199732868416135 -0.10947525861470823
P 0.9829409384245423 3.5091517933017515 0.37886245869194973 -0.1933911807030734 -2.012301657094547 1.3917299136739385
P 7.302984985823041 3.022931709950111 12.96514872150808 -0.06538521027402933 0.7741244519705055 0.28511837130574125
P 3.9040309463317624 2.0957349213173013 12.355854208572124 0.1367844879526225 -0.4614335703631343 -0.5743913882098043
P 4.4720196384801705 1.5834810944586621 5.992785779072544 0.9000367730953145 -0.8276350222941359 -1.2095253457153041
P 5.548520503195734 4.545803575587915 3.2873905354419057 0.38960697533913546 -0.16002263254495666 -0.7897220492984464
P 0.3416213928642317 0.5022209940363629 6.755213296701199 -0.6821177824542058 0.23477308608396988 -1.087851745262191
P 1.8810029598943843 2.9990519708987557 3.52984230592848 0.14381311266462973 -1.2763115501019182 -0.032029517631719025
Ni 6.630137128493449 8.642135126597621 1.8427508118027889 -0.36720829592896115 1.6740707222345426 -0.8407394208865779
Ni 4.199064565241138 8.692531403258101 0.18140338472282005 0.997255840050489 0.8695193212327478 -0.5251671039663536
Ni 6.964007819118151 4.898243270140576 4.979020294127589 0.6479233959606842 -0.11837024711149292 -1.175308590624279
Ni 0.23421734569472083 3.5265323809783213 6.296196804104018 -0.7141879235158732 0.2967824379072308 -1.5112062493654168
Ni 1.501313252077444 0.5477846874245922 10.745865861006301 -0.9953966753545632 -0.47360440139771337 -1.3641689733365343
Ni 9.580120506512575 1.7545666121489119 12.466874569256603 -1.8765407253104327 0.21113719183258473 0.12784579070209595
Ni 2.2914986452278083 0.6705657267468459 12.955976562017865 0.5161857264033497 0.8542030025906515 -0.5693209156654324
Ni 8.705576128517492 9.31486228540168 2.5197720527651897 0.0950112606705783 -1.978006483357103 -0.5053356710627233
Ni 6.258459945871423 4.009047948046335 9.426148182842331 0.21898265601893255 1.3372466950243938 -0.30508581556660364
Ni 7.05408605717268 3.609712234073613 7.100871591019369 -0.8944790765018789 -2.100334429564763 -0.3545368711088797
Ni 0.7207243201570486 1.3120208260358304 1.3020511278269093 0.16751225605378245 2.6095884618452865 -1.023247121907928
Ni 6.741838971622086 0.952794160547501 6.338146040877669 -0.9091611039940859 0.34852948857253524 0.20742271909547502
Ni 3.6466924053961436 6.852175992962018 7.100097263555573 -0.9424093245242544 0.28189652193433384 0.2520239027446176
Ni 2.4212495601744215 5.710293665416112 11.715440830403498 -0.24187678700828663 -0.05851522262707342 -0.07612470817872051
Ni 5.6711037826261546 6.711292960160594 2.706699716156577 -0.18094215630644322 -0.598576212986124 -0.29270158296963783
Ni 1.9192643924879438 4.828535229395017 7.496305957266825 0.632321170647053 -1.7125128282608248 -1.3173201313037959
Ni 8.437124038730989 3.3497740325880803 2.9224771125006384 -0.05441996951177725 -0.03472994728201761 3.61818260972673
Ni 4.906961417484752 6.021500886746739 4.695449321342943 -1.5237645456464015 1.3012329959339461 2.509355290654136
Ni 3.059066991593919 1.7554486398354898 9.208957685299351 0.22650647519980344 1.2765748310656337 0.9642883839855327
Ni 5.650204368705237 9.44076013203324 3.874249977832102 -1.8447495489417647 -1.6433151862192408 1.0024929200797121
Ni 5.889874502403402 5.878176029928789 7.179225359993785 2.1329499016069393 1.1010119367932327 0.3069444660418972
Ni 8.91301047139672 4.202806219532621 8.493738146356748 0.26457268594390565 0.7350346850578955 2.226289173891734
Ni 2.413134905457903 6.0357618817634116 9.285571538605717 0.18518216252971978 0.09571959959151256 0.9225627221119725
Ni 2.904925689987932 6.283936619260583 3.142398182071224 -0.03356009534363252 -0.3516014426296396 -0.773397858217126
P 5.004495110616357 0.8226514396180079 1.7988861822739677 -0.4443462758635444 -1.1989167169615225 -0.660281660415721
P 1.0821644109135908 7.584936741465169 13.050813107328933 0.3697971397020599 0.22568783595325004 -1.0636021286862072
P 8.474020649535843 1.2530828075684888 10.228552909027488 1.4204666194869988 -1.6048435125066038 0.9469362658603305
P 7.691504255007727 2.8178741995736605 5.1122584680118734 0.5546003216258061 -1.0386775975303852 0.12078245609741134
P 5.394119235534755 5.271925905186821 0.9685146792729109 -0.6493015072551335 0.6053878365913187 -1.2993704888039106
P 8.081834002075388 5.350305670766736 6.8414616776955866 1.9058158201254662 2.630529582873328 0.05894485396532429
P 1.6351772013940997 3.651446070401701 9.567784188753034 0.7173493519629904 0.5816722381419337 -0.22639874597734558
P 4.692665827654142 6.186087253062204 10.076317715674707 0.06312649614683967 0.10733481523293774 1.0156302287926187
Ni 3.804306110736659 8.294616218085869 5.28569296469901 0.42495604426239075 0.9474378880870975 -1.1056859452301346
Ni 4.779392360499674 6.6418541699719915 12.608686980704624 1.452892601226188 1.5487518117193586 -1.7590076293882544
Ni 1.7738041002182772 9.446052298152711 8.237874912783205 1.060390563727445 -1.4895683593806668 -0.8199214556999621
Ni 0.940538617955048 2.267293948607714 8.110276145391841 -1.016782083008875 -0.6901095424104308 -0.14925948049118165
Ni 3.8668372314640607 8.161114364345808 2.358487255348116 0.6164950022480737 1.7815454054794544 1.720558838493753
Ni 8.50324826171845 6.790406201395663 8.64420742743598 -0.6849799344933493 -0.1861661237095439 0.4873014392688317
Ni 7.176186542500973 8.69766573284418 10.18665937926562 0.1757737247316263 1.2939336340590553 0.37914695634807605
Ni 7.621981904301448 1.9953044635729353 1.4164426911745112 -0.6639267133674759 -1.568703829361253 -2.2149984314692626
Ni 3.803823316634532 4.2182649153026475 9.78659111808794 0.23435168227583514 -1.0867029763697285 -0.5779590509564047
Ni 5.851715199331447 2.615119245684277 11.239832004346491 -1.0844239505275648 -0.023902003428578192 0.18697782097756185
Ni 9.361470485260856 5.690582667746583 4.918333075490234 -2.647375965006705 2.1719021145004205 0.6301596442193599
Ni 7.228690401107278 6.623665830624556 1.059846325092577 1.0134846432045255 -0.3704957084309813 -1.5500998411068208
Ni 0.3269314538568234 4.8201327551176165 12.542183950037032 -0.9399557207774393 1.5821352722758106 -1.1594888499832032
Ni 6.933248264111486 6.417364196984932 10.412980256039978 -1.3371160829838005 -0.5679880557866218 0.3437966018732402
Ni 7.577731967941122 7.748446105552812 4.2327227417609565 -0.9327571461464711 -1.1343180071445305 -1.090244928084716
Ni 8.275972938142198 8.085324974813844 6.530128187138248 -0.9623510577535039 0.31264820129489385 0.569132196693394
Ni 0.9787721970427155 4.700093429225325 2.4192292525470593 0.6535140026745843 -0.1757744960625747 -0.2904323273194869
Ni 0.46756659045580956 8.458840488824737 4.795462904949126 1.5469592385953101 -0.6967350181467485 -0.035659143964506326
Ni 3.0692613747503685 1.6820360828063041 1.3592473737258084 0.43084464183268384 -0.3197485597851009 0.1660618967605011
Ni 6.3190784591942455 8.324781564966838 7.930387062939347 0.06635708726899539 -0.4856831869391183 0.8213322200045596
Ni 1.0270794607613005 7.004859627759661 7.148514084397333 0.9305195150652038 0.666807891570013 -0.9072901122236181
Ni 3.3824833330071797 6.505390560105421 0.746461888051396 -0.6240170216567318 0.08087687815172523 0.8991155468326257
Ni 5.068651019187455 0.20885115787893252 11.579416377479824 -1.6853154419104264 -0.22728911900209886 -1.0359635410333319
Ni 8.210275802245079 4.3879670422002635 0.9526994586274683 0.08759517071216527 0.2622157556759549 -1.1375367711921442
P 6.06548157255011 7.766875841951312 5.843010050290021 -0.932629105209039 0.19119802970649652 -0.2987508744875113
P 8.900197858686429 5.473399597805176 10.534559880808093 -0.9707241123085477 -0.9092868309386728 -0.680476647306357
P 4.177617365704346 4.807997911050695 7.150416478849753 -2.0890729977183313 -1.573684056184664 -0.49099560029096734
P 8.342282851168939 5.9973518971384285 2.887485681498793 0.2543939456386909 -0.4699804314918809 0.04665909461943577
P 1.4641473907156342 0.09792828446507343 3.06052558685246 1.2080708726569644 0.2972110408042172 1.1715681497452406
P 1.1984527980124338 7.733433065877057 9.285190874025195 -0.3563515557201153 0.5304651191404993 0.67781529842411
P 2.1878743188078333 6.8002570579794455 5.07391068955005 -0.18037831338317323 1.7856560852137182 1.5448028543739394
P 5.022247078371485 0.9098876916213625 9.21361850528527 1.9441797646156453 -0.09178504042379676 2.0938282530151295
