# total energy = -340862.4516273764 ev
CRYSTAL
PRIMVEC
9.32725374373994 0.00000000000000 0.00000000000000
0.00000000000000 9.32725374373994 0.00000000000000
0.00000000000000 0.00000000000000 13.65137866722340
PRIMCOORD
 96 1
Ni 4.573805377972663 0.15879929176254254 13.39095153669228 -0.2584776287897613 0.3116058760733085 0.06043095159254753
Ni 1.7012910678512425 4.925489477278206 7.395183952620467 -0.7606945517178447 -2.411086442278209 -0.9077179437896561
Ni 7.536019886556394 2.220072916501934 4.994984978859051 0.5728235295020522 -0.48978049693694353 0.44596581374483835
Ni 9.217611794674623 8.633091462217925 6.599758558546818 -1.0239513470638042 -0.16981416471408173 0.7543215583119655
Ni 6.7164900708454205 8.653779310839054 12.748121877970933 -1.7528680921494197 1.8778548161361661 0.9103165577547677
Ni 8.937010695523105 4.025596044020049 6.172743827769818 3.1619079578567155 -1.426914946215504 -0.13200069341073395
Ni 6.205291279421501 0.8933242485043873 3.483381335995659 -0.13148081635152195 2.193608652939577 -1.3362941013031373
Ni 9.290569572814602 6.85392715354711 2.312734518001759 -5.404087834836776 0.42844503125225564 -0.012236651275507958
Ni 9.04405958579574 2.594804659604957 2.3714766288363003 -1.1703605025903845 -0.5520580148199267 0.9715422373344685
Ni 4.159600697374319 7.801902579430119 10.224759317785967 -0.34272188075182264 -0.8041721632855053 -1.8292324271427722
Ni 1.7090326883902585 2.965572319901858 4.754611392024066 0.42681495184800045 3.8926604705994894 -0.5611826028290142
Ni 5.3972899492360975 0.2330470290839035 10.68292707579226 1.1418868206307238 0.559918648514926 1.1405914988580679
Ni 7.225189158288067 7.890977851897111 10.800001831025604 0.6805866905216601 -1.4892734538480672 -0.22938765340234046
Ni 1.6145009725313093 3.8094742494302403 2.2259938571262317 1.095365794251049 0.607945827126482 -0.05297758063829585
Ni 1.4219678024513458 8.096317341254267 4.596760681958895 -1.415930679289858 0.26368771223579107 -0.4230860809331875
Ni 7.825593803730241 5.075135935022753 0.9386836157854584 0.015155624694515835 -1.3190862220652833 -0.8164949465169165
Ni 3.253616567475225 7.824670405617756 1.188632561229303 0.8231438192920018 -0.18374311609034807 -1.1382314832663236
Ni 8.963500095921665 6.2324802238446715 7.100328011698132 -0.29780985073048066 1.0490694822876707 0.5335658695530101
Ni 0.9546630667582805 2.2107549900941303 12.608850124474033 -0.39638774570639473 0.11600611775469054 0.9747705144637794
Ni 5.633773138568885 1.2965442224656238 8.215631570091729 2.435397765330064 -2.1274773085281424 -0.5098852381066187
Ni 1.8971727219956718 2.486449953819717 9.385213215717489 -0.5902062437548738 0.6913984364251834 -1.125035810511656
Ni 1.6634224179856938 5.585271419529266 4.8499256644652124 -1.53573020264871 -0.7536229895830441 0.5783105207585524
Ni 6.793383950030539 3.3402107904682676 7.255175346084313 0.42507020124275186 -2.706457344549894 0.6976032796843147
Ni 2.9879390741820515 1.8131341665058711 11.640366865965559 0.8064375622809143 -0.49204975258709444 0.9482668117462958
P 6.86965290322034 7.4371509977448635 6.159720183482314 0.25129216678491556 -0.6931066773655418 1.7032591708730407
P 4.773884296264751 5.9184875565851085 8.805316402900779 0.15933074868425462 1.1971737661284865 -0.12379887432623193
P 1.1748981802127954 1.5836557446728439 1.1118608690671494 0.6070983915245222 0.15441274255734697 -0.7113910774970263
P 6.96145173375648 6.399512682414189 2.3295664799592393 0.666963957531903 0.619856719631455 1.4054562621210955
P 2.2491646206720435 2.536285470132925 6.873400593741517 -2.3259962973760846 5.130520658703745 1.3994573642251835
P 8.841005273585644 8.602609997252257 12.446262102274202 1.4395786577261012 -0.14836447948073803 -0.2984153455249635
P 7.729914835670931 5.838851464823519 12.26087640667502 -0.2342490952596998 0.2389087055188982 -0.12879427065829432
P 3.588147847297334 9.390865531436338 8.58107896490013 1.0929630983468275 -0.33564903306544136 0.15747209820896108
Ni 3.2555566362368094 2.8489816491335445 0.20197048533463396 -0.7329976000232086 -0.24716194666662594 0.1828576281616012
Ni 4.33582050080038 2.9844040450443563 7.596650766257382 -0.5038670569369967 -0.08128285534089227 -2.6303552620789925
Ni 6.818063863218776 3.6121655254756067 3.1326364911338254 0.7853848553756732 0.29871410771230494 0.45714368473852884
Ni 8.226451184339028 6.48749666620279 4.680170580551913 0.9245972360434979 0.2018457392283298 -0.9430238181798017
Ni 1.3093971780111229 6.928675764390091 13.181689004445111 0.07590282197590155 1.9363702958735556 -0.053302825188198524
Ni 8.937980729903897 2.977054169159122 10.100204105116127 0.21678410570571693 -0.116075023319413 -0.6248408031096079
Ni 3.807123781507551 0.90580597935416 1.8087121155449704 0.24240334893571802 0.018821760692193393 0.5677736257829705
Ni 7.19387756774653 3.6898988574902574 11.563455264998485 -0.053497200587191734 1.1614169202438513 2.0082832799637735
Ni 0.2509096525709754 6.908864677613139 10.87354162979406 -1.1808840278295274 0.9328741313403095 1.0340185014918193
Ni 3.682791490200221 7.116097599463571 4.885527791691025 -0.1872272179842066 0.9306033330282617 0.3037717247408704
Ni 5.703736868283535 5.6475868012415145 4.120354412142972 -0.15118138010424284 3.744698882984125 -2.645201840173522
Ni 6.541650700961256 8.318417905441075 8.673048484178274 -0.26967092640241946 -0.6987834160353449 -1.2372454373383919
Ni 7.010578378791417 4.687868362998721 5.53719035962978 0.39816643487337233 0.7852714697262605 -0.412194116611032
Ni 0.3373070705117609 4.423645921276735 12.340519027514173 -0.07077527094134908 1.306399370626234 -0.17157434193829804
Ni 2.2620735397395113 6.724809981111447 8.668625500492007 1.4195716184765552 1.7612190352172763 0.1497454189886647
Ni 7.8654211768646976 2.6857453828042424 0.28886970952240626 -1.161320246764987 1.7752582869191622 -0.5813505931364568
Ni 4.752375649321413 8.007820358514286 7.097542893754818 0.0041160790509025885 -0.052618654636980344 0.21166041132590643
Ni 1.2089053470624975 8.696348896549981 1.7699284620952322 -0.6612658787058612 0.8592372225804492 0.2152429864708422
Ni 6.7660644240561085 5.55008901871822 7.7542151296351465 -0.7787020440388589 2.164694026787756 0.6003253344667467
Ni 3.7858949521740564 5.129485842108111 6.446481000951863 1.0778020743356727 0.35876633580919504 -0.4248154049194684
Ni 8.323547894954881 0.597661500140336 0.5843934818069018 0.8693578559542188 -1.7479274603146928 0.5869928790238987
Ni 3.581991859880767 4.832944466449149 3.7192228102765372 -0.38119715400888543 -1.2273708585371572 0.3068243955242651
Ni 5.595232926439711 2.0534508570935204 12.586011411158568 0.9154438516790041 -0.49192531119408833 0.7044087326419224
Ni 0.8938493728855278 1.1794871890142364 5.501860588210882 -2.410996967888196 -2.0205682679787134 0.23979779299207088
P 8.600931091593193 9.031122684967288 3.6606308682259456 0.23994948807858676 -0.43347642302857603 0.2107103887078113
P 6.106142573000126 1.3866921291036844 1.215491320872858 -0.06460642312647583 -0.264977377581492 -0.12269689951130482
P 3.1377254407315203 9.393010799778473 4.3229003890285185 1.5284737781966127 -0.41441015042574436 0.5414928377095707
P 8.788539471739902 4.256529517424265 8.186594896718221 -0.8732047405041349 0.4824741930835174 2.7719274012282455
P 8.980186552722026 4.0912132735284565 4.148039566460933 0.0952783982890359 -0.07360579841160872 -2.579026272787713
P 6.512503033269178 2.093735265657388 10.504572264003091 -0.14770936239524238 -1.273686196663929 -1.3119429261522826
P 7.654009645373928 1.2034768854315248 7.0262145868294965 -1.9738598081785812 -1.2955274609087366 -0.7298906789631107
P 4.209688049536386 6.894985724164879 2.83436770809676 0.2627268909844185 -0.7442186655500086 -0.3009926193338365
Ni 1.4129203663997245 9.347866892056983 8.649144598494672 -0.42308633804350365 -0.5401844033107922 -0.5302987687659642
Ni 5.8295615201767 3.9435068845454944 9.325283745491843 0.23786020964972585 -0.10638350706326193 1.0989296003429074
Ni 5.372964471686996 5.902631225360618 11.002110359714429 0.8230571731154663 -0.1868667493209943 0.58510800329636
Ni 1.0772884706455628 4.937521634501496 9.63664426176814 -1.161503823530703 0.190597162897704 -0.041393732455438384
Ni 6.411703402949724 8.19112887472306 4.235859390585092 0.30811560353186285 -1.3049225289703914 0.6428284979362799
Ni 8.03560624717179 7.377176756701643 0.3969278086412123 0.1976666681499757 -0.4001970921501559 0.13482993532941295
Ni 5.092223463730557 3.378144731109446 1.6741366342666189 0.22697235909262847 -0.6209298980909759 -0.6091868986224347
Ni 4.188468547456553 1.9796163171093624 9.729487744714366 0.005127036813920202 0.22057211199323948 0.29120854336387914
Ni 1.85259777674753 6.368714090824032 2.655466319243028 4.549661146271093 -0.8101720896226822 0.38283828915673423
Ni 1.825129014714515 1.2478932673674217 3.2213293462006973 -1.707948863039226 0.06698417933003302 -0.9682077736445972
Ni 3.489903884481121 5.1316404377039095 1.3612044757483648 0.25973232713246885 0.8489463821774025 -0.9881453931087885
Ni 2.3732544033841756 6.567067467188748 11.171427995431005 2.0910056959646695 -1.3737008240863697 -0.2025304240001802
Ni 3.8571831519086346 2.1447553431856026 3.9564428526485806 1.3410272451127485 1.1466369337211992 0.24062748798221784
Ni 1.9152675940989143 0.02409975801049364 13.18979811877839 0.10727927940465395 -0.030719026350411613 -0.4396051616341332
Ni 5.219381912897311 1.4310432202639514 5.801248641687322 1.0648174891505469 0.18948593211139622 -0.09658914668065946
Ni 5.963967245438413 8.281304763122105 1.9190833735718196 -0.6833467697653006 0.37237081396650706 -1.2925264692988836
Ni 8.308568325574567 0.4299005830598577 9.53753566253751 0.24506212671480376 0.9606237906497519 -1.5093619970678265
Ni 8.397792834100143 1.2934475742500173 11.629841060208596 -0.9047102673115838 -0.5058367790688579 1.513544153469974
Ni 5.3205732878705465 6.845327425671238 -0.09206092636402712 0.4173314378375974 0.6545858955825243 0.1796074966554197
Ni 2.9423940945531175 0.8476346964437003 6.450372331179426 2.881644857760747 -5.0504423651939145 -0.22224332904807528
Ni 3.4510372184737963 4.235254051822463 9.110110532599405 -0.8178504321035464 2.2954451640621047 1.2525784681510364
Ni 8.029011878833135 5.328268272141256 10.111521794708949 -0.9494970846089712 0.5356363789287937 -1.24340400074062
Ni -0.017866354388536485 2.160900819273599 7.695418920729368 1.8930446365027265 -0.020480893562171178 0.7088122610262567
Ni 4.419262112055847 3.680151877414026 11.597187277865173 -0.49829161973174824 1.7544827449347074 -0.030735481410643844
P 0.7828354670814035 5.411588629099124 0.7231475727255896 -0.05827790980528672 -2.0343218701193804 1.9731452986100597
P 1.4244581791789568 0.862383882658575 10.601333193487129 -1.8002514665293896 -0.5466849234334714 1.2779097478269734
P 5.234921117497312 4.777783088295244 13.540324705904546 -0.748222387392763 -2.5852311160468444 -0.29741852882933295
P 5.177269362615797 3.9117475858282056 5.1164687268981695 -2.4120117823059557 -3.273050576871518 0.3450232751914897
P 2.318876514537834 4.2307862973186205 11.078244067726137 0.7691056585996755 -1.2042694966330034 2.0013461865243083
P 8.686088917522369 7.669380959408022 9.081866675787122 0.12686645750796213 -0.10893249873736077 -1.4570940409020454
P 3.781417870416553 7.813291156150768 12.410290615803397 -1.197778232481705 -0.3602236370810119 -0.6127902997029769
P 1.6645230339177468 6.945063749073285 6.585520505832592 0.20353932488066884 1.061716738738036 -0.7564969686967294
