# total energy = -381170.8628997384 ev
CRYSTAL
PRIMVEC
9.21779082745253 0.00000000000000 0.00000000000000
0.00000000000000 9.21779082745253 0.00000000000000
0.00000000000000 0.00000000000000 13.49116862455063
PRIMCOORD
 96 1
Ni 7.1828712328846915 7.025956781627831 13.189303490820233 -0.18081334403806276 0.30602221133794394 -0.5751789171081062
Ni 5.621110170674819 1.1170948383579677 7.23280400516093 -0.14152097419634335 0.12922235933464843 -0.821001061917386
Ni 6.278034461206611 3.9405317862126457 5.0503648490492505 0.12938999526076425 -0.6647103856110358 -0.3326331290572529
Ni 2.8007888360801316 4.269136807234547 12.7404929482651 -0.1487786842000212 0.7050795334567018 -0.5626974968116438
Ni 7.621085003239572 1.3810186219675804 5.920315970006147 -0.2102033671644057 -0.9183684815249669 -0.43391273923504625
Ni 6.869945673860552 7.101321438473045 9.895893796498333 1.9295396461049672 1.7131545756098816 -1.4068413153940804
Ni 8.152241757323699 2.7641757713798873 1.6029258719627286 1.2394478443063495 1.2928064624331477 0.468534957294606
Ni 6.335590346400045 3.7619186556243718 2.4697475529735695 0.4536780947874316 0.44273522262268267 -0.09897230220085536
Ni 0.027823901258229092 3.6680078038705743 11.837704369682788 0.46417693743622646 1.6350205503106163 -0.037826069708838075
Ni 0.030485077436215095 7.131703276653307 6.904293927383342 0.058320590117764075 -0.08380973552780405 0.3912727930773326
Ni 8.883332391908402 4.58609054079897 7.9367325758603835 1.1943185560678786 1.178253789295532 0.35179967468337475
Ni 2.1114824467840005 0.6902613524136902 3.3911938617320545 2.3264601243863803 -0.23723491736090108 -0.7921851661269583
Ni 5.731493214427442 1.1974094488144693 12.410000123705785 -2.2647539056258355 -1.5298912273694298 -2.297636772396785
Ni 4.536434302244031 3.1028005309035933 6.827516183222279 -0.1030521286971838 0.8187130372141578 -2.4688277628537354
Ni 9.037343239091602 7.4486846635898605 11.315447392529197 0.20805521047315137 0.0011680521661721819 -0.4965183298814094
Ni 8.657339817070568 9.038071444557694 3.3767044165149565 0.6633217327936254 -0.251694801539973 -0.7520893265473371
Ni 2.169932457676308 4.0047152629265925 10.36483322862696 -1.086680093551593 -0.29089435455756996 -0.20171898384247838
Ni 6.47615243693731 8.423659604780568 2.841051224122477 -0.04081163469972326 -2.1297414219719712 -0.5669642425077978
Ni 1.1760794811114572 7.8244847730471205 2.3393010659614917 -0.025085482213718084 -0.4248940806762037 0.820726982320393
Ni 7.1346898408433574 3.1961214440519483 7.350393517690655 -1.0094500681238356 0.5157285842612731 -0.7521276359844401
Ni 4.8253014275149875 8.365799532493702 11.594768573740847 0.5501849661669299 -0.6680631041333527 -0.6377071175493146
Ni 2.8691295364043023 2.311545376354517 1.0144870010692557 1.2312761071288343 -1.4226548853875693 -0.44632782506994745
Ni 7.3861050824594585 9.084667376596903 12.382949595088126 2.3932329590365558 -1.417186148963514 1.2181611670134311
Ni 3.7088702700881426 0.9552212156991103 10.643398551000386 -0.42581170739446667 -0.6157190433139976 1.0798633277400758e-05
P 5.082311868092078 1.8834343046178295 4.939804823714995 -0.059502269130691086 -0.5491110163764608 0.16709496601070575
Ni 0.04916585208916426 6.823580186589096 4.4002257742591135 0.2807976324432003 0.6260615628905862 -0.5679502605701509
P 5.775498947277131 6.40193078614014 11.411801880600224 -2.594728256904002 -0.7685682980389668 2.362937650487124
Ni 7.096168693466137 0.6752879731843157 10.471156757350887 -0.9899302529233531 0.9903254314792429 -2.665221477828558
P 3.629136380446373 4.3160461441578954 1.232730179257167 1.2499299747845956 0.5730099344812454 0.8168217337287159
P 3.6194300468287097 1.0251842471882469 12.837049305952677 -0.49420716524972946 -0.7174323985950999 0.5462552920952205
P 3.592514097955419 5.116491436044873 5.272037967160365 0.8798772674283041 -0.6472381969682014 1.0837017276495595
Ni 1.8363959186245404 2.1517088854425768 11.866980072977848 1.4854592223082999 -0.5851026039797212 1.5696296836096322
Ni 5.492475901316335 5.149057890623413 7.36377682802255 0.7266845133209872 0.924797267869446 -3.750550456668896
Ni 5.766732828311891 4.916170408334476 9.470435604927992 1.7803799244164435 -0.45569075434208617 1.457131064787568
Ni 2.45436582561574 8.117426161811911 5.131675902681507 -0.2246863912719292 -0.5691833616463037 -0.9358419557193818
Ni 2.412037730675277 6.18619761236257 1.2408565835471304 0.6082695290144878 -0.7286683765202354 0.8767577479627158
Ni 3.8235119331488003 6.808407703080385 13.059275491506392 0.5516512662998113 -0.4067567476455446 -0.4490259407274009
Ni 8.973648305285288 1.5683333469861236 11.087851843886888 0.11446474140949965 -0.8879358760667223 -1.1636208698737056
Ni 1.476514933723503 1.3555775196078943 9.629226798373413 1.0226010036834967 -0.23905654395067216 -0.38534254363582665
Ni 0.3554085128485299 5.2108447417527515 2.3483805898108727 -1.632460502892924 0.7571492575687476 0.16564589226900503
Ni 5.238912914464796 8.6819974072199 0.5824187317807515 0.6590513875530456 0.21305317790837502 -0.2409825573287914
Ni 5.930993858764648 6.463846686339419 5.364061937155819 -0.740118527338706 -0.26014807451364874 0.0683473782261468
Ni 0.873219749542673 1.1596533780661817 1.4264346767959037 -0.5016129707954975 -0.32878984405176276 0.09350767954185832
Ni 3.665187159913305 4.6784804570856116 8.377381686520856 -2.122035825797597 -0.5631587527187785 0.9386963944490413
Ni 6.8335722717187695 1.3929648787277806 3.528965727021393 0.049390120397353646 1.277754967416664 0.26512341624105307
Ni 5.646459095127406 8.991807352984049 9.128812298086313 -1.499632428484888 0.9612737655289252 1.0236556702002564
Ni 6.880822666898389 5.85778616494558 3.3732505103359074 2.43491388371511 0.3804607900634931 -0.6010246745266165
Ni 0.956917289189756 3.6317450152173114 0.5058511532478777 -1.067753174740103 -0.4118107651296843 0.4158846780887418
Ni 5.556530328960341 6.480613847640965 1.4393183828713145 -0.24174103276137077 -0.20320996656570808 -0.6126879697971578
Ni 4.903578906224573 8.726556207512191 5.139299015598703 -0.6417908007003851 1.3365167588369047 -2.0589576663901896
Ni 7.82123089292648 8.822660893454977 7.82499912576874 -0.8497297973106462 -0.09882240688655239 -0.1127151057082446
Ni 4.365978916434135 6.994883609144315 9.093155118282699 -0.6021320486581824 -0.4546656555116815 0.2912211417693694
Ni 7.461303819071892 0.7977490881042928 1.021057442287366 -1.0344265355635154 -1.5110956919294816 0.4809904094491394
Ni 0.2623733512121853 8.236492364413383 0.1600402040866322 -0.8181157699497912 0.5970438355019976 0.32572997417951643
Ni 2.3114716340288366 8.253757286413272 9.57910690494576 -0.4269653613829356 0.32504811762114344 0.595721260035832
Ni 1.81859636476347 3.514974042502637 2.7476381330670208 0.5366036279380694 -0.09050205994631509 -0.2383080958204218
P 0.8795431539697545 0.3346104116694866 5.067781864595855 -0.6464925770514286 0.05425361913724205 1.6922471360332536
Ni 5.341599102974544 2.3595055414188093 0.5505436115054638 -0.37717671999558267 1.956997999426236 3.484456448984457
P -0.101427038298757 8.706028187600952 9.504325734252491 0.9410499822828825 1.3203280648921842 0.2638093254153199
Ni 9.464182255710305 1.949009667728991 3.7559685717210467 -1.4541154178896958 2.014121226801789 0.2835073180648795
P 8.317784060685149 6.996561247053541 1.6265897842735209 -0.2919713896718326 -0.07978107398438518 0.8218081311997136
P 9.005680128002645 1.5140036885412 13.116181522454768 -0.07175768945927641 0.24884293391347467 1.197742494147763
P 8.464374586346775 4.00092675094477 4.018425804828693 -0.4001256154822722 0.013406760324209168 -0.2668859074581146
Ni 1.5443486555586226 8.925227250685493 7.387224122251657 -1.0267991009252444 0.3488087103758509 -0.494435993431084
Ni 3.8751684322878153 7.724278170238372 2.9486698524411614 -0.3343470264245661 0.39916042335552543 0.4623473404266554
Ni 2.072039520335777 3.220465629317141 4.9827606502028114 1.5621266903643678 0.24753218552185116 0.37074202011383245
Ni 7.468346211174356 5.0412926994324385 0.6998275756125607 0.7680671900328321 -1.2926352269626062 0.3664259092369819
Ni 2.0712099191718742 8.57809447033643 12.260585266970605 0.8483005210632873 0.6097944502994466 -0.5543205856018584
Ni 6.922680654512641 2.841337897413559 11.809075755295574 0.7924114232051515 1.5934036461007786 0.3678816678469019
Ni 2.178099420245396 6.497970947547954 11.160663172705425 -0.7899110253808009 -0.6633109341603479 -0.2142196874126504
Ni 4.3609183493343275 3.0509504581596674 3.1810282335433433 -1.3978681653611926 -0.3276729568385002 0.16630589445050714
Ni 2.9754106632909623 8.760957002442026 1.077836267723945 -0.819093303371712 0.7185050628339884 -0.7432398465765071
Ni 7.328392494823953 8.389719699386232 5.1112778536192796 0.2017611499343235 -0.5127946984439298 1.153502036272149
Ni 5.471809614544444 8.011172688297382 7.127411473298717 0.3892027979221813 -1.83406275865188 -0.0769600595958223
Ni 4.738571234724304 0.665951272974125 2.655358830268899 -1.2286772360534064 1.2614719139859243 0.1090253155614832
Ni 7.755581787489637 3.51894691029866 9.70823156077002 0.7638405535459942 -0.6850095021797041 0.3907488022530625
Ni 0.036523652130356514 2.9017789510992333 6.057791022434623 0.5427675906569362 1.7221881465670597 -0.6087801501023193
Ni 4.594257503368057 3.1600522290035964 10.743907497344425 0.9057235390674466 -2.0025983137638543 0.04968682570216604
Ni 5.219675385252962 4.4910919897413875 12.845211659626408 0.683919611549635 0.7283364471021134 0.45762422391937313
Ni 1.534964944615811 5.361343610675431 6.107451869884915 -1.5055223116067622 -1.0386858250605016 0.12988518972962793
Ni 2.220436732976569 5.935731803189603 3.8821509087506634 -0.23424755259780305 0.21980669458212468 -1.1523139295013185
Ni 4.599318070467864 5.6218383761409125 3.3377961219279144 -0.7682237702153544 -1.755413741389409 0.6446244134944382
Ni 3.0673581256235227 6.748215529743881 6.8928804589261805 2.316569604745546 0.8315420706580259 0.4085534345346512
Ni 7.515532081819005 5.218947179786869 11.449401248906442 0.6596707663045994 0.09512850297473294 0.4429352544486307
Ni 1.7562933173543696 6.000938454672363 8.612397556684739 -1.4948365497581417 -0.09829070275279847 0.9880281508046339
Ni 3.014540184855045 1.144914130720842 6.043126439194035 0.8386984791971491 0.10398441070346609 -0.1352842492580122
Ni 8.271971640856293 5.377354913138754 5.809931082695382 -1.6078324199315985 -1.306747240883956 -0.5395485694990063
Ni 3.5598646832604888 2.286897003995894 8.67418717315129 -0.6316686246647185 -0.7781448859838083 0.13861022830745162
P 6.021733790514194 2.4254496161583723 8.98598170925531 -1.0765625455016168 -0.4228109728949299 1.3865385992809862
Ni 4.0097942656078205 5.217684342459595 10.821806124855827 0.2155862287428739 2.5436985440206965 1.0233713061906182
P 3.6424560880223678 9.074020828326816 7.982778205794202 0.20102092933418927 0.23256656535095432 -0.004399671729592423
Ni 0.8087698786772061 5.8998377261647414 13.08368143596934 -1.0762804954848237 -0.17981472757021938 -0.15716716537403255
P 1.4164241560848099 3.4163436819053032 8.486687170539476 0.5277960569487685 -0.8453267831469442 -1.1515135450872105
P 0.20519631721693293 5.491231499570479 10.207337134776298 0.08839375535406066 -0.32960694063641943 0.5167850505502455
P 7.030206183145154 6.488080258116091 7.7983947382214485 1.436280446590804 0.5403808355923145 -0.985599229648167
Ni 9.06341115121957 1.8181723463908086 8.057937305906583 -0.4926238799230097 -0.22014145221372408 0.4355129938426306
