# total energy = -381165.9096884055 ev
CRYSTAL
PRIMVEC
9.29000283079423 0.00000000000000 0.00000000000000

0.00000000000000 9.29000283079423 0.00000000000000

0.00000000000000 0.00000000000000 13.59685819075245

PRIMCOORD
 96 1
Ni 1.2751829389941816 4.729159515542598 4.8788929930445395 -0.05928706779609144 -0.13773631034293052 0.21454467485223697
Ni 8.906316357025752 3.449117905104381 3.131329206655135 0.2529081051217838 0.849753194349414 1.9496850107045907
Ni 0.5029031514666863 1.292490214138037 3.043847108654782 0.7027513995441574 -0.5641262588383703 -0.5126268054074978
Ni 7.252993145645371 8.073402579477369 8.095161623944325 -0.747502735617919 -0.35413320791255787 -2.5403730791918893
Ni 0.0918781273068864 0.15056121674795214 11.819014638702095 -0.1630069119842612 1.7444618703635957 -0.4443200506112993
Ni 4.132620568246632 1.0994346667604429 4.073523144682423 -0.20591116754695507 0.7441903834152345 0.47094279540515027
Ni 6.333375772328013 3.4595041281912464 11.009716048172326 -0.3725423065473648 0.20275693818868953 -0.219839347592273
Ni 8.555507272762593 8.901950055728054 9.662852376874078 0.09382006857595455 2.5679952117845324 0.9724794044367574
Ni 5.764818313348361 5.654425210538681 1.2749488309246029 0.05851727950960245 -1.257050644989777 0.7466198187923335
Ni 4.856794863476805 4.634856697515074 12.681667573089184 -1.3144199269378654 1.5751313301541519 -1.327794034251926
Ni 7.8220801347824045 4.683982232115561 12.435618133961396 1.2133694020517427 1.517297449864819 -0.5385419826113629
Ni 4.323037754840085 1.9936717525345853 1.6589659590574481 -0.7093555351242363 -0.9771552126458719 -1.4376976386533047
Ni 8.061251255865901 0.9243171857141799 4.549998096294445 -1.071236505303013 1.3252231882009564 0.2476080330651091
Ni 1.055725203769654 2.6245744200437127 11.447099597166082 2.1766242025664386 0.19688479567862865 -0.49820754465837425
Ni 8.5706313972576 0.6341727484810207 7.075043142757262 1.8318806633988969 -0.6980534798478558 0.030186036665077045
Ni 9.012175938488035 5.817353278962156 3.3924433142602566 -0.34840736117237414 0.5497082836408275 -0.26860057615637617
Ni 0.6278044515883138 0.3556454597005672 0.5146754429655019 -0.9150862112292691 1.2040306411493198 1.1564189528086277
Ni 0.6662715660210361 5.189525602366941 7.953931285969581 -0.6644692161345073 1.792575952262003 -0.13765532059335
Ni 6.209159145409876 -0.03108156223767946 5.750246944017638 0.606254041246356 -1.0073857293956392 1.0994589904838161
Ni 2.6590774902982908 2.977362274894978 13.183921353362871 1.2142515475463798 0.13646669960188756 0.2880962229871426
Ni 7.422990906170015 4.487823823815773 7.471568330607599 -1.0411818520094778 1.319497341460773 -0.5326099333976441
Ni 8.685121391284905 2.1667909539869443 12.865075452599417 -0.42113744184724894 0.20142047876545313 -1.144846931700312
Ni 5.046812579951532 3.509920973175521 3.266645528872187 2.100353455728157 -0.9816638991495028 0.8771303008107862
Ni 5.971149274671511 6.00426813451469 8.593077901928872 0.2236165552465181 0.18370146421913525 0.17400094910191968
P 2.7104883655779988 2.7454652259733905 3.1094930551652626 -0.22240042345122987 -0.10260655651933297 -1.0702790264857502
Ni 1.3944851544517178 7.4817501736337215 0.3398097209940638 0.3158355978839399 -0.4978141658746975 -1.0362741302952152
P 7.857252085235779 0.058708172448520585 1.9595523593940392 1.392862227506169 0.318676923987477 0.3527890351798376
Ni 6.474973994412094 6.642667834251993 6.064891905532542 -1.2360730142968455 0.042137295489682265 0.6558598771989413
P 7.459965117159035 4.550289802381142 2.020846868611239 -0.019993669513107503 0.5597170740270812 -0.24657573514585276
P 4.164039357584538 6.534151312000048 5.264608333682107 0.3268244927952758 -0.40002097158360783 0.15432481082923097
P 6.596320010477064 2.7316417018649326 4.803620745673048 -0.03023797294893502 -0.08782708421731326 -0.49792909418600695
Ni 6.364200001489211 3.2224325477317484 -0.24579303505158132 2.7344584577485103 -0.46901729624766325 4.087788431488011
Ni 6.230238161674721 8.138395438793747 10.119094631472787 -0.05708363238686943 -0.9569514840044874 1.3628993625954917
Ni 5.149095510350807 3.290147377857117 7.8108782494531175 -0.2766188184751623 2.5209095711506393 1.1855323252348162
Ni 1.9995894842933808 7.247800034101939 6.700681114493987 -2.0802525712132236 0.24909927289865488 -0.018573649237129303
Ni 1.2523945622213004 7.6247604761374825 11.51535603445242 0.5734513928940382 -1.1465209769686255 0.24626463166333717
Ni 2.608549165280884 4.739759408692967 11.559504914573807 0.13715344125626702 0.7869434581120447 -1.054724623690919
Ni 3.5619449886374586 1.813510728989343 8.607164333115469 -0.3530695425347339 -1.1395072646549536 0.02162349180704663
Ni 6.677496054603208 1.782389219739791 6.833971287108851 1.6707835668428386 2.495710446177192 1.2793714199741641
Ni 1.4139477102361393 8.778913259160571 8.968514783511603 1.5731852621713744 -1.4497121466156773 -0.6816333866186196
Ni 8.549877531089392 4.385485153399933 9.92504040879838 -0.23734058970082994 -0.11484423623610546 -0.310779009296639
Ni 1.7540640013213182 5.5320851641782784 1.8751155242987623 -1.2771839254045423 -0.35649039529082477 1.2587725127768903
Ni 8.013342711627114 2.39464685170747 1.2945516657507161 -1.7215080897808994 -0.9869251475484422 1.451596508122584
Ni 5.840912725964206 7.22791942819327 13.304444275183211 -0.14020225538491982 1.5909531276777569 0.13909462414303786
Ni 4.590125334220569 9.325676371662777 12.00898962116412 0.6849717069632333 0.1297257813336282 0.7547769006818292
Ni 3.8551188957709996 4.270651429270466 1.3596801591074057 -1.2081734596731 0.46423658702956827 -0.44604474661188986
Ni 1.1482815012780978 1.6827911001384634 8.77077614574216 0.6435026411851691 -0.8411970772492867 1.3218468155295557
Ni 1.665911165121617 6.9281496190993765 4.417660148962589 0.14288777263688296 -0.7101173529909254 -1.2525694692899718
Ni 0.8755641802244115 3.0375429127811264 1.2021514402886584 1.7559948107038599 0.1319685546212179 -0.19766898214282086
Ni 2.6980118918698945 0.20831809291374015 2.3327039002975485 -1.4618377262346178 0.244656663746269 -0.1078688333595368
Ni 3.7161869044793425 2.868409122513263 10.629085126045887 0.48286654342592966 -0.7566417218047098 1.4654382991016828
Ni 2.167617764232679 6.498914331527346 9.675755261708915 -0.017296839407234726 -0.6006114982485979 -0.6638755484145663
Ni 3.651026825113266 8.774184647755192 6.390251027231776 1.3851514891254726 0.3767848838738027 -1.1975995408119957
Ni 1.415276180630971 5.041015618228631 13.365099632210452 -1.8928600312957464 0.08756945968055241 -0.25313667619282215
Ni 0.584137722610226 8.928835323718562 5.114022962926975 0.31501747285801873 0.4692003587927468 0.5920175859319997
Ni 2.1382799355132502 1.219628722483041 6.597616894862508 -1.2782139093309535 0.03490015431129473 0.0674901724321741
P 9.453692609710187 7.310052342603805 7.911358919316746 -1.013297466894384 0.6374723758306892 0.3573409162165781
Ni 6.783104805990942 0.7384966924868995 11.953120473559379 2.1149750622960735 0.07663661481813253 0.41077075390094425
P 6.869669051718502 3.077722174722712 9.018959498504161 0.648057093325071 -0.6362158777157688 -0.6526542257774501
Ni 2.9916317191359667 2.980567325847544 5.251922834911879 -0.03116536985921084 1.0851883394974149 -0.6189262373973857
P 1.923838801779695 3.5498308250370356 7.077368430448355 -1.6888126564304076 -2.673842643838666 -0.2898021499346557
P 4.162107037010237 8.684145940994995 1.1179923762759367 0.5174545658134443 -1.0434981588474803 -1.3189270707795995
P 6.1801836267981285 6.263217671476486 11.490664136113798 0.1742804280155515 -0.8458142643063239 -1.0405473037492725
Ni 3.9048389905481944 8.57948476988889 9.915168851864477 -1.209915639175187 1.2298031221277337 -1.8561554767858612
Ni 6.103262403936549 0.38928363069809047 0.7242003072379039 -0.3858552216061871 -0.1528173730457691 -0.9821593507286827
Ni 9.109349367368726 3.090263678450144 7.826310802039791 -0.8068972755261522 -1.1561376741227831 -0.2089648667716143
Ni 4.0639860278479185 7.139905942034985 11.593551845692817 -0.20967371991318087 -2.108679973315981 -0.32340646825266234
Ni 8.56389614525583 2.138502895579516 10.19451644788873 -1.7896970880523113 -1.9944715708916618 -0.41421088993074473
Ni 0.5164795615016998 7.974278250016855 2.322465388254584 -0.6584312374705434 0.46044729519046507 1.6613219072093066
Ni 3.5096887231064944 4.995290224638692 3.6704577948882995 -1.615200944481528 0.6046321893722169 1.3793904182719794
Ni 7.819163073915431 7.852950813957407 4.536904766403007 -0.19818757365045223 -0.006661728290891753 -0.17212995733145195
Ni 7.683603353626039 4.734203987041853 5.09021454385093 -0.45648265411576217 -2.3286622742440217 -0.632689352619749
Ni 4.490462184599914 1.7053750968506012 6.431912044613751 -0.5405875522864819 -1.026731995132735 -0.785140600575351
Ni 5.0389253676073915 4.472235199182713 5.636618133246281 0.7617638735226235 -0.1555401712935708 0.3103810025272719
Ni -0.4020146504818475 6.36139442065537 5.992842360118862 1.4065901186152225 1.072975856591623 0.6516877480991228
Ni 3.555534886732327 6.38495386765742 0.09234541444576773 -0.7315667811139529 0.3145168790725164 1.0395993380137063
Ni 7.991641265177277 8.17716262031565 13.246875057073199 0.44208113397845156 0.36729597054676094 0.5599243049418808
Ni 7.1563213769137795 7.3289203382115184 2.39613325214924 -0.19884320495658014 1.6422121829630492 -0.89213397330847
Ni 3.8535674653099026 7.220747546061731 7.976433530657421 1.9898065613158247 -0.3679680569131211 1.7683890706031544
Ni 2.9990451413392925 5.239282857155179 7.161111302337381 2.109726926523257 0.05050803605188075 -0.2241911968030655
Ni 4.146917882495903 5.1209282219792716 9.82625888043975 0.6266140929599466 0.09742886897313544 -0.4941323461477361
Ni 0.31363978321615693 2.778147455686801 5.521276245965785 -0.5025092573575216 -1.2529109117897907 -0.06865899592929466
Ni 8.529504555034386 6.241971435161941 0.9749681387680329 0.9159704136064353 -1.4362660484131007 -0.8053484429817938
Ni 1.9089190573454322 3.824638396711961 9.301555808493958 0.7943412932380126 0.38196385697158086 0.5975356875367516
Ni 5.689049050829153 1.1793751405193666 10.0394988168163 -0.40012998635764635 1.0116370484728254 -2.0966017019952083
Ni 8.35096928197233 6.715585065923556 9.825144080108421 0.1457355264983232 -1.0233674495358762 0.270065847847993
Ni 5.198685545089346 8.273453498934042 4.141330874835402 -0.9299397313023338 -1.8931724203298426 -1.4254291056985968
Ni 6.22251816938028 1.34981882117654 2.875096066500674 1.032167050105377 -0.046067998002656145 1.0631881810772401
P 2.6179227780667937 8.809161508150584 4.446212972448707 0.20393553187782298 0.8787596088840931 -0.44974687805382546
Ni 2.6608890408366976 0.6997601679741063 12.931101360222824 -1.125431760398494 -0.7717155854186968 0.3224713580329027
P 0.556565923415675 5.497117593785648 11.133800757051256 0.8048745886691687 0.5204144197727166 0.8969529919636682
Ni 6.107870245306035 5.894804031981117 3.7475527408015106 -0.8847117127024698 -0.7814916909688541 0.19197501708183712
P 2.2957826423242667 0.6013316597203964 10.657652813536423 -0.4651770965659666 0.8860062631441772 0.49027183475106534
P 5.324351412438209 9.366180783701 7.968792503386449 -0.47977582031574784 -0.4237597099614444 0.25874245241537375
P 5.063989795056732 2.1725414656960407 12.411116680679376 -2.8740243651010116 -1.6833436628960365 -1.8147185497973133
Ni 3.347866165011585 6.925065338182704 2.558819780500928 1.4425356834718965 2.4710633370524735 -0.6493472728914043
