# total energy = -340868.8996061483 ev
CRYSTAL
PRIMVEC
9.26848509286950 0.00000000000000 0.00000000000000
0.00000000000000 9.26848509286950 0.00000000000000
0.00000000000000 0.00000000000000 13.56536480624451
PRIMCOORD
 96 1
Ni 7.723845489187182 9.10962299828104 7.354475978115314 0.6513676457555427 -0.22659723514139685 -0.026570551399676817
Ni 8.326037485447397 0.14902240646232615 12.97628842656124 -0.40400412460107193 0.9507826361896142 -0.9580496021646726
Ni 0.38064184231996934 1.3736635994233528 6.061344389667548 -0.4503906822854114 -1.0611984043407208 -0.42401656316725683
Ni 3.050721781214216 0.6692754357500298 6.35431470714874 0.09554142214243545 0.40453685717609045 0.5179561880402112
Ni 4.4773269659764585 3.2664179601369483 0.371580044703402 0.1512826815687975 1.825434650663237 -0.56578127794329
Ni 2.0576407058079322 4.201654421730205 0.5236814418256684 -1.141829485030227 0.21238263420391162 1.5895215374375526
Ni 3.412711724665841 2.8973746997310346 10.810103568081342 0.7289776802305381 1.685598006147852 -1.8692593611576709
Ni 0.7118715383236415 2.7784322339302685 10.381044087867146 0.4030875263240736 0.8489430397432928 -0.2849072837361996
Ni 6.598521672251612 5.185624576550333 3.505846094462381 -0.3059473922359505 0.40235399059215865 -0.04860927636727112
Ni 4.254948209492568 1.5062678118609396 12.60273882883184 -0.41821255489097003 -2.17002469497205 -1.2485204960315788
Ni 7.74241026429814 1.5159904524457604 8.905200077454893 -1.1878524887275608 0.21374660443097382 2.1067560168203907
Ni 5.7996524279362065 2.942818080843881 3.2490543806597287 -0.0858164815451877 -0.5816084747835338 1.5174203485959286
Ni 4.957026666746694 1.195801375569484 1.7246731688989654 -3.261044810659894 -0.7370370601999049 1.5676684461182033
Ni 8.939157025320105 5.482392192265653 8.839517106022626 0.2658255845144002 -3.0296064453761113 1.4647656985146902
Ni 5.245480451571087 4.426257614572872 9.972591229971567 -0.544594616563346 0.4396159602674106 -0.14450139698090597
Ni 6.167648349556529 5.495303191631388 7.856285649443309 -1.5011946307656856 0.7814970902854927 0.6566854584240304
Ni 2.148703569245361 6.622388020684322 11.967432389977295 -2.5142002774512635 1.7103710993274737 1.3027936555528465
Ni 1.7319090750043702 4.398498502512303 7.955882933710578 1.128798619988198 -1.2248699464921744 1.577193097779187
Ni 6.338466524940937 1.7469796313350834 6.817396014621946 -0.058480512734396056 1.3968237832570782 -0.10675220325659035
Ni 0.5551257034539454 6.861894937130795 2.6962522863522222 0.26827893115089924 0.7829255952019032 -1.053748890041211
Ni 3.441397685209235 8.465454034233739 13.35737979039538 0.5735912609060122 0.6794813732726233 -0.17702688041243705
Ni 3.4591004912311676 7.6989966813626785 7.394669689421447 0.40561543495224983 0.3100004792594016 -0.40266149453024846
Ni 3.761660909964137 5.9902773553985575 0.12406144997140102 1.9415150732992883 -0.38650031138935365 1.1717663817989754
Ni 2.093741454213915 2.4231897474336 4.451216717366832 -0.4595021576683764 0.6021747289706596 0.8000067190539061
P 8.273494444956121 1.9747341090193518 11.311764016803602 -0.4321584755481009 -2.326128709188891 0.9147992761164696
P 3.575438512795199 5.905090711342231 8.911385864229258 -0.11683992650989554 -0.9353768431575052 -0.8811268235646891
P 3.1730101700379754 4.398164837058486 12.321325385082975 0.31327349358371853 0.15770761125853483 -1.3016235465041455
P 5.636619779807518 8.710902049455113 3.8420770648793696 -0.722113349010537 0.48652033812843304 -1.0733733491403579
P 2.128609494137743 2.164117059514719 8.805196833552147 0.6766541882364734 0.9366163719915612 0.23379169600730704
P 3.895358803611456 2.629524756679813 5.599538425706707 1.079713946646405 1.1498359002744714 1.6796726418023524
P 9.048617831141584 4.257209719790658 1.5910540573726863 0.1011258582087484 0.452059328237086 -0.30899543503365495
P 6.510786194867521 3.3769539101985027 8.57248278963629 -0.10242323686393329 -0.2500148427343888 -0.5312415922952077
Ni 3.824213914069909 0.485158838334067 8.845418350312764 -1.1720448322713428 1.2216761221452248 0.5625614854544118
Ni 3.658493405341031 4.5474523221869 4.467278074725685 0.21453619021180473 -0.23814328810778337 0.16946012380877265
Ni 4.153198783048182 6.233686303957718 11.280495856387061 2.253549038048951 -0.696886199012632 -0.8296924190437969
Ni 8.808045038939865 5.73917556443196 4.495860228239001 -0.04474028033016811 -0.6170878986370663 0.6781143177217677
Ni 9.121310557649448 4.006719648822724 12.87022081303538 -1.01623315248394 1.1960003146456757 -2.356235812986916
Ni 0.748275366183508 0.518195425655835 8.949871393781548 0.24560051571677702 -0.45256737822175613 -0.0645179771777276
Ni 2.7088537183246935 7.889306480340869 9.740243291206424 -1.4133258946771594 -0.19812946671900716 1.414286715928532
Ni 5.5447505581900325 1.8480709953566645 10.317232423521698 0.08361304613596568 0.20888156302918864 -0.5965278150975276
Ni 7.5561693301595465 0.800617280554011 4.476895981431945 -0.7844782844010038 0.32070912392615736 0.7540575060173014
Ni 6.725518451368115 3.704418747664945 1.2215566412101893 1.3548093864985056 0.000621949854715058 -0.6452563906514823
Ni 0.49800866569993474 2.4381768874008594 2.7588284616700647 -2.7545981659211782 0.6203853384414154 0.20707022085206273
Ni 1.9598303854155468 2.431290403173479 12.535142842131023 -0.8819680885190618 0.4255653957116155 1.712753226406405
Ni -0.017635146082686584 2.7656509933521303 7.860708570403344 0.9803446661174471 0.9103510105371289 -0.028290362304260953
Ni 1.292036053541069 6.903445554615781 7.95631669880054 0.7923497167292807 0.43369239569412404 0.05792026935555186
Ni 8.239497642606148 7.192251541863647 11.731910922006966 -0.9342023632334299 0.1550930564538232 1.6913572772291323
Ni 1.4684431252769043 5.116750465791703 5.946065755919384 0.1754299682389624 1.0949623881650432 -1.2258757620488694
Ni 0.506934216589527 6.095011233957636 0.009640151069849327 -0.3028854654811752 1.1201226894807548 1.2247943560592325
Ni 1.8456055783923537 5.254127947915832 10.151152297581485 0.5606776381681376 -0.4938865486855172 -0.07260615350250076
Ni 2.3977848305194027 0.9152128269703336 10.993127411136054 -0.767878985281426 -3.04624688214627 -0.854263937735574
Ni 3.443742611870779 3.1341103392138643 2.456470095906351 -0.7300035503918911 -0.3617210475621448 0.6267717015837335
Ni 6.927812401229216 9.195078428397386 10.864337180205288 -1.1318476912271669 0.41701184971464955 0.7350164302254503
Ni 3.9900363761318975 7.397047982628372 4.947275293858906 -1.845231116563874 -0.4340032420663235 -1.0046369630059084
Ni 9.28516810092785 2.1838033212898944 0.4417415480046734 -0.62313384772083 -1.8103823843158047 1.1844588896649793
Ni 7.8693977749298165 4.592886434814917 6.770500261936515 1.6954242482096542 -0.705477797336385 -0.8683461268602528
P 4.598595821469112 8.455026988801972 11.470343157972325 0.037630665868580354 0.542599183399872 -0.5142221749190756
P 0.35474569570987513 3.42265680888654 5.40943346024322 0.24711335281687766 0.4336869963774853 -0.00895335253854587
P 4.842635026996592 4.848566857286665 1.959177884083639 1.1112801514884603 -0.8018723115077351 0.23678805963146962
P 0.6077595750965378 8.513168194129502 11.717503989189954 2.0747573524266074 0.6930560266332645 -0.3817905646185102
P 2.2955719798336047 7.180165437647626 1.1206728912487605 -1.4461493689650837 0.06099222341265625 0.20262118394177364
P 9.14773500789475 5.463938638972633 10.973417051300325 0.08600597184817446 -1.1384106891566652 1.3963136763898791
P 7.525805773862241 3.0890933084031174 5.072279348737339 -1.3375500851974256 -0.9326944112293356 -1.2651390784248664
P 8.574089944905506 6.671436842395353 7.328620612838465 -0.09995703471162785 1.402142110146198 -0.6974317871034569
Ni 5.61420858349284 7.201659053964307 1.938300622008035 0.37865561853395435 -0.5623653102832057 -0.38340213208000423
Ni 2.034682668888389 0.9952406323712633 2.543587365352399 1.0750756765434453 -2.209440220655195 0.8561868657898997
Ni 9.092040682561874 8.046045827271186 5.52682808907767 -0.9041245700114429 -0.7934380646974529 1.2876015211934406
Ni 7.869796319777429 8.470069739678202 1.5079398465239537 0.469512747826843 1.2345334377238675 0.3690013832736419
Ni 3.835641955863125 5.249586390349996 6.685473035819235 -0.4235036280865803 0.6699348672347689 1.6254485903514653
Ni 1.2281391191352033 9.056041887489002 0.5467191877147345 -0.7005837024688774 -0.031436364132410376 -0.35876273626476923
Ni 5.32175081322265 8.857622164286104 5.9633616754573575 0.36401395736137954 1.1445242582535706 0.7708275263867886
Ni 4.96882544793304 7.447746594638829 9.33580554093844 2.2001600809048494 1.2009699999461252 0.1874514181798707
Ni 7.5168246120636795 7.650290793590292 3.7677938663749813 -0.36800019570263715 -0.3011332586767588 -0.7327618298633187
Ni 5.852547670850955 9.00296127487769 13.503329694137145 0.04445951586495569 -1.8125415967506524 -1.2660646755629292
Ni 8.338929947843475 8.051671797561925 9.517622627268517 1.0902313012379612 -0.1931592671979254 -1.3302383820273607
Ni 3.9758926682840072 1.0845517521761552 4.216074330425976 1.358325370071564 -1.636359323726698 -1.72013332092056
Ni 6.2983432541195 4.828102042785917 12.388583072087558 -0.9866600668125137 -0.13768360272812416 0.2102427050427734
Ni 7.611177787615132 6.149852858686314 1.4080033357119708 2.573455206457839 -2.223355030964074 2.0513474581430997
Ni 3.3338647242320287 6.119878578751796 2.7770873767816915 -0.8715988294695957 -0.24762011724996708 -0.8245918645924379
Ni 4.132808116426061 2.9522904723383387 8.228858348871816 0.07937586812616652 -0.09133766847373301 -0.9066697050307997
Ni 5.687503761514539 3.950775074399485 5.8703033072364095 -0.1511826656558235 -1.3985682767520107 -0.09263530423923401
Ni 6.44159695562473 2.2509905678097843 12.537299618550554 1.4378596181524657 0.3036362276042706 0.29850122037055044
Ni 7.5665314961975145 3.833602889200913 10.698826139233528 0.06259479201308575 0.17840756281004758 -1.166634974109681
Ni 3.7363486778982216 8.325509181812187 2.5513599167293584 -0.6673503943370442 2.194441176143201 0.1061078848043721
Ni 7.066506008198956 7.2658803853391625 6.2078096211657625 -2.90444540059503 -1.3903988535673408 -1.7541469588618435
Ni 1.526491645756153 8.867780423657852 4.626020341227383 2.9597876248107604 1.0975838849482904 -1.9468233728860793
Ni 1.4654586731622121 4.489589171404217 3.1923099359958136 -0.5031363494185592 1.1210732263194823 0.06450872120634697
Ni 7.031767727062723 6.165933679863305 9.991921581929338 -1.1232671486470074 -0.18994538824631801 0.9784731601263471
P 6.746177904050256 1.3553583418875845 0.9882095597805627 3.9742809117854585 0.9532920328750291 -0.9043654823776553
P 5.506823918272886 5.971351109379297 5.26937089806435 0.31745616420649847 0.3548351190755889 0.44484866942125967
P 1.272247838432783 8.908997375689022 7.022599341870631 0.5838995848105557 -0.81756992474865 0.01615835492741733
P 5.662988619143852 9.342725391711202 8.06675254922595 1.3628394558918335 -0.7429899353492301 0.36809558362992095
P 9.137456258220237 0.22156312981900603 3.1424705125289343 0.7618422921690428 -0.5161067935362982 -0.5872085945791305
P 1.8790555401374611 6.652315958194699 4.450918272155363 -0.11445008612148032 -0.24260723741640802 -0.2953068818029688
P 2.8996547469987806 1.4832634325172556 0.7687726203811542 0.10568031034865025 0.11222711032823253 -1.3203270364509196
P 6.6347614479300185 6.650740315773899 13.334956545050426 -1.1861411624634088 2.142110485060285 -1.17931719756304
