# total energy = -340883.5129829734 ev
CRYSTAL
PRIMVEC
9.10796620043533 0.00000000000000 0.00000000000000
0.00000000000000 9.10796620043533 0.00000000000000
0.00000000000000 0.00000000000000 13.33042918166724
PRIMCOORD
 96 1
Ni 9.177460113666097 7.9276467578534575 11.576504820713058 0.08423139644625492 -0.6811448770179753 -0.2716807577435966
Ni 5.182441950057186 5.450553154929996 11.38762563654309 -0.057349227343430266 -2.5411302690728883 2.0080552231133675
Ni 1.896834175969567 2.7765908597713946 8.446267111868629 2.2612952576532734 0.6111566207542958 -0.7540541635831917
Ni 2.3575424368684805 2.877561774512026 12.693261717995755 -0.9788395423268303 -0.6982995344203909 0.5483851939540297
Ni 3.5522525963812073 7.700321026208914 9.550785634792947 -1.2769396706042202 -0.26767780723179063 -2.753731447045509
Ni 7.993779701379682 4.980736927700518 6.400459395409826 1.166520560019004 -0.7068785343386536 -2.637176398765884
Ni 4.343379659820318 5.551924820189171 7.397522131566151 0.7328541324668089 0.8648836222329492 -0.7313844898998179
Ni 2.7743411920877454 6.6522126927529435 12.901082739743396 0.34629005771905524 0.27578732371280246 -0.015129656552586848
Ni 1.661967048203316 6.228027376839591 10.23858282021181 -0.022874847715644474 0.12079762560606294 0.15994987032549227
Ni 5.4384213437776845 1.0389275033947623 1.7792521522352533 -0.25292815972644184 -0.4391192231366502 -0.9223824877803662
Ni 2.47931594670812 1.5737381783591435 6.273846823058759 -0.36115591908729416 -0.4490783912318911 -1.557698222279369
Ni 3.540776558804697 4.528863394142252 0.7230668742373386 0.7127704743430564 0.6570572399411522 0.2410532626657268
Ni 0.3807102602276716 1.37872751125544 7.4640139289658 -1.3885057503096863 -1.2286499823598966 -1.2592371111181346
Ni 8.307330550275674 5.590879592184993 2.333211415613012 -0.42372088630370897 -1.4394326190665405 -0.9986627477003447
Ni 5.521613508241055 8.18192296187014 3.6770126083806387 -0.2939979331835582 2.2358863306618653 1.6382336579312753
Ni 1.5475254512597807 8.781582357108137 0.2477330410048057 -0.5303054536341836 -0.20951328307591657 -0.048180416359968635
Ni 6.51018306579413 1.654862834465476 3.822207253639323 0.22564155609634687 0.21491465659714598 0.38693585626487553
Ni 4.142731161557996 3.1034939873079943 6.985065143896667 1.179836817511936 -0.18632424655396299 3.2650642162319317
Ni 3.7513527403673343 0.7165683402604813 3.6373811144864563 -0.07254933212263633 -0.24480501639867516 0.43358106692724036
Ni 7.254859500947364 6.329080263277198 12.800558115352962 0.15492002121106868 -1.0568144163404123 0.5658686954507738
Ni 6.21315406782178 4.2104579991920685 0.9788003528669117 -0.869000215504484 0.7801914841001918 -1.2097143217976585
Ni 0.691997779490519 5.494963598757825 12.329674434469544 -0.09643976558698875 1.6322833538851114 0.6475487862300847
Ni 4.067918326118743 8.222426088142159 1.2275962935424942 -1.100746341836672 -1.2161929875434667 1.0916492646314102
Ni 6.37484779408828 1.7958814771615967 12.86045210194275 -0.2951616144743562 1.6775663940926269 -0.20517351804998213
P 5.133632358491694 6.138077101358942 9.401938695035707 -0.25761039569345956 0.455328485906661 -0.8863842153088864
P 2.7481466809210437 4.793349628415497 11.758371781605124 0.12933060277773853 0.043275265748867406 -0.9009145477145775
P 0.7805836816148496 2.0738657175367377 0.6607182907214635 -0.6909220110093971 -0.9299034787477597 0.506640763027392
P 6.248301709891426 4.084057642456503 7.2113625861424895 0.20828995219177676 -1.3726926945368294 0.49641702841685476
P 4.454314689726586 2.5327523851695384 0.409806569467291 0.16460433837836813 -0.3726978582886227 0.06511910109683623
P 2.3559303268279703 8.517424009622793 11.413113369522538 -0.3776809133255108 -0.3457372705393788 0.4086102559145156
P 2.724866718980122 4.490737447082511 2.8629097890760478 -0.09534601830217773 1.795002559425625 -0.18993947470904707
P 7.309816969785986 0.07844418161524765 11.71127539850641 0.16471361026272277 0.946111198855874 -1.7835902038236249
Ni 8.80988991646353 3.599969231987032 12.641019333920273 -0.07106194894383246 -1.6780489901560003 0.8344445890168017
Ni 1.5712608115172302 6.493078305025331 1.6775143467295885 0.9005206547102684 0.40845650394547073 0.931753387472305
Ni 4.576980780266621 3.012596483328966 2.7900588095843992 -1.0586049325819316 0.2700650765170446 -0.28255755255710047
Ni 1.0465781951124358 3.842896909955832 5.749054000261364 -0.5282765961296128 -0.8522602770419839 1.122464964460686
Ni 1.0496202558668442 4.164544740919696 1.3437210426639177 0.04989662772012697 -0.5575696886667751 0.46550105556428867
Ni 7.887580813965307 2.6105435255988843 1.4568155713871627 0.22097166142450334 -0.7963742645076414 0.5811032530123411
Ni 1.4536132104253363 8.5651952930266 4.926820499413479 -0.3209508076233182 0.5362662992033087 0.2452816989247776
Ni 2.7514710886316993 1.5473523998995 1.5617530054647544 -0.448586282086821 0.45352845658344476 -0.20490200955615034
Ni 1.4560996852335804 8.459214996804159 9.21393934041327 -1.5634438665138946 0.8392216986904708 0.8667232465448492
Ni 2.679427074956939 1.4517916171592236 10.51814911433857 -1.4183542011296864 -0.6615648980035187 0.3439755506532656
Ni 6.5486642235407615 7.6699095266311605 5.980630419792383 0.4381229206616519 -0.15706689235074242 0.445537210847852
Ni 6.253748273757103 1.827686495587926 8.50772038229421 0.40322173790909266 0.4108165195372151 -0.5276608169224848
Ni 1.1495984022774441 3.706951404505835 10.548595224188379 -0.6016522808082864 0.25752374951692425 0.3697390327706149
Ni 3.4809918678108756 4.4370915253954895 5.2676123648075555 -1.2991339473130723 1.4381622369945488 -1.7573017024407414
Ni 6.049529452693199 4.031641296224107 9.747223520220649 -0.10685993247904821 -0.9758935723246289 -1.4619174304326177
Ni 8.213527605037198 0.3527497143894735 5.0504064945529 -0.6564291194388501 -1.0397381775844157 0.16654295016197768
Ni 0.3012988125881181 1.273594255901741 11.953049097141129 0.9561176752492824 -0.06835920530068872 -0.7556677879272147
Ni 6.183689796742406 7.064257089547653 2.0151876444520798 1.020631538661952 -1.0919773373947903 -3.401629389084896
Ni 6.745223244920662 6.196222358413261 4.177756756878812 3.2760875639256293 -0.6729733969507764 0.6866015292571723
Ni 8.104678299420629 0.2373818372701198 0.37637304666105703 1.2850926387286579 -0.735287938719282 1.2260536823876305
Ni 5.460216707206724 1.0665337493427014 6.294708619938915 0.6774635715116462 -0.48571455439768607 -0.014352926287562379
Ni 3.9654537048999 8.449943087079644 5.853485031410977 -0.9181969889441091 -0.6263621248501405 0.5226268540430031
Ni 2.172887527482628 2.6901562592943433 3.811396097604944 0.13135251830377379 -0.6023989291663238 0.003214393172239625
Ni 7.56635194945265 2.0739932290653655 10.645614192338178 -0.16676457925448054 0.605596610168015 -0.5055660419059744
P 6.608904312851111 3.888345661945346 3.056174459034182 2.2404932333062573 0.1812838559165781 -1.118015670440081
P 4.324225606627142 2.1807112705605824 9.404831385142293 0.5462951441942204 1.1613672979528387 -0.46461942429028374
P 8.609532873123785 6.769240952134359 5.279102975130194 0.1524347928953697 0.695416556445641 0.0834055581108499
P 5.079959112905682 6.3034231221239985 0.0943448692351461 -0.4569583082006001 0.9664774212170516 1.4876716565785861
P 8.92540625343407 7.0441375919234375 0.6328524677331032 0.14217454861994225 -0.16449018139800706 -0.5766053651419876
P 2.0285626930085128 8.273257648233034 7.176876182428443 1.234378657313558 -0.025484774534665786 -1.7437216497634616
P 2.1217189726375203 8.671312208743998 2.3968241848555696 1.7342589616886648 -1.3597875564393873 0.5620976584441157
P 4.859018065658863 6.568883908794613 5.155996969816394 -1.6906841624215077 -0.6197875569564165 0.6778487227652068
Ni 6.952292859446032 6.061224081461644 8.026011883426914 -0.8326317041777789 0.8745085469172229 1.797808918526168
Ni 5.339554369259413 7.967658053943626 8.154863193902035 0.7161756433698634 0.8712666429411576 -0.46398770424355573
Ni 8.707452619143677 7.6583879492229965 3.2711406803681515 -0.40241852528150696 -0.6620305247860275 0.32456809266093134
Ni 0.929121861313484 5.548764355872466 4.23605047378432 -0.21995761833769217 -0.3045014038180433 -2.5750942847231584
Ni 3.215103006722724 7.369510581116502 3.7357726531622717 -0.11035380456491962 -1.3206877622244482 -0.3631924899013487
Ni 2.1239139925231862 6.364719735528693 5.942505383529276 0.8268621486838533 1.1781188063795645 1.959737509844586
Ni 4.963978269652281 5.377753180049798 3.3145310319669576 -3.453621722991788 -0.06274597287896935 -2.390036049365813
Ni 8.239794979934544 0.19636502169705838 9.22590994056153 -1.566963963852011 -1.0828316663397803 0.890012298979777
Ni 5.68451859402952 3.8043884283102076 4.900666063298632 1.8608665091082857 0.16985735924719134 2.494378871849962
Ni 4.3114289139327 3.0110754529517623 11.490897223578822 1.3156134330253342 0.5357687907415999 -0.20601169768056132
Ni 4.397654031184148 7.509454483785617 11.38278657403166 -0.09895456158904248 1.3161495080344623 4.082628741663942
Ni 3.383035689925661 0.5300790864556534 8.150411219959656 1.2394265041501107 0.5336070072035907 0.5905638842046087
Ni 8.633814711361069 3.2782121054272015 3.7302140613107286 0.2521401166075077 0.28184021477510174 0.21680004654531693
Ni 8.983660806084357 7.93819378286425 7.176409854552317 -0.5190170252045578 -0.5154120814621188 -0.5352779671481105
Ni 7.640809574205009 2.5288632835463876 6.007371408938918 -0.039255860176829166 0.1562672792675825 0.735875435791636
Ni 3.8584259925494435 0.5695621204986479 12.707191441701719 -0.8485548031659387 0.8775059389826501 -0.20976113742066455
Ni 0.3654034120125259 0.5616145090785978 2.6170302192195116 -0.5885386262444637 3.413522798088373 -0.26695609857441766
Ni 5.20027534813243 0.6016239835754987 10.712266289945246 0.6589207755124523 0.03461501897070813 -0.6480365244997807
Ni 5.881660525254576 8.552043389645265 13.130766523870925 0.11743436556078483 -1.5185822301145138 0.26773822815608084
Ni 8.629187864465141 3.588730001535116 8.437268441134032 -1.1739713598700945 -1.1080724431844402 0.22200293090249507
Ni 6.540949776058775 7.287620855838402 10.791502864631251 2.4636490468662733 1.3771095926576025 -1.9183039252901477
Ni 3.410350480951022 4.49298711476616 9.511967482292082 0.4382221652436775 -0.26376741643379087 0.005356636326223033
Ni 0.511466046462513 5.626391552907862 8.027317965798717 0.8109354501512679 0.25319015513857684 -0.2491753775522289
Ni 8.143013729705972 5.252782774028131 10.207149406811768 0.6716865598185529 -0.14612350596536125 0.6286810027913043
P 7.1134492156990285 0.07541122882716987 7.316539559734576 0.41893503487929135 1.4286021041099395 0.45051178124430796
P 2.3431700659988506 4.568018541397346 7.326417149220072 0.6670606310107673 0.8873141833223234 0.4572077052072449
P 7.2857081829089845 0.10990036493111617 2.39989083711907 -0.2862473427038619 -0.3619971840416669 1.0380759593906443
P 0.6354874023925354 1.7837587739756162 5.082319897778563 -0.49975586298210056 0.022756319859909193 -0.041741602713160374
P 8.710594867527721 7.100470363677975 9.336152765026677 0.15996761093730513 0.44846955400329863 0.6626583881780136
P 0.5494134773821744 1.734475568160935 9.649658074091017 -0.5207455778598902 0.5639231416886288 0.9696869292932848
P 4.271080623088301 2.268020235805368 5.057324905777597 -1.5092725226778136 -0.9172107137714398 -2.018605744935704
P 7.072344963649194 4.023243751267327 11.70834263334797 -2.140416385187314 0.06237984778880225 -0.05425901845388075
