# total energy = -340857.8783404326 ev
CRYSTAL
PRIMVEC
9.36259497553009 0.00000000000000 0.00000000000000
0.00000000000000 9.36259497553009 0.00000000000000
0.00000000000000 0.00000000000000 13.70310413229124
PRIMCOORD
 96 1
Ni 1.892863870681366 8.216088857232217 12.216810798358733 1.094162260861251 -1.336203855582176 -1.1631133341096678
Ni 5.018322704285934 8.46073345834564 13.001203369905685 -0.7271833073342767 -0.001802343316061412 0.4023527050405781
Ni 2.851687200188663 2.7417516125011847 10.32728937400716 -2.423415396157207 -2.4308883074954846 -0.8218173871710944
Ni 5.916373431197471 3.239111371412293 4.057763549709888 1.5817827740323986 0.9201787952608282 -0.6567538497681206
Ni 7.641459603755893 3.4539829211847026 5.775337176231822 0.9545392750185691 0.23033870446170007 0.07995745166124939
Ni 7.386694037705477 1.1614860557109385 4.621166115807907 -2.7282356167672495 5.528567280169801 -3.0275356788900116
Ni 0.8007986463472245 8.294519313547836 9.609876805382722 -0.2874555040793501 -0.15391909075038007 -0.5437613220287733
Ni 3.9825201206510235 6.834104332297311 11.550400964696614 1.4681356434281876 -0.5871818551062532 1.5617423104417556
Ni 5.611461807605399 8.431952842049325 9.777219142849267 -2.1015119948126326 -0.13871975730212238 -0.4797490808428705
Ni 7.883894632505643 8.681250652759129 5.194504267466645 1.1307768267604912 -5.943772415693015 0.17363970910775903
Ni 8.094618552798785 3.0030990826688115 10.27954763080021 -1.3627044729758662 -0.718644159515014 -0.19330479163685418
Ni 2.307851520882337 4.031935895801297 0.23258932409874106 -0.8651363616737037 -0.10713426918635742 -1.5774003286939866
Ni 1.1074170709642863 9.547880511651657 7.342136512976855 -0.47721628711868774 0.7055955538611719 0.29881540917685956
Ni 8.898912255770412 9.00566456123904 12.043945466242482 0.7288874345095769 -0.00012392717237398013 -0.722153458219853
Ni 0.06804546620635808 5.512283841298681 5.971524731898532 -2.007172049177466 0.9692968929437178 0.7233428505422639
Ni 7.4696840776698625 6.531804872643649 4.165483011217361 1.6050751689014358 1.001954531077739 -1.5034165781176687
Ni 8.887929932115378 8.31765428520307 0.5509278448380297 -0.2697164349283742 -1.0818032250752658 0.9356635211599885
Ni 6.018594240801617 5.303132836925442 10.68403606723583 -0.8485794857562869 0.28831373831458734 0.609743028236221
Ni 8.282975234207122 6.2780317416379345 1.6666813701778 -0.01822372209687829 0.4723131933901156 -0.21790690645625052
Ni 7.499391590847546 3.089094515551582 12.824886049100936 -1.142121305239033 2.2624504543036394 -0.062082114042725345
Ni 6.844244022423827 1.212970964303465 11.627522530264601 -0.24289237275699457 -0.8839156991637358 0.046566277795313346
Ni 5.79454734816311 2.216594309743702 6.77951478728193 0.7729625704519204 -0.2660518415925934 -0.7987754177499662
Ni 3.511394352261148 6.4848046469417975 3.197797049508994 2.06459275318878 -0.7390643750425788 -0.3595962879096581
Ni 5.972015331864025 5.361180924445658 5.20542573425573 -0.6180847153326968 -1.3547998734168085 0.05884612360393091
P 7.575668650368061 8.820303910154328 10.099173497685378 2.396682865258369 1.601828379829364 -2.6719942777760175
P 3.0689181238409264 5.716847174238873 7.554151535087584 0.28913520577461815 -0.6375441096088891 -0.34852871724158685
P 1.6501573266835372 2.044144676834856 8.329966097314212 0.04371261039660214 0.8609560050437688 0.8408810886707648
P 4.5557262597236265 4.972886031909224 12.663723024176868 -0.2639018851291261 -0.10455802381874896 -0.601683391156538
P 2.0310464067637626 1.7468542053785023 1.4466088990154742 0.3407912393880131 0.8724449795199748 0.36203060838276363
P 4.16762798167718 2.260870020370008 4.161509526000655 -1.846887421220374 0.7210111170852938 1.5994277408076714
P 5.567260997737183 1.971238151428418 13.494584026043231 0.3097299992068343 0.27397058221903786 -0.5711309722909776
P 3.520700771453905 7.66038140776853 0.6501629229727898 1.2518891553934957 0.40880694530635403 0.08068841629000297
Ni 1.8979477596367658 2.33302753819554 12.266415697923184 -0.6196392043040103 -0.9434498499736268 1.4952615531107023
Ni 4.939461568611294 0.23566212769940792 5.006250574600681 1.602998488878065 -0.14533032064010457 -0.029928412128316196
Ni 0.13061943203419782 3.0637686967221978 1.1952794052424651 -0.49091512476201904 -0.21155216788281633 -0.4051549503760635
Ni 3.819610971803968 0.6057776699877763 3.0500365789857624 -0.6953368522476412 -0.7033196133428016 -2.670029183629847
Ni 5.889624497964365 1.0626919557894368 1.7395401463509552 -0.07397423749462098 1.6062082540646145 0.2223088921786881
Ni 3.157525720662107 0.29572504561226026 9.27457607171434 -1.1793205399971496 -0.7830816611637933 -0.5401306672547214
Ni 1.3413508636707538 6.0055989592728976 3.7959516948420995 -0.8022268666336765 -0.5897948672490682 0.519933109260924
Ni 5.282675567371946 4.619082938473512 7.486896271879083 -0.23571822360605854 -0.16802827645825255 -0.09437157020405038
Ni 8.010121135077826 1.2243184291541906 0.21599412488429243 0.03327470289272979 -1.591530854558098 1.465720863339108
Ni 0.8277563654435077 7.869579225115577 5.625850243234603 -0.05270041571750924 -1.0726233583482108 0.558748796576541
Ni 1.8333364931888616 4.063759355395041 6.978483969852229 0.12029086117297347 -0.09298163183505921 0.0039227320931738896
Ni 8.803114186172534 0.1889399710619676 2.9553348692344352 -0.43739298447416286 1.0607582314795085 -1.4308417920737357
Ni 0.14380383797709576 6.52205841149711 12.79258696969332 -0.6261716061058893 -0.6375644213238633 0.2645541740011444
Ni 2.2310688812447106 4.157460203766382 2.554833961907663 0.5743258250791915 -0.7478817162238927 2.2811966245628907
Ni 0.7096200810045845 4.127059858576359 9.784495751497767 2.853986986834162 0.5156087708539572 2.4407834551220096
Ni 1.6294285418819636 6.989308065655797 0.9862997363533573 -0.7333997205576338 0.26731682434794607 0.041145878110690426
Ni 4.710349512206909 3.097942167601034 11.563802582837974 1.4113188915494597 0.7961901735212933 2.3336000778652712
Ni 4.150962563002022 3.1453356222828615 1.8252537651314098 1.1496523235087557 -2.456087175358615 0.28151728421804423
Ni 9.177168572076992 3.569442439781363 8.005956652927988 -1.805916378124651 -1.9059407757391045 -2.589455181430521
Ni 1.1425080761297326 0.2674958861473892 0.006677402583777014 0.6287146842427173 2.771471544637749 1.1320364101992053
Ni 0.22536046468352197 4.149623711951153 12.042726456404557 -0.41581988628907746 -0.36260319305678196 0.8802801592936775
Ni 6.803600998564915 8.162675254118858 11.820584851799978 -0.6082433037622428 -2.133556681953003 2.2016852593001244
Ni 6.753848170003234 8.385879513228845 1.1368886467539854 0.2950292026615499 -0.8415030385254798 -1.8099879770908633
Ni 2.3181222873355107 7.741545741754457 7.842848080812518 1.073771098799409 -0.5038632002822547 -1.5190877089960226
P 6.006413505017133 8.594084895531191 2.9799182342992467 -0.6424037516940355 -0.13487055875936127 2.8361427595638897
P 8.989514085275754 1.8085911552346796 11.976759486235213 1.5612638281434401 0.5685428998488272 0.12240687907471177
P 7.214010339927598 6.755439811112659 6.402570168374651 1.279208669144055 -0.1504730411833086 -0.6056351767154344
P 7.469309573879409 5.1697813997398905 12.30745663205945 1.5532034197328088 1.0817998826411563 -0.00034607048550908137
P 4.0728317097187645 0.11875608821212287 6.926384875043359 -0.22460077353665833 0.1483642223704219 1.681897417367813
P 9.437027389677567 7.70369277113442 3.5637247031606214 -1.974381485010006 -0.5509164450163158 -0.01675099420609373
P 8.193843332079307 0.9322007913034691 6.445036089433594 1.6501278382657 2.1383067950434786 2.621754922004491
P 4.567935083292394 6.507686828538477 9.326784708881918 -0.693417009517109 -0.5392498073116648 1.0349867789423595
Ni 0.7415184413564189 2.3101079062198164 3.433518161555398 -0.1256410697412933 -0.1936557472183697 -0.32764441759340995
Ni 2.5097558769103117 9.317916459123992 4.947971230989862 0.7061326573115645 1.7467846049595013 2.540192330639651
Ni 0.6418461300463049 1.7879559963807192 5.731158836591034 -0.7758602037146896 1.2485240955760046 -0.427247925620361
Ni 3.6158060090394444 0.6613980366863799 0.01262545903564681 -0.6052975908703575 1.9883315194321949 2.7685620843004384
Ni 3.8846435550161313 4.26548582212255 5.403476446279943 -0.5354880262763875 -0.37938092673575313 -0.244596757042611
Ni 8.394418199651174 4.513660121460992 3.2653949836857605 0.5398887264472444 -1.3944403706265662 0.5944845594152536
Ni 2.0822036245396425 8.267180536844768 3.1496995277011153 -0.5919360819617869 -0.2066344188662248 -2.299421889321666
Ni 4.051466268473421 5.31032330970214 1.0088486095765326 -0.019585121220779173 2.4172180090972435 -0.1839277212973284
Ni 6.824816638294077 3.9670812018895982 1.3639456136082595 -0.3893375237278327 0.07134014230588359 0.08351662976741746
Ni 8.529398728325198 0.8911579846482485 8.63543573155406 0.04404916780041446 0.16472955110232274 0.5891299799715597
Ni 7.869991179285075 5.160484343141894 9.363454247524125 1.1350461435598065 -0.5691327109140263 -0.7835053789647731
Ni 6.658546317927706 9.205134642629071 7.1999945355698936 -2.583457054865557 -0.7796623510695991 0.980098354434596
Ni 0.9587297035596836 0.9928938118437587 10.421881541399777 0.3686614834357199 1.2137452973339224 -0.11189800912358792
Ni 0.592895675855669 5.8398529442131615 8.277689113204879 0.8489399544194992 1.4018867996022824 -0.02014356482741047
Ni 5.173020857527308 7.282057678652908 6.29705559793347 -2.2785491596377145 1.0772729413050801 0.23868939041924056
Ni 2.8821343583524923 2.1383417427285476 6.238352128779963 0.8268937732527372 -1.4184369906514798 -1.427019333003852
Ni 2.55977085812531 6.826698519841103 9.919717835116634 -1.895387682813607 -1.1146858347358997 -0.3060389235084923
Ni 8.566942733318111 7.006834843048997 10.64485922571654 0.13205571501838548 -1.4966108680497452 -0.4685526979064188
Ni 4.962708891403664 1.2338963635950262 10.344226307930397 -0.044913829793554905 -0.03689121659939453 -0.7680353083536322
Ni 6.349084473281629 6.608269184059391 8.390520551452035 1.1250229549958495 0.3460928541065846 -0.49886163330260536
Ni 6.126348343909707 6.402376362663092 13.52819761375534 0.24940600550579628 -0.8854285362638363 0.15555328391969342
Ni 8.45380513822226 7.788480429292979 7.917584993494795 0.7307620258244705 -0.4059252528831848 0.07576732483930176
Ni 4.095470463851648 4.19101574339097 9.562409386202281 1.6300675771807154 3.4621937809315146 -1.23491447521237
Ni 4.012751939135342 2.3234964167285113 8.199580730149048 -0.713191621040875 -0.7098551004684742 0.2180568017705535
P 2.9656018906497046 7.141618757233032 5.279217024867114 0.03860357130481094 0.22862712108723204 -0.3870808664831721
P 0.8802149838912118 4.0388829411142 4.8382509829818945 0.5479439926515531 -1.7545452227415266 -0.9066864172013482
P 5.971294412067403 2.865365951134959 9.006077451668014 0.7017664099230688 0.5813367091793858 0.21642337993218855
P 0.7796944214957217 5.157741102876826 1.5579470033981992 -1.8940077717469443 -0.28109099531390297 -0.620788487417105
P 7.561652846010357 2.3448150450000482 2.7423470735280047 1.423956120697496 0.03860665662860448 -0.5104331401902886
P 3.347586394317005 0.4409735319610285 11.69340617334057 -0.49909740346249526 0.3572092757347203 -2.26654802141178
P 5.277947457017477 4.945004224709998 2.6791757741543925 0.5463252261012075 0.25549617756393417 1.3600454380864642
P 1.901327656345604 5.486639694247413 11.8088825446078 0.07822298546864594 0.7067168119498086 -0.18833227812292727
