# total energy = -340873.36637059244 ev
CRYSTAL
PRIMVEC
9.25800087937732 0.00000000000000 0.00000000000000
0.00000000000000 9.25800087937732 0.00000000000000
0.00000000000000 0.00000000000000 13.55002010004008
PRIMCOORD
 96 1
Ni 4.567379131571535 6.2648706046413745 7.041471518580708 0.9554340189186964 -0.2540699866403689 0.3790456548835214
Ni 2.503039378014809 6.583188445095143 6.0774821884684815 -1.0157073618874572 -0.9547225946739687 -0.8651895835091422
Ni 7.990237918027833 4.896232576900863 7.669135270942633 -1.536473765682954 1.067614849390026 -0.44923188609061987
Ni 8.38944291120372 6.882092257935511 13.632268188708132 -0.7124729977072954 0.3004542303318632 -1.8171325585554448
Ni 5.939581489608258 2.77479873259934 7.543011674861146 -1.2843002247343496 0.8104844786567784 -1.1095503132815474
Ni 6.239216684509409 0.9130536614792228 1.5361115584583802 -0.9547447061611557 1.7433439547090686 -0.8523978310611127
Ni 2.509381108541838 6.723336060742095 10.878145349227058 1.1770176028955859 2.2933026637978053 0.6454201699228562
Ni 1.4948338362279996 0.7553278797714394 3.4692932151152265 -0.12751848926966425 -1.684952402144053 2.2598394990433532
Ni 3.3261034204154543 8.086687770043287 4.017323348059209 0.5998656212215089 1.3505251573008548 1.2925843191200126
Ni 0.4518182115483022 7.852071514545529 10.679583451925595 -0.4183812192583504 -0.208922186459137 -0.06738450009224524
Ni 7.60167036773597 2.995842758969179 9.130328309774917 1.496924285525106 -1.327955756640771 0.7651063076322953
Ni 4.542595463511891 2.950552619205347 9.81814129313554 -0.8348937607390783 -0.1445924140328155 -1.2897627905108173
Ni 2.173630452639317 4.721543360383335 10.308990310127493 -0.15139709565947476 -2.252747368083262 -1.0571376040077858
Ni 2.445223163209999 8.712473074049106 1.6790375001362248 0.16060884406572987 -0.09639811371577592 -1.1907673483815104
Ni 7.088897479122036 2.8405212800612047 13.366403403213468 -0.10626677897973956 -0.5349354962070272 -0.4686079766243865
Ni 5.135857410814859 1.8884099649361 3.645185971732775 0.715237190715994 0.37788454469588467 -1.2991306048789626
Ni 6.324917997631607 5.114415881032963 0.9873926302571546 0.17931567644661375 0.8393474256350577 -1.2945093040568674
Ni 1.0271474113609713 1.8318991282397732 1.6732512496553589 -0.46674238417055747 1.5003585080176354 -1.4012365676127934
Ni 8.76840065669696 4.394097131170954 -0.05350568964658438 0.04229104745872716 0.6092169805294217 0.22068704030454897
Ni 3.686035974327609 6.2975235733549955 13.259697537945689 1.0904349326083347 0.011131591136787279 -0.6485196347837863
Ni 6.150710197154087 8.203375611740617 7.1701419906738515 1.2769026467186977 0.863101847742178 1.081403675644002
Ni 1.2587640746094484 8.60805208337121 5.695967383162735 0.660029949416231 0.613912072012246 -0.2743570190241791
Ni 5.186544965027243 4.265929368519585 2.8928752744120776 -0.29741930016028134 -0.583536287933866 0.021792927505375374
Ni 8.516610809771993 8.462192281249548 6.940035307350861 -0.7664659069839832 1.7257650652850407 1.1518449602847003
P 1.5171548760829872 8.686745089910984 8.930682300583358 0.07090768275415531 0.6049553770395905 0.2599315876274685
P 5.968947868048748 4.650590042486768 6.216911383255729 1.1337076272540412 -0.8066365656655979 0.9549894751821101
P 5.870933413903268 9.652391602160929 10.783051794324319 0.14560568578867827 0.132674579549307 1.1060394719148114
P 3.6723989391943053 2.1180917060237756 7.391644288081776 1.0520781872070073 0.06693558548028473 0.35810710495864134
P 1.0564582417968447 4.277288935463621 1.4267495727698645 0.41342567502528793 -0.9234921759047773 0.8537350618152975
P 1.4857980274770797 1.6312504775648893 5.459912434345415 0.005766213059815875 -0.17038700649841623 -0.7449925676015556
P 0.07566656608826156 6.703801679118692 6.491747171495927 1.7838252026525665 -2.346916335358203 -0.8776704895849723
P 0.42602727300494914 3.5970388129315105 8.315104868225864 0.30532441393997095 0.4989441657140826 0.7544354581820103
Ni 9.152765074639523 3.539454048145935 11.102195448446718 0.44234107250805754 -0.7564789709746005 0.6401769192460459
Ni 8.180684251854855 0.6139146954193124 2.841981266782537 0.7669970968971048 0.22027694935032383 -0.11337510788974667
Ni 3.7837356564469307 3.497172758632153 12.435056858014017 1.749874813849051 0.051824440870459135 0.30313023450212956
Ni 1.961992555051173 4.625084250367112 12.963940519566833 -1.869119493145697 -0.5117608578627768 -2.235173877975873
Ni 3.752989835891803 1.0426730786512302 5.289385614973803 -1.8199646286876012 -0.6635053095593412 1.0413052649612196
Ni 6.932085462090191 7.978489515051483 1.63562303132827 1.068384894786831 -1.0423061954219082 -0.45074420897008827
Ni 3.2743697121161306 4.5274771482554845 1.2778577753962281 0.7170870994405392 -0.7220159042007244 1.1012001415446389
Ni 2.3087972638723397 2.4844307964683447 9.172292975662387 -0.6079242298599272 0.47330152544531395 -0.9701780099970904
Ni 5.049924647673426 1.5378557658033323 12.587250058462015 0.9181908182965218 -0.7241915716958044 -0.40797005122735547
Ni 7.8017265063616135 4.838027526063739 4.227931755961798 0.2054666238103687 -1.4493205676042136 1.3688311546988943
Ni 0.6190352956448594 3.308448412948237 4.008637491737373 -1.4644373686409942 -0.564417307716228 -0.11026098774079719
Ni 0.5940266581665193 2.1035936768189183 12.926881668287063 -0.9571564009264417 0.5381357483118797 -0.23824690356518322
Ni 1.7201643169540641 6.555275572775447 8.49618766007473 0.03799524829685069 0.008843052212926706 -0.29078508267321534
Ni 7.6284167319587235 8.99034270914143 9.602952952252336 0.773481676180184 -0.12867599991287515 -1.1796496412017943
Ni 3.36998634406234 8.565650439847428 7.8264101880129475 0.3594854733634067 0.25426487625999433 -0.537378558430881
Ni 6.1358696219207625 4.764935609989443 9.717992869812717 -0.5526668520485191 0.9391895320353759 -1.3765220955852486
Ni 9.019783151588076 5.3193232120617635 9.70177377826483 -0.0838948390424426 1.5319046582550326 0.5071678391754556
Ni 4.582599284836403 8.333709746572021 0.4962408766400428 -0.24128594750182317 2.0547667682372937 -1.3862241533643611
Ni 4.845165444656935 7.873485270325117 11.307234243086443 -1.2443447673873342 -0.3932661693582776 3.118719852505016
Ni 0.6407767846516834 6.128592833316025 4.037241936714542 1.9398292009564333 -1.7401079642702741 3.1924976577181146
Ni 4.95966839817269 6.812175836125115 2.087895810714349 -0.7227756651848843 -1.5518178522391919 1.2868906111693448
Ni 7.851321616483209 3.2065085664765376 5.975165541365468 -1.670588163002581 -1.386244465079335 0.7788442260436781
Ni 2.6457051698710337 0.9651280642068603 12.585651201729142 0.052527637585070834 1.381634991331782 0.21553660645186104
Ni 2.7266849026008453 2.856528363391472 3.369442899417177 2.004763439735973 0.09293303798531091 -0.42028229293580527
P 6.938973414662613 6.273397223349978 3.162127562388259 -2.6792962107540697 2.3321504899029386 -0.9300515742898497
P 8.19098840671118 0.839124822135375 0.5141680693298802 0.8722927702128268 0.3962951859925885 -0.06561558111728054
P 2.784871437436431 8.229288755894126 12.484256651502761 -0.29578022189496156 -2.218695677815192 0.3387497834779521
P 7.547075937198906 1.0498665452490423 7.6999616361044545 -0.465571760901224 0.7159198186053154 -0.581848872929114
P 2.099936766515011 2.8128120837584354 11.398574604477274 -1.0865903620512642 -0.9395749403992527 -0.6627157237785102
P 4.44909891374187 0.015372910277563998 2.54434117104719 -0.3812033246564725 -0.1956594079119598 -0.0403218395474983
P 7.448746711027266 2.3798987097812176 4.028068183752158 -1.0462893484393725 -0.7270701787951801 0.4002408009038978
P 3.9586007749790766 5.959902801297059 9.133513062039587 -0.9522746473541084 -0.7250562336889449 1.2845748185519748
Ni 7.621704681400919 3.4766107389233487 2.3067281007003824 0.44853871667833717 -0.47250319791373463 -1.6141910151597747
Ni 0.6382613858426415 1.6251772290601727 7.433270111141085 -0.9545806697794658 -0.7577560379148112 -0.07281261308635202
Ni 5.612200066401262 0.7384135123657728 8.768245122284036 -1.3961375558233309 1.0683882372209406 -1.3455708986193728
Ni 6.102383433137897 0.9963090107981495 5.627526686674979 0.38706055476819795 0.028272107471815827 0.8405008225132106
Ni 3.5893917042959984 9.925687784873178 10.246444182729602 -0.18215108901287985 -0.7461274525369472 0.1235456206648453
Ni 7.421037514724497 7.416010420306721 11.28963293202369 0.5301650714015772 -0.08127797024488582 -1.5169773475212391
Ni 3.6865359063691563 1.5385038258571893 1.0969027439579806 0.2792709113860287 0.9493376762129716 1.1113418579643313
Ni 7.007880714389147 5.3320529631196685 11.78998065780503 0.11445060034211257 -2.645675437375831 1.627703962044545
Ni 3.2001668359495086 4.409595024458904 7.848293324431543 -0.1744318659917512 -0.5503816555587682 -0.192862561893113
Ni 1.4895660337902195 6.462010473024661 0.5670155151217613 -0.7112093005035236 1.4998903101319652 1.2928121188601027
Ni 0.3274647452139212 4.517367411415316 6.046127191462728 2.868596509217221 1.687141439375572 0.3153956821330439
Ni 7.095961333709077 6.498644382069118 5.906629487469787 0.27830520503864975 -0.2869050308925188 -0.06687902121073643
Ni 8.769382004778516 5.894522799863662 2.142623556462492 0.11918785791678181 -0.689518188683335 -1.1486783896312602
Ni 5.258488889006134 7.615446272880815 9.223254566697545 0.737333508394401 -0.6803851160338154 -0.9062513865464585
Ni 8.449693980210878 7.838517801419149 4.426344599450875 -0.40754479076447875 1.1206893606175024 -0.7737691255136158
Ni 6.738889502034662 8.911436768583961 12.813766489086639 0.28088479284036794 1.0029258938520726 0.9485313782615922
Ni 7.764416763260992 1.4392858316116888 11.406352250923634 -0.4028687254450481 0.4287201392905133 -0.06009645107126425
Ni 0.4402392299860322 8.952320099981566 12.88478183558836 0.28819186802474234 -0.4523547479903177 0.22161083767039896
Ni 0.5508630811794151 1.0978229892344573 9.876541687788897 -0.6051595226305965 -0.2606658946903317 0.9282065506613111
Ni 2.705354468828182 6.348812897617389 2.8432959028917897 0.21035351958902482 -2.1512019058385916 -0.3251327069151497
Ni 8.451832578388606 0.9641004261214585 5.302298674446941 1.6497306028272813 -0.628434433998137 -0.06988669768880867
Ni 4.976629055582205 5.651935405703464 4.635597636040825 -0.4668979359118152 2.199329357473438 -0.3777932705336591
Ni 4.186143917889024 3.5678113045025612 5.556389134563101 -0.37855174596623836 -0.8429744808646837 0.16637994222155217
Ni 6.0557601412632724 8.3633816390379 3.803707015706648 -0.5133384867625418 0.2601614442500874 1.4102963638222163
P 5.375871080761168 3.0461414771492485 1.130308388134153 -0.8279741508011096 0.039965484649344074 -0.0769132655182869
P 0.18445733312930615 5.891208435588222 11.936198744556469 0.09533341989668744 0.07283009658784877 -0.7359823936831453
P 5.938266853499006 6.853105457526566 -0.5127636306131644 0.3490290539167731 -0.7131509976109266 0.8424615457840071
P 0.8963346378897903 7.70496188232 2.6962103414682606 -0.5954350962539809 0.7662195953011319 -0.13604760978659794
P 5.837262065105015 3.255418584541199 11.351759671986724 1.8295039356366043 0.6962927884030073 1.5384488871314537
P 2.425549911575055 4.6610330673546345 4.656735503397486 -0.05779119997685531 0.882710366001725 -0.30491715119922325
P 4.63941563555812 8.10351881544203 5.845776648412618 -1.5401195899656572 0.5830773460195764 -1.9732615124729498
P 7.241682265819199 6.594103628002248 8.972199805033666 0.38878396521720787 1.0023970179317963 0.35288133778332775
