# total energy = -340856.7242403355 ev
CRYSTAL
PRIMVEC
9.34535191853698 0.00000000000000 0.00000000000000
0.00000000000000 9.34535191853698 0.00000000000000
0.00000000000000 0.00000000000000 13.67786717542964
PRIMCOORD
 96 1
Ni 7.292935179042568 5.875703195130884 3.587773171428718 -0.893029745649862 -0.07483838526712917 -0.1685275846921743
Ni 8.606144049272702 3.08025607212114 10.411291316941114 -0.1286646870589655 -0.8586772363119212 1.2036071804586561
Ni 5.019117571472871 4.771970391127682 3.3708694193915183 -0.6145952141221996 -1.5155149040430997 -0.33638308301798836
Ni 8.181266963618398 9.154071385384734 0.5542176925776747 0.7061899929120612 -0.49990858650988107 -1.5684240933373053
Ni 9.254618028103252 0.15809718972002001 11.555089514258086 -1.7720240962525806 -1.0757390211590572 -1.5727350620078333
Ni 6.703467753063093 1.1283951880662342 6.383638966210354 -2.6181877734785233 0.1321870983899272 0.651708316924413
Ni 3.8415004141531353 4.306721384612332 11.451835523050343 -0.7886018196510741 1.2860133507707143 -0.23136071796831123
Ni 7.90349506460153 3.599222162226604 3.62499010143729 2.5873880144888473 0.3974511539739026 1.460392509147659
Ni 8.86568316643774 8.059001722732965 9.546973348995968 -0.6589871099740134 1.2733133867055424 -0.2593086093314889
Ni 6.091122905262358 2.9587571501039043 5.110488947547552 0.17720840029562382 -0.4104370247106092 -2.1782758792372485
Ni 6.263582032014613 2.631856735354046 2.6767994679033187 -0.9654458946287438 0.01143600975108353 -1.122770154405931
Ni 4.7424203879418885 8.00429403182543 11.461040694820744 0.723916977878179 -1.1671605075958482 -1.7711607198110206
Ni 2.050566492419343 0.8240609949143315 10.33299969559725 0.1104075406209905 -0.2870338431608992 -3.1343601301454345
Ni 8.948996979973904 4.698562650765757 12.31429376593731 -1.1265085384024405 -1.7210082673263458 -1.1178704031114683
Ni 3.075798339192733 1.5004243078711827 3.2927824612575733 0.36287752976409116 0.8877754392294581 -0.14700745123221134
Ni 8.542801253069884 2.337908031936607 5.8184143179868135 -1.0909774353753663 3.7419033225168588 -0.790611136771619
Ni 9.121671049823336 5.34433582285352 9.58815738095026 0.29269001300541203 -0.12326742730279416 -0.921376158003039
Ni 3.2131469782887496 4.913683309631593 0.8625507618722722 1.3474676014214535 0.11753669546660404 -0.43886879768874093
Ni 1.341553323001326 1.9708132580146749 5.9008375194725 1.4639460308268724 -0.4548692868820553 -0.5164310096449364
Ni 8.709456916198365 3.2308564204257135 8.119250272871641 -1.1045245779321815 3.349463505714619 -0.5271831059551179
Ni 4.630107946990951 7.065843124199184 6.060608461744883 -3.7722497960192003 1.0897024253176846 0.8056338354326964
Ni 7.81916260769179 6.225892227192252 5.96188135907073 1.0008774959634763 0.91388807715611 0.2618516874683168
Ni 3.8952735698555565 1.9849995024283482 11.353532699359313 0.005133207461507288 -1.5905381516275254 1.0558211991892075
Ni 1.3175544589339265 2.71381547284279 1.8975438288631072 0.5527969498684802 0.7607156347637674 -0.6372522894000832
P 0.8366547913384855 8.835095829174268 4.750569534930507 3.3466743730052553 0.7268804313818772 0.7462953455733792
P 4.25462104692707 3.05289288131532 1.9744271056528617 -0.41752247080248095 0.2617133621182396 0.2694328422496844
P 7.28615045345342 4.192081951000653 6.367867750088802 1.2185512033629982 -0.6939073188899663 0.9645380381024937
P 1.5970926294884649 5.315439994311308 10.861293381584984 0.19700589463752524 0.050169164655223274 0.10135880015516091
P 5.1420837137621405 5.084067768228489 9.883407891908426 0.8985131373619365 -1.6099880328220209 3.3324913966366543
P 3.98795142614699 3.2712003052306056 5.270902850041057 0.23377472672644256 0.7476171497085964 -2.4510717244218947
P 2.8643784397391587 6.1287472926203606 7.206553286428007 -0.6205066945106282 0.10596184614481105 -0.3361311149081824
P 3.1897835981608296 0.5937933894439611 1.262865458730491 -0.1510343130034173 -0.46505728315865064 0.6413334014479923
Ni 2.519226552433369 7.976052377926798 11.0636436168729 -1.1635725331342734 -0.556797586387441 0.8178244639616173
Ni 6.335625350977067 7.636881515933757 9.346305277077262 -0.610491219256155 -0.11522115995954996 2.2587586072743484
Ni 1.4799019147668178 8.929988533901827 2.6656523319766854 0.7213147643686416 -2.077123538665939 1.7354457829079144
Ni 7.7732115116561955 4.771390979300509 1.6502620754483803 1.1538416789997548 -0.3534207552265655 -1.2083048430446415
Ni 0.3247005188770132 5.350541136615496 6.9953539372828395 1.1757608476703492 0.09943484365957068 0.7791005650288583
Ni 5.09590832927732 5.801949676743065 8.09675040327325 0.5643864544782925 0.3857233240140131 -3.2077514985533915
Ni 5.212127127385645 3.4734711050260865 7.15206147315285 2.653346066547211 0.023982993178158697 1.7638325615807235
Ni 5.352045738295733 0.582983620726375 2.1584221349770787 -1.0917917037465454 -0.516870154064884 -0.5460627164684402
Ni 1.4304556570640876 5.405631986957131 2.2084833168447755 -0.5051328110232979 -0.697881730156682 0.9957802839462269
Ni 3.9310288868033254 9.372827386198475 12.990527178500649 0.43637765583577104 0.6689079686321512 1.2337201977939527
Ni 3.669910405141639 7.507168029463545 8.76447674186441 1.2931126808196567 1.7291013287471255 0.4576255094709538
Ni 1.5828222769063314 2.852397698409561 11.440551010448559 -0.1124176290724838 0.8231795576259435 -1.747609157743326
Ni 0.2604213183986691 6.92803656285266 11.584743250851647 -0.39786818690666315 -1.2987282272342213 -2.0202345387883787
Ni 0.8373267221509645 5.583361892266244 0.21765138020129346 -0.8452581346925379 4.642335017057747 -0.5087300414562529
Ni 0.8886186868838003 7.908494827948905 13.335921110424565 1.0793092550088186 1.5220179952689399 2.4318085053169085
Ni 2.28592918382801 6.548718068447801 3.9093392592277696 0.754020739242095 1.2828678631631971 0.8332477404952231
Ni 3.886750608784891 2.267574912399516 9.103140151241075 -1.1775500783602881 1.311420220879593 -0.6604852917860947
Ni 5.719065749401255 2.908348321139904 12.665746289595997 0.06080478999219851 0.3914311730320678 -0.14291682610260548
Ni 8.264991972644811 1.9568232659940763 1.17080533020964 -0.1585455337787979 1.6001839022474056 -0.34142938719264426
Ni 1.5250119291178057 7.0633105337933175 9.03049779521214 -0.8660316197944634 -0.8089135346252327 -0.4676965205537106
Ni 6.47389917992615 7.853665647464702 4.793340407663087 -0.31607753869141697 1.0768337968851327 -1.9499508627714675
Ni 0.1826670547977459 8.200920238982004 6.774387760708997 1.187927307829554 -2.3790219576434963 2.440499348222687
Ni 2.3172828399596788 4.171363305503214 4.190009151915704 0.5301951533085643 -0.5149965911912551 0.2310215894613376
Ni 7.842825039085347 6.622770638101257 13.42510006690804 0.1439619795376682 0.301085693268275 0.12505897198557817
P 4.661826071852615 6.835396087969432 3.4343757592552304 0.19943327313209525 0.7780209588114343 -0.2938778626659262
P 0.6342213824173142 2.9578880323631456 3.745301229208822 -1.1740484929649329 -1.0091793309609522 2.6723655450725072
P 8.066515385782106 0.9896540915145934 9.636727979165794 -1.2198164432286671 0.2651247017926337 0.7824026328188977
P 3.478611048654229 3.0859473915203015 13.261936761841083 -0.09367171592354835 -0.503721532498068 0.23016566921894552
P 1.46567828894494 2.8564255451436145 8.60945136936361 0.5714981258224093 -0.6000844221005343 0.39267815806529144
P 6.8674039187446825 4.612893808512699 13.386145835953156 0.579247430750525 -0.6054081483062929 -0.039703746347525166
P 6.700234261253389 0.8741735762183098 4.015247330418041 0.5388898528690848 -0.3009499390213591 -0.28118921145466413
P 5.062965963296952 9.070308994950116 6.016415226430116 -1.4101264139032552 1.5714955331737774 -0.47908367934472973
Ni 6.8976174419261085 8.148530195383156 2.1554540511656275 0.058156553736074035 -1.1425221402218775 1.5630283762430308
Ni 3.7286552881352812 1.3950834995504164 6.225057687254083 1.5846930057006579 -0.7643306058085353 -1.440473658736545
Ni 5.9784553409334755 8.217816635490516 -0.05333672776163137 -0.15803645535286331 -0.21207050228013155 -0.6814832341940006
Ni 2.430604578932143 0.8335325092181902 7.908241568908318 -1.6196576947013008 -0.6494843126899008 0.8947076475729171
Ni 3.591727189881567 8.597882758059468 4.235022909140565 0.57197557967946 0.4223489456568468 -0.6185583125350056
Ni 2.8985730828943823 4.917972826223081 9.078752520528345 -0.1259470310174863 -0.3430422402057189 0.34090873880248385
Ni 8.783135671769774 7.6289660027464175 3.868004767105453 -0.14632122379846413 -0.27595984473492474 -1.3097034952988025
Ni 1.8666032372921 0.6776361499062203 12.440020525222494 0.33633063251349815 0.6427937880436027 2.2391999684161306
Ni 7.270132520037718 5.5546996975253125 10.926619261493059 -1.0573057541545339 -0.10933667615431492 -0.6694530425023439
Ni 5.532971754006347 5.949531476335111 12.39316012643232 -1.1383816356909426 -0.23315714774710167 0.08084242536936398
Ni 1.0909950891574596 0.7087281361804564 0.9160370152667222 -1.3479789938402333 0.807350561013487 -1.5808006126247873
Ni 2.6613880478357372 8.3017005155018 6.350018127671071 -1.3810924885647506 0.17234207334225804 0.5701308131612375
Ni 6.48021663791274 8.031059120099973 7.149434494691268 1.6516661292870973 0.35494541940120805 0.19430263677374923
Ni 9.194499378358088 1.2245588606727533 7.894194570240208 1.1976460777792148 -3.5548375698111814 -1.0178030680742214
Ni 5.701160054871218 5.473927819747066 5.505410441737042 1.100458378282608 -3.8426031489317825 -0.9550714933729552
Ni 5.7363079239356605 5.963222417090072 1.2759564278837674 -0.6947938352599776 0.554634260187535 0.14687915318446318
Ni 3.0751722006053046 3.47949885709909 7.084588031343417 -3.9405122999754463 1.402877702760642 1.3872155707433529
Ni 6.034116257750232 0.5933868666297353 11.27634850223351 0.8190884182757054 0.21994424860125347 -1.2130302735447689
Ni 1.3053027023948451 3.676695130730787 13.47334264326658 1.1970038162095258 -3.6568723129874434 0.364530749096798
Ni 8.88448601476469 0.9855141005559258 3.3590382036947393 -0.1818276442351901 0.6072236042484769 -0.31390187119633683
Ni 5.921271131732379 1.4513799003066528 8.454658696128883 1.0954724950322423 -1.7468643091575013 0.7279032162194368
Ni 8.413274673640696 0.20563699560431184 5.618033148376078 -0.45552646085008 -1.4484723606713055 -1.900820938014036
Ni 5.916747981339613 2.9263100877822494 10.197971507415538 0.7612375687055084 1.6686346388206357 0.4954703482328693
Ni 3.9628591558896034 7.859179405174891 1.3598889037257178 -0.20847327184717646 -0.5475141042029861 0.9670083540198572
P 3.5824285645906553 6.685384496844082 13.179978958887544 0.07536777540803795 0.8594369972960813 -0.18733314743445156
P 9.028002586214477 7.233330523660218 1.546488482666595 0.28954349695663034 0.41684652778137893 0.006590765843640261
P 7.895074902403428 6.6471900430109585 8.205065837151901 1.2561049932470563 -0.2934945111845784 -0.6312153391773838
P 4.285600888976692 0.1635745005572096 9.481580182553124 -0.18295918673647202 -0.22694099163406078 0.7649409856990245
P 6.352241386924044 0.9687018122158746 13.347396268208193 0.3539228916739647 0.11969385101892288 1.6438422623673046
P 7.4520491430657545 7.738400075265595 11.441645351173749 -0.6276661883735448 0.2841639778122719 0.16610200596981717
P 9.037413355730004 1.903022074235502 12.682501571288535 1.0026055343981766 1.4643628066493168 0.9110063847329408
P 0.23597948464404422 5.538672418757559 3.9270935590545784 -1.0883783071896225 -0.3907081788231142 1.5013720368838144
