# total energy = -381175.1642855005 ev
CRYSTAL
PRIMVEC
9.21891798587577 0.00000000000000 0.00000000000000
0.00000000000000 9.21891798587577 0.00000000000000
0.00000000000000 0.00000000000000 13.49281833483884
PRIMCOORD
 96 1
Ni 4.975164181231054 1.8112500103779288 10.066492258817133 -0.25389515162540144 0.24917100667685474 0.16953082914570805
Ni 9.13991173144632 1.2447014134461902 11.311920122990493 0.06177461010463555 -0.6882598907962018 0.17938920999702654
Ni 7.062603751701375 6.053095370635342 8.698766230346378 -0.5241000961544199 -0.20513829393667252 -0.8235269136630333
Ni 0.6024489068523565 0.8036619299016091 1.0148866977440905 -0.6764968367230026 -0.4939132881583945 1.0206068560716035
Ni 0.5931460968423684 2.2871766447705904 8.571542398237728 -0.2645557166630412 -0.5200470091309688 0.4482834061344216
Ni 1.7038680551739438 0.37943037739479474 4.749606761795541 -2.264274394886255 0.6267997266081914 0.27971365535040216
Ni 6.158025093689235 5.69208254733623 4.354874824540892 1.0477407361739182 -0.951886153666438 -0.02326051318983736
Ni 4.543875547104335 6.93813914170747 3.0449375826597813 -1.404359429512491 -0.346217552609907 -0.2737713217240381
Ni 4.42864829280363 6.083499361729326 8.863877049173933 0.38364690110095867 -0.4497504775982512 -1.114712831319093
Ni 1.9752084644732988 7.229742732457577 4.104002256668726 0.29342534850953983 0.20991617494129008 -0.5077514795930675
Ni 0.5197275569171439 5.999736274076218 11.6039182834249 0.14458418650269939 -0.11780743262948744 0.2826179734813907
Ni 7.662017790795048 8.029198070140817 1.3004684913496882 -1.2319620774522655 0.8812836608575273 0.95503729770091
Ni 6.577439761615514 5.120279167225725 10.909267291512693 0.24155437067186145 0.4702614530674094 0.4707946998630602
Ni 7.656615504930561 6.180666755947217 12.891861952973409 -0.31111196715602546 -0.8048979857079364 0.6273301451903647
Ni 7.808746087414778 3.451544408006656 7.568081627286205 -0.24777541188090876 -0.22326842787848 0.1879494408622118
Ni 5.440203273634026 8.1954520347827 8.127628456105183 -3.29396907219174 -1.2865777079146166 0.4337407324335562
Ni 7.67117217622753 9.69654999168126 4.765960200182934 0.49185100631272716 -1.2414702740530168 -0.9832075894875391
Ni 0.24936527480246806 8.121783662183537 6.096581006169098 -0.7237868800582181 -0.4577957165002309 -0.001605139703590784
Ni 8.775248216675644 6.8768425568730525 4.17322065761808 -1.0282407184677775 -0.24824849486258535 0.23424600993590622
Ni 4.598009032763486 3.0510746162775093 3.826752521022723 0.4308613540032321 0.044127586446833685 -0.8790982231704345
Ni 8.44536767898126 5.666463174610279 6.659150718153546 0.9624181635460134 -0.08563958964769122 -0.23295557325925687
Ni 4.892977528531575 5.378547151003166 12.667988829830458 -0.2421135856094411 0.969655304724401 0.25664057558102255
Ni 3.1672514191175347 8.28368629759669 9.067888935684719 -0.445515099360665 -0.7695964821931649 -0.6283341609748468
Ni 5.812712087501421 3.839596317381771 9.108489049929082 0.3456930475650047 -0.13459673627268431 -1.4772450619286235
P 5.431583585437277 2.7191843544901935 7.1607465074285885 0.10890755903669631 0.25510639832468324 -0.5441649852250952
Ni 5.29312465813571 4.774763344845046 1.9673207583544345 -1.5401198470759734 1.373505677356428 0.4811230783722617
P 0.3142295808477323 0.09391311621419934 8.748189770872141 0.33587888968806023 -0.37634882477764864 -0.20853652098494407
Ni 5.76858112771764 0.24663924079200977 6.271218654710578 -0.06991138027915701 1.1721402201986264 -1.3046559055725662
P 5.5800173818606424 3.2392972621737797 11.521301107261477 1.0836119961492305 0.848481783836158 0.8106243466687523
P 3.1094211473975317 1.364704067197072 0.8266373169860332 -0.8746489291498292 0.3716696741344244 -0.1935181931992409
P 4.397322409923897 6.7469572231789465 6.466231033608887 0.5060733205596961 -0.05630227413615464 0.17359574324370103
Ni 6.856090772775854 3.261809859581758 2.62536527123814 0.5329976557543659 1.0756297492747025 1.2203653737536013
Ni 4.983009480327774 9.052221384785922 1.9578888834944417 -0.4572938371631479 -0.3169730539224928 -0.2322616325160258
Ni 6.967058887026401 0.44471137852721726 10.710234542536737 -0.9146540087878571 -0.9003882428974622 0.2679220620321128
Ni 0.9069847955729434 5.3369052990409065 2.8404269526929067 0.48956658115392465 -2.2262999725250108 0.9139117313051939
Ni 3.585393876379481 3.779719445897406 0.6597749037655554 -1.387367522940185 0.28564801855696614 -0.6973626244284183
Ni 7.510495656889425 8.36256335878533 8.137154363927323 4.230674918573313 0.4951762140312182 0.11319101690339861
Ni 2.617195466232837 4.871571201266495 12.228298073968428 -1.8666116391221788 0.10776958877751118 1.27280019451455
Ni 4.157363197011421 8.089545106435912 13.227873071043021 -0.8004173242287634 -0.5920556382587868 0.17681476440163096
Ni 3.133722214869862 1.2111722091985173 3.28241137531788 1.036857256492195 0.28195822841020474 -1.4908014604568196
Ni 2.865101386338465 6.04902982786019 1.2968758790606265 -0.08462940321562198 0.08892160283307267 -0.6200919755707127
Ni 6.106122586151595 4.956661813091081 6.740526106081566 -1.4338921488642853 -0.17047776644000961 -0.09618728325655047
Ni 3.8626067363540533 4.765544426987561 5.171055123001181 1.6292535659198522 1.5480483578944306 -2.268659154217512
Ni 2.071324902055437 3.2369556570379787 4.397134343999604 0.2543494655540007 -0.7912716531737534 -0.051950424925362136
Ni 3.1534783558384523 4.676867656116413 7.086360903020114 0.2739574695929153 -0.7452687040810778 2.658278985072454
Ni 3.7793967837723943 8.69378063956905 4.877680578130651 1.60540761254019 -1.166084758033166 0.4713672845370785
Ni 8.641537032070683 3.120207281290789 1.1560264863586136 0.17124266963049217 -0.5685547269233692 -0.4722412025015996
Ni 1.1524753591999106 2.447521283065826 12.895166935025319 1.0333389589262914 1.4511856458374104 0.633449113603909
Ni 6.453076559718041 3.985909762697915 0.1322278607216926 0.5807147593246709 -1.1109441083052805 -0.34308363496661554
Ni 6.940084333375399 1.1083904940054174 2.105770466738144 1.5119621536948347 -1.001322811031011 -0.18143477967214558
Ni 7.952413703305824 7.395969040345888 10.380011061098052 0.5246114885731997 0.052265385062619664 1.1502483052215418
Ni 8.764111763903802 4.609892217881785 9.807686812128601 -0.029145254105388516 0.5235012862281565 -0.9562925102642498
Ni 1.241502448949643 5.25500443279501 5.286121968131165 -0.3411257399092964 -0.09195833277686744 0.18440106138932114
Ni 1.7597900108974478 3.014964115029741 2.158418784730455 0.21261300504716288 -0.3936551772665801 -1.6382778809056495
Ni 3.775100768050806 1.2234610267025448 8.07375125636247 1.1199074881461553 -0.9302305230698753 0.028208858334048195
Ni 2.1580933569300855 9.094831223123219 7.100730430284576 -0.7462020145286246 0.7258913279957305 -0.0354475421743325
P 1.0286099788667424 4.744995459083227 7.75961202090974 -1.1758814324086138 -0.721515567525538 -0.9003229368771655
Ni -0.128007440126536 3.2304286631948793 5.538518423125174 -0.11351111924697872 0.026585463798012274 -0.723029175956587
P 7.812590376161349 0.9562138169319131 13.35261424857265 0.22773546251089816 -0.4554580695059898 -0.32309922142488867
Ni 6.790700988412713 2.6602017180380044 4.97889046782905 -0.5821910867598813 0.4654048963060565 0.9757583322983452
P 8.259855394935089 4.589204966209588 3.993873985834996 -0.40049276901370384 -0.002779619627666181 0.3459334457105849
P 5.724717516551728 7.270840668266246 10.333568918607401 -0.1951932669088187 0.22199650314459185 -0.11993630604703215
P 5.825563258994754 6.6900764999982645 0.8969905667236439 -0.16284493248510018 0.1284181182657982 0.12480057611786893
Ni 4.290991411355665 9.048248031189347 10.94850484969772 1.056786134205638 -0.5739779548214696 0.8741483353643269
Ni 5.017617297964772 2.29337175757082 1.3653917984692403 0.502491773856025 -0.9029187226287998 0.6720182321263588
Ni 0.363356272218484 6.868103022744157 1.3974238504568577 1.6765073567004936 0.5936934309725259 -1.1140836823755265
Ni 1.394665550233898 3.3474812632313657 10.56819590943111 0.2583179632834455 0.044092619443840186 1.1350091196742842
Ni 1.978213831694839 5.470911489017308 9.496893121966352 0.3266884814380438 0.4789769785635363 0.5860114889472359
Ni 3.57183284821112 6.717124804992126 10.973681714366512 -0.17098504509373133 0.37444749398987776 1.0398009125015513
Ni 2.166657731619689 6.648582150721725 6.91168269124006 0.5177885521140954 2.0497562023965794 -0.26421041750848046
Ni 6.366317323761251 1.1355309881778533 8.366141220805819 0.3398769551038598 1.2330463116553796 -0.14319219125117919
Ni 7.79052028681053 2.4009934046390997 9.796906209586059 -0.3970994270614387 0.8357332259212381 0.4979635469683682
Ni 3.657292216750006 2.4415197675406035 12.006030886316251 -1.6009740022488688 -0.5204537576510843 0.8609768309793753
Ni 7.701142878182213 5.548304304430895 2.0318836057857594 -0.5695476869642578 -0.13708839234628648 -0.033232536800884706
Ni 1.2688088836435134 8.112260520036756 10.497777205376709 -0.8269601077142983 -0.7042668077474193 0.16133749470163827
Ni 3.848492573114244 1.7458786638505028 5.779311026211967 0.49324634399835704 0.46918184684998554 -0.7550172988274094
Ni 6.9617580092583475 7.416518008250223 6.005613334210365 -0.5161628435852142 -0.48005581345001186 -0.28577451683250144
Ni 2.606501521518154 8.5280613721629 1.5467896794756149 -0.6943904291739718 0.08259334662219969 0.4776348627133451
Ni 1.8700667063086829 2.553926032976918 6.637831970608112 -0.6488423082305277 -0.2821839712677656 0.06393587942201247
Ni -0.12137627251164707 1.8185052987317694 3.2357258533957904 0.3167069447452997 0.050560229446054865 0.5608727848980792
Ni 2.2889743337527997 0.9355910976847193 10.401451498359206 0.17566702395043296 2.301049911843392 -2.4149528672121505
Ni 6.395707233890913 8.251899468824082 12.751940905299646 1.0115925683881353 -0.8195568732716918 -0.8009749965044463
Ni 8.532726144598788 1.145432105956792 6.728018800224316 0.39260153919108515 -0.010056612905053648 1.2145012016633407
Ni 0.4282104374541049 7.011484852181621 8.424537534082273 -0.9604561547236362 0.4950715701325538 0.5556565308044624
Ni 1.9912493815453227 0.2251969597472855 12.449755840632719 0.8214695169133722 0.5995799716602899 1.7282950307957459
Ni 5.539223670341272 1.1477829300104507 12.79600825455021 0.619030624185734 0.8797011468617559 -0.13440390353558787
Ni 6.577347572436939 7.951537906109363 3.511384403819591 0.2281105864621297 0.31479610087583204 0.10511312499127058
Ni 8.339064337166601 3.7764006354687116 12.201932890787807 0.8485864277348225 -0.011727058628941094 -0.6902224138392112
P 2.0010306533921143 7.399112691335291 12.88368477283382 0.0807462661111319 -1.7652320130314114 0.1925216336139265
Ni -0.13267405634599488 8.108194977261604 12.957706229986925 0.36505911079644227 1.1525401865795117 -1.692170517159047
P 5.533249811569622 0.925072312409329 3.929702020520829 -0.45198785156920224 -0.20554864200121373 0.25695373594606713
Ni 2.8709922748493977 3.150767993988352 8.662281441033596 -0.07194486576941804 0.04001536405067302 1.8125994465717816
P 3.146342913416759 4.844799463808359 3.1571032343400156 -0.02125762382719565 0.0827661247546381 -0.9910787647054995
P -0.030632620256851043 8.787942666565401 3.1850605246346246 0.33658568594709776 0.5316817651564197 -0.2653283331630075
P 0.6338577599928078 4.672396480955533 0.3030175329494591 0.3693497677519962 0.6184714092481542 -0.578847624208945
Ni 3.9037507667520086 4.305501988063346 10.437517748801259 0.40847655855012877 -0.12220761857971209 0.16628841094901037
