# total energy = -381175.09092374565 ev
CRYSTAL
PRIMVEC
9.18288019579426 0.00000000000000 0.00000000000000
0.00000000000000 9.18288019579426 0.00000000000000
0.00000000000000 0.00000000000000 13.44007338629948
PRIMCOORD
 96 1
Ni 4.658456841079777 3.4297966317360915 0.3387748222565733 -1.1077274011401956 -0.4872284199390512 -0.9359471138386783
Ni 5.521509851753745 7.2879562665250015 6.311673749566888 -0.8683448413086724 -0.06506459370981697 -0.8036052350384418
Ni 3.623987002717869 0.7228350190105522 13.250743005982425 0.07421283586798831 2.1380064901942406 -0.3212752808422725
Ni 6.396390412331932 7.646841596770893 0.680473473619904 0.6245924345442275 1.277805361038625 -0.43849187396529643
Ni 7.628953345828797 7.889719599423612 6.545315611153098 1.619325765283179 0.8379029798790472 -0.4618968831527981
Ni 7.800057955584482 5.438230309765107 0.5460838561212458 0.5171372916833417 -0.3241058083125321 0.3601400762282701
Ni 6.46361827945056 0.4986910105811239 2.765698070374886 -0.037294622685400285 -2.361472378795507 0.8150643847179769
Ni 8.679943185959099 8.103956198232185 2.8709742839788723 0.0045089436139470725 0.2348463625240665 -0.6852563280831876
Ni 1.4938342455115015 5.709630338817287 8.378393924107591 1.3840752253421582 0.25546815253947613 -0.6681865170850944
Ni 2.440451467465282 3.0016723835726418 3.959163054161194 0.6611815465221709 -1.727155260764348 0.01976047045637887
Ni 4.968792282860133 3.842282434645747 10.02386231814658 -1.6180692671682586 -0.442080105537187 2.0769453612168616
Ni 6.328235074296904 5.087141244945211 4.560633453176306 0.3365607462464333 -0.09722986558845191 -0.9381724036247713
Ni 3.3921468222583733 5.354252868869075 10.913111331624716 -0.9330579652163414 0.4465939342471406 0.4558074824256085
Ni 8.788411368776366 4.9767630230129765 9.637513747606786 -1.5586014508199286 0.5319103362274582 0.09048251956228932
Ni 2.228528954507535 0.6846140343744169 11.16399680595172 0.021080217709066918 -0.19809707081917496 -0.32685097515783706
Ni 2.5280561461036783 1.9414170171586782 1.6438017012535746 0.10580552307260488 0.2711009739807267 -0.24997499063538883
Ni 8.438460981121162 4.222123097874113 5.313707697213719 -0.18783734076437972 -0.8539659468791809 0.7103978603458218
Ni 6.311430403237337 1.785234587988674 9.815393486492388 -0.9603093447331269 0.1825159285514663 0.8468139092154319
Ni 8.255886953795315 1.5426504375074885 11.268600832713323 0.06350547675281322 -0.005289273423397342 0.2877290694557109
Ni 3.2061475805580892 5.749860537676281 13.601085502629019 -0.5175556101676828 -0.4027807937169322 -0.7300529155725878
Ni 6.980063470920518 6.429715085159892 2.577658392658517 0.18593858107977007 0.6519718549984449 0.6040097252968695
Ni 1.0194099145708206 5.843020858932731 12.719591431615255 -0.5546594569985157 -0.12942804758755128 0.1596549647928928
Ni 2.942718291658753 4.620577459593049 2.2719906089653614 0.3137699736041628 -0.11796349859137747 -1.0318675165870874
Ni 3.773557758028372 3.3365536645563973 7.597203536982648 1.5400013192202382 -0.40150938320367624 1.8161506542581496
P 6.418539519761263 4.1933347679442 2.2086204698861467 -0.031087979654056137 -0.2171088360349874 0.4983553830901482
Ni 4.740983386878861 6.726432315365748 3.220107395281998 1.6326489647546465 0.7596941354777884 -0.04331666050976411
P 3.323201756512349 6.450229639885069 6.22865408309245 0.10606674715379152 -0.9098324190294975 0.4791183892374072
Ni 4.6857116299895 2.7754153943722812 2.5384805518888256 0.26698078116476603 -0.23097145294969254 1.4814287609926682
P 2.2774461581874865 3.785412856573673 13.206122472023113 -0.271061636102359 -0.35330351292241086 0.08861821266004093
P 6.497402096296541 7.839525975373562 4.239429154201359 0.436135715028294 0.08736839941333986 0.6007009726386107
P 5.781192525466031 0.8552062394059905 0.6207755683968209 -0.5248022644277671 -1.1338886329165958 -0.46823156712157427
Ni 5.868806386984787 0.5981287488519559 5.573423429295301 -1.1317934409504635 -0.6337525037769408 0.14649040238647676
Ni 0.31414633712992984 0.9715211934912362 2.239949702811788 -0.5453068121390221 2.12455396423376 0.29983176625651586
Ni 4.935339049707126 2.854599371720173 5.4662390131524194 0.19327830927429296 0.7056045527222363 -0.016195378812939847
Ni 8.226373176316928 0.33168931177047406 0.34678872194711086 -0.05516121855317596 0.026822005288850582 -0.8786081709078933
Ni 4.23849617355674 9.040463068909144 7.564288420618763 0.05323983316074702 0.848385624577926 -0.9220700987462699
Ni 8.5808782726309 6.468246451152211 4.570337002853161 -1.944409107017632 0.9772377450573493 -0.6734693627505886
Ni 7.9346147015057 6.47941283367048 11.917837820499228 0.30147804361068725 0.7463130861851922 0.30356243694354174
Ni 3.9197675791269613 5.042870578727632 4.495610395632217 -0.9315178744227312 -0.5098703257082832 1.0290629572587566
Ni 6.694319782745363 -0.48333264317832336 11.942190819215059 0.5802126228772717 0.7595342128611564 0.04128934566709018
Ni 7.195576490099188 0.44818516859882007 8.27634365637422 1.020733611457455 -1.7966547503170671 0.07753444404205358
Ni 8.628445592897869 2.6178371673874934 9.200576689161444 -0.7985393904797602 0.5289918770290825 -0.8021309644857604
Ni 5.081714162652204 6.736671226967616 12.095286882295927 -0.5752329102744932 1.5208836245541806 0.3876691348864743
Ni 2.944251832678943 1.891315221912233 6.088662908573936 -0.37746776887344025 -2.315935570705973 -0.2661246038120578
Ni 0.13780748556880612 8.818457753315657 11.0633313165767 0.5357963015454256 -0.6342623535338238 0.8765350904289484
Ni 6.72142764556932 2.53753287863563 4.035086190693102 1.1928311728890746 1.2506151737770785 -0.35695190830827556
Ni 0.6114475985267073 1.9462747608693398 5.448323213569243 0.29885808948933695 -0.10527099072537353 0.30685242054872314
Ni 0.8114103281030447 5.8787881779365625 6.143537965031727 -0.09008631256513518 2.241541472065114 1.1159500461603038
Ni 1.97565079514232 0.33588680638322155 3.8906321363194243 -0.33330264432045176 1.306400913288131 -0.32521986731231733
Ni 0.8987955359008268 6.680527096444014 10.470018988473786 0.6101947710616588 -0.18429950281445032 0.8491309873843826
Ni 3.9836436949140346 7.923283027140943 0.6230538410142407 1.9338256750748308 -2.1656458491780635 1.0742266982795887
Ni 4.176034221345171 5.620014609379959 8.478307335581093 -0.9122533697661643 0.5204535005407682 0.4411372820079435
Ni 0.6008312705420271 3.67267463438881 11.342884825100898 0.9082591610051068 0.11924416507601399 0.4078628362255298
Ni 2.14007945087598 8.313968672074964 6.71811446233528 -0.734389852385045 -0.6453126978107144 0.1874701872329481
Ni 8.00303634307118 0.5999414494351025 4.667925309019404 0.8008011899307435 -0.6811245653030011 -0.3434610729106924
Ni 7.046143477994092 5.97716437523773 7.967208417056971 1.3376159054383543 0.3067254080525556 -1.0956121059339003
P 0.528706173327189 8.539656322692979 5.270941186799176 -1.364359749191102 0.438425025283103 0.977631123841026
Ni 0.11588244042027 0.5633495077749053 7.479105267531409 0.5993290319917485 -1.3445116041169232 -1.2052058924043438
P 3.9858935006023377 1.1408535073373602 4.1922006822196884 0.6374201824365151 2.1970333623504095 2.4901501784805955
Ni 1.9458890798942023 8.591098818472046 1.4548474086533072 -1.485083584136436 -0.0037175580609032748 -0.22637997692426817
P 7.164189405027276 3.7714273297847547 10.749438426944717 0.37302413127978984 -0.38918505731036845 -0.5421731516060468
P 0.830707232892429 1.0214576968911941 9.451396046749853 0.7127252229274178 -0.6513092817137816 0.7536186187076698
P 5.642209631211091 1.6735248484041783 7.700853462474804 -1.9726665592014285 1.1378792421332273 -0.928518425474775
Ni 2.7800894804757346 7.728532500457179 12.151654156812285 -1.0320053277165324 -0.388972169968614 -1.3203306359953455
Ni 7.520916758388469 2.123972678723806 6.5808919262454335 0.15260422859369846 1.0276439654240432 -0.15406744340278627
Ni 5.260440563107036 5.614559978445869 1.0814935321115406 0.405105842305683 -0.016585158052190793 0.04478938840054867
Ni 0.744025433730255 6.092730924573601 1.8789624112513972 1.7879299688495593 1.7298649463860274 -1.358049490702358
Ni 3.1246495173593716 1.2881560911988397 8.994769056235699 -0.09608572468167967 1.4334465766864346 0.49260228265645495
Ni 4.144656319153619 0.2691538965160215 2.4197642745893306 -0.11454136028370596 -0.8809401614751796 -1.890287128362248
Ni 5.760907542749866 7.820967374165155 8.66673728571278 -0.18487003060593968 -0.106655529777726 0.06235465097782165
Ni 7.22082022820998 2.1603185191903433 1.5549766178152786 0.7043943344642192 2.4567818874327947 -0.6147188841842575
Ni 0.035757217835435076 7.4039911427592555 8.312094446193402 -0.39219504778128583 0.5914719978411749 -0.4655928439471465
Ni 2.354104843436263 8.221056288588246 9.216006683031054 0.1232921098931425 -0.5815719651186436 0.0613830310931717
Ni 1.3310585082427167 2.470139719670516 7.742383038904799 0.06473806360833367 0.979426525178552 -0.6582839132594018
Ni 3.2401517865327207 2.7576648866355917 11.476371765460126 0.20996168346724484 0.46254968624544857 0.26371727992214583
Ni 0.6184275058886617 3.38110900006515 1.3749728787023119 0.1663899695238812 0.11927193299015589 -0.6313981446121513
Ni 5.278815506708234 5.05597454900195 6.630095635792629 -0.2667789495666051 -1.1049768349782518 -1.3035367043664583
Ni 8.52935313092859 4.756484088927248 2.7872558003090053 -2.3118619148572312 -1.8668723489827332 1.375562816995773
Ni 7.9479666095497485 3.197772793669387 12.82922216708615 0.9759082276126482 0.8396413027263927 1.0941386067121672
Ni 6.144320346438435 4.769569693440846 12.34773160970813 -0.34338214004364087 -0.9009579993580031 -0.0171338314668092
Ni 2.098361625398597 3.8447801781037807 9.367865812127373 1.1298656278001316 -0.6123712098876872 1.5446545017215334
Ni 1.6128811065039719 7.244126378564723 3.9376861335742466 -0.2698701868974191 -0.46708768332511813 1.1062215060186302
Ni 6.310576395363819 3.8381685042442792 8.37449670968263 1.5162049881315889 -0.9543099326165823 -1.4704519502661901
Ni 6.314249547507986 6.016604846385729 10.209469450855476 -0.5226713341276933 -1.5984931448085438 -0.1868837186018588
Ni 3.8109228982149164 8.200560099623791 4.892859045159828 0.2316507384049043 0.21412789902979254 0.06993014933223439
Ni 1.1119182513216805 1.8090549796436006 12.881799666877766 -0.08727712525111421 0.11096341312446051 0.7114841514314649
Ni 7.656805021961947 7.781480988615354 9.945022698812206 0.5028013346766438 0.394564833565043 -0.5557820006387331
Ni 6.067340260377043 2.0550918931403035 12.142851447698789 -1.5414539925063646 -0.5734925305446188 0.6445112849553416
P 9.227876474184932 7.621809064908391 0.3661857201324237 -0.3186877226207544 -0.9594475109534638 -0.17483732896028598
Ni 2.2238089540022794 4.2277154720136085 6.196451558244533 0.7955006036534364 -0.6053616113390736 -0.2514304921349928
P 8.947100724284764 4.378112686556549 7.521333661156832 -0.03850946892910787 -0.4530294054598391 -0.13722028993846044
Ni 1.3754669176657024 4.949186833290639 4.003851541435172 -0.36095871547482355 0.14520639346773057 0.3182781458871615
P 0.1654442823015228 2.980515027222237 3.664113435028791 0.2162719419559888 -1.0670669473063557 -0.9701165606315356
P 4.216484809332816 7.191526839860243 9.963663945943855 -0.6935663906107796 0.6155845746186625 1.7459088872227673
P 2.8999995322220844 6.873073731841277 2.4098587015445463 0.0374512028679226 -0.5666315417587273 -2.6383889310167463
Ni 4.546480797964829 0.0825513395760576 11.158527482409054 -0.006526745374924244 -0.3282234300253315 -1.2089617599023503
