# total energy = -381169.82407577103 ev
CRYSTAL
PRIMVEC
9.20205235501034 0.00000000000000 0.00000000000000

0.00000000000000 9.20205235501034 0.00000000000000

0.00000000000000 0.00000000000000 13.46813377926309

PRIMCOORD
 96 1
Ni 2.109947808468301 0.7158874734791344 2.504466482980954 -0.4390315485188504 -0.9331980903386315 0.9093814475350082
Ni 2.4300504050175697 4.80903862098633 10.239822197649893 -1.2995005866238718 -0.42017867747840537 1.0277064432308622
Ni 8.384551313011789 1.2261458828954288 0.734189435598287 2.1965901041654043 1.4321129454766754 0.18535185533836465
Ni 7.141620886446323 5.429174137689939 3.036215365690561 0.8652870283189549 -0.9105117044847092 -1.5189588967276422
Ni 8.769970077855966 5.896086279037317 12.069683454855943 1.1460538075242197 0.6101096675470202 0.6319306200768536
Ni -0.07540805921756714 3.812437936473052 10.718802830786336 0.7914912253837273 -0.9040312389666881 -0.03494437728566885
Ni 5.209346306695704 2.4752876948651004 2.461490137420555 1.093786622689387 -1.0550272425330023 -0.7051273559755018
Ni 2.5386990383027195 9.471948649055902 7.429278886464994 0.6849907331266267 -1.7070649177723762 1.6035507618371092
Ni 6.667374709295756 2.844547655605888 10.747126748229519 -0.016221861175501093 -0.009193493573809974 1.0447004066856975
Ni 7.399057505806478 0.7797064678403183 12.162465909305633 -1.347880520589156 0.12714002288432297 -0.15833701731241764
Ni 0.33354127394823796 1.1464929168823639 11.347414358002263 1.1740022131080297 0.6690982302660864 0.24514568756754557
Ni 2.4516384200668595 0.7235721074806951 5.104489839225479 -0.45982483111511774 -1.3873107015603205 -0.8368719675113715
Ni 0.3178315300044413 9.012186502462699 4.310678465388762 -0.62505317623073 0.15479198027363664 -0.19376964708841468
Ni 2.5856479099060765 7.488299010473149 9.018855229873706 -1.394884143032204 0.049521760879211486 -0.565003262126685
Ni 2.3943924517711945 2.4033828570155062 12.620974736355052 -0.2087730624757824 0.34325332777526046 -1.66895114161979
Ni 5.338046212270879 7.57020647933663 13.087807740051355 -0.9377402011833591 -0.23721049188086887 -0.027767142810939276
Ni 6.957386594331309 1.1054517629523424 6.494778252915113 0.13035750138035615 0.7043722229770321 0.22852196296793545
Ni 2.751606925854045 7.26855399795097 3.170627905427117 -0.9544701123435304 0.31862267371077385 1.5204622207460459
Ni 4.103029550812998 3.1035210177253063 10.406355421670785 0.28385261721944016 -0.1022103495221788 1.0537224076786496
Ni 8.17690699946225 7.633857076137966 8.78823983279154 -1.3364355119770082 0.20746308541510722 0.504565368555602
Ni 2.0225651183966673 2.266511528864129 6.7941081362622215 0.25775797701491737 1.8111670850006292 0.12657592285073685
Ni 3.3593380758541413 0.2551269041950345 12.250654699171946 0.6285128526445563 -0.6882755745254857 -0.053857669250404014
Ni 6.713449385916298 2.840204286849169 13.466181413539294 1.1452207700999633 0.24296564919709124 -1.0085280705301987
Ni 7.714660298707365 4.305244653416637 7.169088092806351 -0.9162768891032607 -1.3440665461597048 2.097108466428298
P 2.8742150727068725 7.141804927495337 13.12617845836019 0.4832524660104387 -0.3880357741972737 0.41151637381771705
Ni 6.944476114743008 2.2731094004712644 4.214623761087609 -1.9597966452172957 -0.028151008512919257 1.8383505873939565
P 9.482623029898686 3.19972847609714 12.720544624692364 -0.5338682312847773 -1.2944331994032932 0.8868680969238404
Ni 1.7342740171693911 4.698310323847328 13.171336610556644 -0.7238208186199471 1.3721969858473335 0.6082613014843719
P 4.937609697827196 1.855639886941377 12.32498519804754 0.686007090206283 -0.8789544985037184 -0.9907656043404548
P 5.940688627265751 9.05320925228782 8.007358262853272 0.06163397076171322 -0.7781970793779823 -0.22023452614816263
P 5.177847681157035 5.316108519228465 10.628795715355766 0.11940151658948468 0.04376197557729883 0.4443863850728605
Ni 7.7616827867303275 7.87199699150905 6.1262903443749375 0.45387709817211513 -0.2629842584108632 1.1490900232473822
Ni 3.82218291001832 4.835135641736452 12.517014548793522 1.16807222077684 2.4749896686900734 -3.0060201734157395
Ni 4.504404674606651 3.292163092964196 0.2580439548218993 -1.3917736224276807 -0.6856998433785093 1.397205077855897
Ni 7.5234784569920885 3.081095615903005 2.3025256015403457 -0.0036324545462647117 0.0014056220982749986 -1.4044661302936843
Ni 6.682714530731035 5.27230674956324 12.273712281997609 -1.9126523834313254 -0.3992411559947899 0.08291730562052171
Ni 5.320571514667043 1.722154914091849 8.904995474285737 -0.432650584693171 0.0638623458715997 -1.0317160786108877
Ni 3.58640792212706 1.3145960110513413 0.8540737749257138 0.5956626388837548 -0.14124818015093094 1.0723564778400694
Ni 1.9031040734819717 2.3309166939664205 9.375370347970305 -0.3759338487274171 0.6138763336783041 -0.1782062454325189
Ni 8.93206423177465 4.515603572439125 1.1585761319553487 0.5779986459450884 0.24890644016155847 -0.21823703610215964
Ni 3.3574884633115554 3.7281931462871 2.5580831617900714 -0.4424562579296832 0.28948976090055945 0.5752123414492029
Ni 6.437001326193044 6.302034822898956 7.52323184198641 -0.006155478078434561 -0.01951055922910188 1.8289346933966955
Ni 8.981608082169098 2.22415448143366 7.227364690976493 0.3241425750877385 1.3248053839372476 -0.04298807352575177
Ni 1.603899338048192 8.070255211558896 11.578393236156229 -0.2831033977582415 0.01190112231296015 -0.27164707629218376
Ni 4.153622435186823 7.599975119014571 7.097127122436808 0.15657915408104647 -0.46131992760340546 0.17554026856458155
Ni 0.45993514517927414 0.2992995165740218 8.957386439708426 1.4202982122299346 0.4515533351349449 2.1351170844615877
Ni 6.201023893147869 7.601613084350792 1.9116260942565444 0.2819541146451467 -0.07238580996157856 -0.28969030694713976
Ni 5.23686044352323 0.22076091911273418 10.828056038917493 -0.1453909986747109 1.5841605302359556 0.7501221755186372
Ni 0.4619973251334709 6.620508656164455 3.2446078061043395 -1.1340727239029438 -0.2131269685691039 -1.304194135444799
Ni -0.015157620796756026 4.1814034315354185 3.886944194550453 -1.483062182831033 -0.08883624220811798 -1.6658946141816535
Ni 3.7534619823166597 7.1250203838253015 11.098321239599139 -0.34172866360061793 -0.8592562487438427 1.217227342345252
Ni 5.841683744948912 4.687893600473161 1.2662778740433236 1.1112966065486927 1.2156324870543065 0.5326824385067922
Ni 1.4885608126313998 0.08518063892018668 0.2900404113981501 0.08266148085597377 0.780479704764572 -0.30357246424587075
Ni 7.859730655592297 5.456393808839043 9.78905689773772 -2.264982219586557 -0.17716289176966907 -0.4848177536150296
Ni 1.7924401907101237 2.9649749160279053 4.455406505922528 1.137764570932234 -0.4819162636975184 0.6369383577040901
Ni 6.111653559746889 8.992310069169237 4.760230934787937 -0.8741881874633266 0.09001483589725143 -1.6252493298564654
P 3.4886085086812595 6.877807244737849 5.18436917572883 0.6436437947487238 -0.9094511244306788 -0.13640396468475216
Ni 4.197921115684385 2.1629700346891054 4.5566870558104196 0.49616480319673256 1.5900604406601582 1.1731624908155536
P 8.772077347867171 8.251093946319612 11.078550629908857 -0.3594718465166519 0.31939914686548215 -0.7312855024281082
Ni 3.3532003068695397 4.134215306568344 6.269093315536021 1.6578257211305898 -0.31429627842127805 -2.6201747220015648
P 8.035885545655617 2.755241736572063 8.999016524995291 -0.6222547875499863 0.9491283884156426 1.15420394743518
P 4.093533032683899 0.5686785596046657 3.2284600444638905 0.8451714885160025 -0.8219132893190102 -0.6535541118839002
P 5.815283056467918 3.2964328453013096 6.08558966638559 0.28532971598559886 -0.23669035771134078 -0.3533824457894624
Ni 0.04519772102199282 8.506966216763152 1.984354515800474 0.11228778836283887 1.0351168767623207 0.9595153880769217
Ni 3.9054338785395992 5.534178758204621 8.78036103548327 2.0018226119400944 0.9557137549426444 -0.5836249909929304
Ni 1.462160124150406 2.7399479253990373 1.320434713331296 -0.117374715967443 0.22648307816103577 -0.1582727397333855
Ni 5.015367041035422 7.646252240789029 9.39702645820773 1.5261358740920554 -0.42165449069298355 -2.0755471953177542
Ni 0.6998979871408371 4.378262939612763 8.37126723009399 -0.49224618486861677 -0.547471938111141 0.9845597326400591
Ni 4.589210789992094 0.602514506465807 6.287584839935657 0.030103504253599773 0.4470163664965398 1.0759303112342566
Ni 5.2373573543555665 4.395866465950909 4.23032706359469 0.4455022438448586 -1.0934395237626136 0.7186896680409688
Ni 7.415593594060345 0.6621750933245296 9.77284196111438 0.07718477401211868 0.08422702557088074 -1.1092808616702445
Ni 7.6148732419322185 8.223855871065606 13.665711357237825 1.1864718063299502 -0.9215931591098515 -1.1371670465575512
Ni 2.194109780182198 5.777361398318676 7.172683334698831 0.10562708851321163 2.1132125710790124 0.8429505696052837
Ni 0.48865291046734854 4.765328871845611 6.070518544881871 0.09898952859203597 -0.6321589340375757 -0.3034943027097677
Ni 5.825865416786197 6.659902642705806 5.462715618872659 -2.0721870205962696 0.5443699021470496 -1.3080924420579407
Ni 0.6729019258662845 6.337766392564937 10.08765889873598 0.9448572718441146 0.7568666933313223 -0.8360307025569987
Ni 3.672539133065402 8.179336341309229 1.4721609147538024 1.320481816861229 1.5633564490064107 -1.6074542106565735
Ni 3.0879603470312107 0.38907566048807685 9.8186875066289 0.025610244368936542 0.03218506937297683 0.14837784921717673
Ni 7.3491455733140025 0.29768087554794764 2.6956336014123092 0.22711068444270563 0.6696528172179758 1.5416059447031967
Ni 6.728973248400591 7.767673322875718 11.119937781011025 0.7533854196509413 -1.7866760418378005 0.22143060333879286
Ni 9.460906186115087 1.8557963218330387 3.093778804795774 -1.5621254048127873 -0.1557610290551253 -0.7234382384695476
Ni 0.3160803794230774 0.13120930527847569 6.821003895165062 0.17254621893326413 -1.1069329302633582 -2.98587120927169
Ni 6.165954871258337 0.6950291811891836 0.8814627638399103 -2.5658809936550067 0.23844513561891842 -1.0075860183319034
Ni 1.3065902254192516 7.296445418928974 5.484951458414476 0.19656957843105502 0.6457955509844039 -0.1803585158888313
Ni 3.773439638187081 5.787005149286986 1.3345221354280383 -1.238471596436009 0.06705462755665226 -1.1575939469533352
Ni 1.940933711106707 5.386743473839866 4.302260427806882 2.6061961483342855 -1.627655625305113 1.1770893366737858
Ni 5.990968641856254 4.169956078286775 8.862072500629552 -0.45846805997690726 0.033033533416201175 -0.45610855860579513
Ni 7.605045449914895 7.361614354384671 3.9365874271113683 0.1053164992513283 1.262967267584528 -0.3617981806569834
P 1.7452796719004016 5.076625104199581 2.1194259224924994 -0.6151215189393148 0.03754556235394179 -0.5156388527609442
Ni 7.5719548693022585 5.2382131452334795 5.254659973578575 -0.18944813689492535 0.49441953837085173 -0.7656976613593909
P 3.465290507771243 3.5520750644335823 8.224881899913857 -0.6263366709288439 -1.6882958646949893 1.6702220379124137
Ni 4.97092112769865 6.354606148549677 3.197065402117914 -1.191391869339387 0.6036196889473023 1.1279774096384834
P 8.73935484935256 1.7717355726960995 5.059466036994804 1.3873631520648106 -0.6708386099959608 1.8341177802595316
P 0.45674387338937916 7.193124774012766 7.399177132488337 0.5263444121039065 -0.38733412014455876 0.7751408090501618
P 7.663634917868358 6.170785948794943 0.8255106041188107 -1.0965644425448404 0.23473709063971185 -0.174551422288751
Ni 0.736484427479486 7.05437622716145 0.4851156415053081 0.6161558737411001 -1.891159246554556 -0.5741993268036563
