# total energy = -340887.6786446114 ev
CRYSTAL
PRIMVEC
9.12089555697371 0.00000000000000 0.00000000000000
0.00000000000000 9.12089555697371 0.00000000000000
0.00000000000000 0.00000000000000 13.34935260188179
PRIMCOORD
 96 1
Ni 6.7039860447523045 2.297471543125305 11.815618752491993 -1.0307534575873023 -1.2946615133640156 -0.18528372110459057
Ni 4.618301700182604 0.342866327177574 6.038619438444307 -0.8090099509937808 0.37227928269396526 0.3793577868073015
Ni 2.355380110034415 1.60660929701875 4.8206250573419425 0.1373079645562603 0.029935611217167802 0.3418430776912951
Ni 3.481473257978881 4.205763586889324 4.647737566931032 0.11456604287405432 0.5290121887440566 -0.6941842267004368
Ni 4.874717441482936 4.532902753581565 2.458523759253452 -0.31662672632666766 0.5164950301136524 0.12434214842421167
Ni 7.190594952165743 6.310565328882477 2.900681069299077 0.10804495392608489 -1.316241039307004 -1.6118813931899918
Ni 4.855435867936572 4.789053988906095 11.329194999261617 1.4630111777174286 -0.6117983681033529 -0.8233222538513949
Ni 5.58318301632387 7.742354417687823 12.552276103905518 1.5675458044974102 1.3178423223558529 -0.06852658411648843
Ni 1.896808836055944 6.751396460690808 0.4609290255213916 0.003808575112812796 -1.0830574091973413 -1.0306439285926314
Ni 2.814115560135797 1.7529996732813444 0.2401522721468213 0.10632951389687494 -0.6381699161183461 0.3464258119659711
Ni 0.41751629817577973 8.982914806884349 4.864090685882714 1.1830211287771883 1.46716453776417 0.42302257468510374
Ni 8.750523504903374 2.779903080300221 1.4831935449784517 0.7646468514973735 -1.714106655110506 1.1241330961917284
Ni 6.72521948998217 0.5648287969953927 5.045521719312015 0.8778196135683268 0.6890350783993294 -0.619362553603856
Ni 0.6284543413401033 7.3160802354442955 2.4359896742943015 -0.10777447387351761 0.8211221608762825 0.5217341670254048
Ni 7.798639465159253 3.8273285026830126 3.9466690385168235 0.6432547868404211 0.5385545810168532 -0.27496894157656515
Ni 7.964557679152578 3.855785697320975 12.993805896325792 -0.003790320280367665 0.9113352288272693 -0.5908690741498532
Ni 8.138493160481405 9.083299385148905 6.897650935607214 0.24632916635268542 -0.6070554541017287 0.9193074483994684
Ni 7.2124851018872524 0.7597687890715796 0.48698833667527686 -0.8720071206516078 -0.3746431549404516 -0.1405177297428096
Ni 1.8850428805806327 6.401701318889695 9.249152840782635 0.7965365011171185 0.3187298887125995 -0.35972972816372883
Ni 9.015822998632352 5.165245332765951 1.3523698014365657 0.8779545964842944 -0.2761025409603761 0.7608033093815671
Ni 6.671470051520147 1.8608177815554956 7.199813441467214 -0.9248911131348329 0.9240585899312086 -0.1039353026330855
Ni 3.4718689547885684 4.083580067860432 -0.3641672670357461 1.1853811443689326 0.2611124953094471 2.549319232641584
Ni 6.069563901344376 5.632435853197268 4.908877020123351 -0.7873784887669343 0.1475160154375137 -0.395600473918409
Ni 5.505016940026647 2.6768187169033464 9.617301378798981 0.6958870683241565 -0.006665327835317553 -0.7591269501204088
P 0.4835461106315695 5.6568160074495974 12.431504499533665 -1.3951407391277004 -0.02011245447915891 1.389678944682181
P 4.150956124524095 6.271381960880975 12.952943371422737 -2.6609560176839846 -1.1051565550892257 -1.4490171774311817
P 2.4710969139997436 8.567676908458749 1.420718145583692 -1.078456162979904 1.4315575871938377 1.0221428331001556
P 6.243216634905966 7.849388128930286 6.3059410347538085 0.8482208168652875 0.008032383386173262 -0.6697181232382724
P 4.998524479949506 0.9146434225304023 12.494313723711675 -0.2008232115010864 0.768622805425986 0.8302395497965186
P 4.084437432057858 6.18458751723519 8.075637419735234 -0.9692999782675112 -0.2512350882947351 0.7965023054450735
P 4.941455035446387 1.1259563345087067 3.8662792878437235 -0.9476921701897485 -1.2737808132602642 -0.12369525886883215
P 0.0515047860259965 5.634342120402181 3.8186226077208545 0.3538624707496745 0.014673028631142471 -0.8844646296886702
Ni 1.151266820124202 0.8777539598018004 2.7736215194197196 -0.23674949308405033 0.1843712365926502 -1.4162237850502448
Ni 1.7529996732813444 6.758182407104475 4.707902643440601 0.6729512854635895 -0.014872546236458256 -0.034569253334437236
Ni 5.854575268392001 5.1493567324264236 9.00759595069535 -0.5443688737057851 0.7010819822615345 0.6093157108908152
Ni 8.99673296389605 2.5035125773790123 10.382792617843592 -0.564363571660157 0.026193884786548435 0.07107120491521307
Ni 2.591693397173826 5.362065141449473 6.58143130526772 -1.0408833469324525 0.12523612099339076 1.6191545298126373
Ni 0.6238847725857382 8.903946091764004 9.40333793452523 -1.215125465510901 0.9798798106658867 -1.8169677508428064
Ni 1.5876834384053617 1.2532931596178707 11.512722014526753 0.29098228628568595 -1.0120075444383667 -0.4976133627178011
Ni 4.005486958728948 6.964998717494153 1.6968359337229533 1.287024565644048 1.022339265381678 -0.5926585619501084
Ni 5.699319381492195 7.637838073663333 8.53919417531278 -0.2814265242764508 0.051070593423570114 -0.3289140283344529
Ni 5.6291979352176265 3.0595771056796557 4.326578971560622 -1.5186439365903845 1.0266337789919737 1.8262484048137837
Ni 0.9362873080675448 7.474035907476421 7.163636320694132 -0.5519734255259204 0.2194511110149188 -0.9392203852733114
Ni 4.869837762274182 4.537381113378758 6.781257361179662 0.0850495214721761 -0.32219573577401284 -0.11585853643323273
Ni 8.226920244460585 6.909944990944558 9.741663879814734 0.05056588587300969 0.3631456958238133 -0.6240013379274479
Ni 4.647433841103647 0.1083106366428852 10.392311184614162 -0.22839212225829053 0.5403396979417339 -0.43487176071420586
Ni 8.090161534075456 7.339484453854876 4.8388467828059545 -0.9367485266940513 -1.2647811808648153 1.4200387879209608
Ni 7.196487050799115 5.967282176770623 7.0234819008334535 0.31771096052978187 -0.13888405079412858 0.9050601944518349
Ni 2.204009724710177 5.294187435521359 2.486036941184674 0.5660913529845413 0.36852007276184917 0.32689108436715314
Ni 2.4761863738099947 5.436254507213956 11.47860165573792 -1.0570987803500504 1.0665838370223504 -0.3087730346102037
Ni 1.140403833324903 3.394660572541661 3.511186399957115 -0.21059494617586955 -0.12309464917035574 0.325249177888356
Ni 3.5963965440168058 2.500137845963613 2.778133626531066 -0.5372253206824683 -0.15536225095480988 -0.42127551008700986
Ni 1.1342563496114457 3.506966161508722 8.366373267440604 -0.2938045862258295 0.4471333516903783 -1.3611417564744366
Ni 3.4802328161613287 2.346341302378575 6.873354693595482 -0.20968117611234857 1.2813671102479545 -0.4231146201782777
Ni 4.093074920302137 7.151174440875591 5.9512886861303445 0.48014245962654734 -0.9378744127683784 -0.49088144331060624
Ni 0.7559945624237628 7.671366486320111 11.655386504888831 0.10758498357053084 -0.5477732714016437 -0.1829062220113495
P 9.191582659104636 5.812153982410859 8.156921930278202 -0.2171628292013744 -1.8474232391191863 -0.488285657558972
P 8.689714493156163 1.7846309396289255 8.32123942707314 -0.2601547593818681 -1.2885091206093744 -0.40057118766012306
P 2.170134718016141 3.582003770574913 10.295834910164468 -1.088635417505751 -0.5229585263508091 0.93143559912157
P 4.08254028574866 6.227629024125108 3.661740465114655 -0.856017687201887 -0.9785281817339986 1.952373613280347
P 7.026546521794464 4.04787176112722 10.657602469536993 -0.1392144375503538 -0.31775312662162697 -1.171583576364208
P 6.670822467924219 8.005273357634586 10.576892575424216 -1.3338772643315286 -0.4283481006630752 1.1368577428472486
P 2.4129512038019847 8.63478845914661 5.83538946425067 -0.25459783411938086 0.4365578901673771 -0.3689944412951065
P 6.79803160049334 4.075827306500732 1.677879976153698 1.340352844753543 -0.8039911576229508 0.21119272766086855
Ni 5.142297159141236 2.757100841006982 0.5805650783764428 1.0413754560775226 -0.22253514925688125 0.008420362853211304
Ni 1.3524190542734391 1.0899287964253892 7.090375462113671 -0.01850500078272297 -0.41102040801790507 0.7378718973963744
Ni 6.88643132178537 0.5386253756891741 9.270004120481945 0.39776277167705043 1.1086396285418196 -0.7615941807139788
Ni 2.6977238098873877 1.6599482951734947 9.267093642658555 -0.35403807709559026 -1.1936030180580928 -0.48582511183362137
Ni 6.615668411521732 1.946390025175163 2.6682551079143773 0.6766009664010347 -0.5032469068544947 -1.3957691167403188
Ni 3.9866158254898627 6.884278790396087 10.589453873006075 0.8045688845032918 1.1526558862217697 -0.7864685753581552
Ni 7.986639367684151 7.003954063102722 0.5746665951160678 -0.5003515875845705 1.7135831785068683 -0.6684973634572939
Ni 7.746860140172167 3.832399720701829 8.55442515907109 0.44258995529406997 0.038252615723295406 -0.8844103794119672
Ni 3.232928849682576 8.615178533354424 12.691630621211791 0.1890807262531776 -0.30388485327996695 -0.8116998391211181
Ni 0.2490816290540537 4.884549767066179 10.379602128521682 -0.22944061812746291 -0.02178084332051733 -0.02453783724036419
Ni 8.918430074163068 2.446981265723214 6.010773343819403 -1.019522107647857 0.3863483591925217 -0.5565469038292157
Ni 3.8563511928554473 2.431229478819445 11.19253753081895 0.142551986564019 -0.0009639065751660819 1.3577545851697583
Ni 1.4109387211956077 3.4862708491261785 12.373729097702027 -2.2598017038268825 -0.45913988923295124 0.49185743407063043
Ni 2.9027159411336063 8.518378467106766 8.04698959837678 1.6139624440887366 -0.1789500655770789 0.5327004362289214
Ni 5.574025637023706 7.837786349577887 3.71146758856535 -0.6448691825153926 0.8308720411741949 0.27480516230519125
Ni 3.119255126357921 8.880915830077832 3.5602586430953087 0.7431364882294234 -1.0836726741838367 0.37941820773159174
Ni 3.5708671569040953 3.937518043843661 8.822039536133117 0.9400817048323423 1.4346449678699098 -0.5258466465318815
Ni 7.272546200185643 5.722504698405561 11.80942475221038 0.8178172648727658 2.548498793622817 -1.1138782512329397
Ni 0.7550770003146028 0.15494942480370452 0.15704996708739768 -0.44061329118367343 -0.5232961121958858 0.923061773235578
Ni 4.520024048828744 0.49127424557283406 1.580870129304542 0.6623575691081431 -0.5449445437035969 -0.24402468658922488
Ni 5.95892743629358 5.466043352626643 0.2672312994419002 0.111150332324286 -0.34805717692180704 1.3767465528912288
Ni 8.284646393455349 0.321288112089596 11.19899877334508 -0.32263205198048306 -0.645687821761946 1.0347047289255664
Ni 9.209185987839017 4.93999569213162 5.948818747570102 -0.015050209464903114 0.2922434123862967 0.44658030740038573
Ni 7.805762884714461 8.848436320428542 2.986623621284867 0.7930559987676858 0.11870243363993105 -0.8969056836655005
P 8.548751049845361 1.6788285493082966 3.870845208239802 0.10209002189423062 0.03869304569482369 -0.4879061627323661
P 2.118784075127767 3.4351755913178885 1.3337431082027047 -0.9824162039344952 0.3171057228456151 0.8306146737477501
P 4.652313520312399 1.2227107962777786 8.190882673391979 0.9982786248880483 -1.1480111883609068 1.0721029670683664
P 8.746072507793334 1.8460875349720633 12.700681286032063 0.9484115648542761 0.13662636510820342 -0.23420024429963535
P 6.291119579213203 8.202868442454077 1.5870914922733093 0.5162268640539303 -1.069610796774132 -0.2942177625038481
P 1.82660530171992 3.4638060829744792 5.870030626184959 -0.5749362049696808 -0.3546263454988925 0.11435572663546113
P 6.742895785882289 3.7681703730606335 6.041903872992105 1.648732243469754 0.5597258157778295 0.3057918404946927
P 2.340823160469611 8.509084274370842 10.379082237465797 2.281699275230922 -0.2934011801398237 0.6250755448282332
