# total energy = -340865.0672379754 ev
CRYSTAL
PRIMVEC
9.31897725066679 0.00000000000000 0.00000000000000

0.00000000000000 9.31897725066679 0.00000000000000

0.00000000000000 0.00000000000000 13.63926518300991

PRIMCOORD
 96 1
Ni 0.22824412035549166 1.1148385769564364 4.557069376516423 0.7223455196260012 0.2742361771755986 -0.12599588197755074
Ni 1.1691868527445677 8.092758335922776 13.377200918074218 4.85969582120254 -1.3624969849507502 0.35171225717589105
Ni 6.063336685852693 0.4438722092017288 5.323514258402625 0.42246824484353046 0.3057710145590863 1.0033120735468979
Ni 0.09848947570679413 0.6544773692671356 8.69623201036549 -0.7727250005198175 0.27023554065663785 3.4285452396391345
Ni 8.816982659118013 7.030133988945917 11.653551688358217 0.22197053500266287 -0.12580150657855757 -0.5393534227690647
Ni 1.151546028659017 7.225497029690496 9.494060412205686 -0.23273394416675403 -0.7619068268583911 0.13818933871994912
Ni 8.63471278152198 4.236994189756369 1.4657167113828287 -0.04437492657094938 0.32710474303985604 -0.622097950257148
Ni 5.821369439481152 6.136509295847276 9.18697308415035 3.361310891971508 0.27793650884532134 -0.009517195461815868
Ni 4.886694651244184 6.664345490791643 11.6471281172847 -0.7661069809826677 -1.1161451928902455 0.15100037444168832
Ni 7.858246271415176 7.972180088250856 9.498998538292815 -0.15503649218427493 -0.4618012381151982 -0.4471374654554364
Ni 6.08033450050248 4.606081605885438 13.337605515297092 0.4250537461825195 0.806119002599231 -1.648268159349142
Ni 7.6069227718043875 2.4759124919015205 5.518460740860557 0.08509682977034376 0.144513481165764 0.1928517632598356
Ni 2.8915947946802216 8.105786266230012 5.674807087320199 2.9597498295942897 0.1635681838043699 -1.679377479159437
Ni -0.23872517415845998 7.486624093452367 7.555388827169894 0.09838789045229507 -0.3024784598507436 -0.044919743330825865
Ni 1.4720442969898486 0.11473804457925396 7.13561362954789 1.7621729144901133 -0.3996988123574987 -1.5531224299832285
Ni 5.519173642626296 3.703818220801955 4.43651163059463 0.9800433328269443 0.7028205622191961 -0.13591905462853365
Ni 5.322738919488775 6.756510176584616 0.8801131078679808 -0.9418992176570553 -0.548247897045217 1.546321347900995
Ni 9.161085897025549 2.32255008198292 10.63040252935093 -0.2778480628965731 -0.4873780581430381 -0.6701824644692007
Ni 3.620571796313721 4.817566477410789 2.176540345177632 1.8473347931704378 -0.5431146895837099 -0.09621942204606655
Ni 6.800262775148621 1.731270289376414 10.733747192246614 -0.021430916180266317 -0.3502726965158871 -0.9765936837154471
Ni 2.430491796395459 5.195460327116638 8.175579815044765 -0.0682681882487792 0.020332540909764982 -0.05592792151587143
Ni 1.7471498267466088 3.0515364025937504 0.2611196085800063 0.7447765949360077 -1.1631773545783837 -0.999569061564698
Ni 7.545333650630904 1.4402199894081498 3.0237844881052287 -1.1692572422238767 0.7502808125836885 0.586005575409965
Ni 4.274745366919902 -0.009574317308766478 7.426907154824465 -0.8669016811042425 0.12044821268644418 0.0639083686181867
P 8.634004539244907 8.267451884949578 4.035735963952879 0.37398443831053013 0.6122017741893585 1.1340945782798146
P 2.8368737597988933 7.8720290388861365 1.7792695459096666 -0.549697227897234 -0.04727641648846052 -0.7920599534030036
P 5.823149364151169 5.228179256522011 2.680211500007766 0.6574891852722483 0.2271605638440346 0.3861465275943608
P -0.01377065280043238 5.521699085482706 4.019082019566567 -0.04029278608177577 0.36689847799802616 0.2212593678682512
P 1.333079707045985 3.2709983187135188 11.835309022201104 0.02863617567945391 -0.26699389379088856 -0.6141527272681423
P 2.6742948813009955 0.9037916973655911 5.425904658019727 -1.308894626244262 -1.0775495920052345 -1.1406128390143064
P 9.697141429974911 2.2576993187439616 6.688395907484717 -2.773199840182766 -2.534391664797474 -0.2066411037344441
P 8.055389236829772 5.570390742031572 8.951818010206987 2.0624749355148286 2.519770315339873 -1.3233707083732498
Ni 4.48404959775005 3.995548806115304 7.734636560417831 -0.9846340375214204 -0.797898928682284 0.5879403305388327
Ni 2.039989370362219 9.09756774754477 10.64425984864053 -1.255396654326122 -0.40242623859099086 1.634461849593669
Ni 1.0464838782414256 5.223072456945212 13.032767788369203 -0.887799093378542 0.633286876994432 -1.6705670799566583
Ni 1.4586249696347546 8.363977852132956 3.478640043988009 1.5507829832167743 0.7603875620003872 1.4897727620819892
Ni 2.8528185300103974 1.2696454283611753 3.2696452032052137 -0.46461891006965145 -1.892193087135709 -0.36346014174043856
Ni 0.9285960193246564 2.743683986499628 2.344371399298676 -0.31005550086705314 -1.3498890663787526 0.6797816781218615
Ni 2.081468138457722 0.4964899508996928 1.0601855706096164 0.6007544515843654 0.7005394794945032 -0.08460137819116398
Ni 4.507785033009373 2.679327129059156 10.086686797036366 0.4891336073815641 3.1685005234725687 0.25162383909272146
Ni 2.270717930073869 2.8978478284686022 7.2297241178073515 0.5313426366494461 -0.3195433857528303 1.0494692888292505
Ni 4.68303772067597 8.427952631502903 2.526618911349116 1.0087882661701206 0.1281952036217147 1.735143164065831
Ni 4.30147219390213 6.468945174137745 7.386221431699738 0.5041444789680994 1.1780290748792357 -1.5043424323660477
Ni 8.46134252727603 4.632966855482276 10.815241648996821 -1.620065471662681 0.7055842410072621 0.6461845588927065
Ni 8.702433789778556 5.364292239402918 6.250861534765072 -1.7972206501228662 0.7434311366517067 1.072963515296449
Ni 3.5978707675380206 7.107229888396399 9.582047400461652 -0.36274511795128495 0.8062542426255147 0.7306216435918643
Ni 4.951824983803041 0.6196104155872155 0.8125132463166941 0.5771113582441286 1.3362002560377506 0.24229819081642143
Ni 3.231485854834631 4.413896336410364 11.846479680326487 0.29522357806054317 0.644286056318413 -0.9443965301576123
Ni 2.165991262840155 2.750794366202362 9.6924297550369 0.7117515461602387 -1.8053530494220134 -0.09556096252646124
Ni 3.0527199127146507 6.299330467755752 13.75669949567628 0.3537323729297134 0.329262155702491 0.31944851204617886
Ni 7.016574876930874 3.82617639314389 8.935328079821682 -1.4427704251905218 -2.1322724159239406 -0.28887166770058637
Ni 4.467117015941574 5.719699396811654 5.030815431344696 1.1795370268833296 1.380655915247964 -0.19481428630284514
Ni 5.167111998079003 1.6494683063743192 3.5536559476984513 0.12665691260031733 -0.44980909875032854 -1.073593949791596
Ni 8.416005702565936 3.5490113693972156 12.838572415484064 -0.28107222626082556 -0.6405646416027677 0.2263370395014747
Ni 1.198411165651217 4.619901649265719 10.09337036757739 0.3239399721586292 2.6582949259120543 1.2833807982438734
Ni 4.559496038213135 0.5576681051729272 10.210326328761166 0.24430776504728247 -3.6236768000720816 -1.8987722830151237
P 5.1616790342956556 7.86144268063934 5.031674641054516 0.13834874711594883 -0.30684419301860705 -0.05678075643446995
P 1.6826531846461876 4.835757121158807 1.414432515340777 -1.3806402315186803 0.5119385210912215 0.8549612209129147
P 2.2452864409405 7.164513642043457 11.814959171405743 0.403388345393944 -1.27666739077944 -1.484797163244269
P 8.838900893798 9.343206670984301 10.94526468019262 -0.3034678203472064 0.28657053037123553 -0.08130085306302128
P 8.924467743641385 1.9310691633300379 0.6878719245289271 -0.4944167101573744 0.6379308035243465 1.5669634496313787
P 5.9912264392737224 2.6338691576437747 6.944855095502027 0.9588492152478326 -0.38957637921151617 0.24390667295412186
P 5.127319964880217 0.7526034048580625 12.180505376149439 1.3350201196867202 1.3415756614170509 1.1044942389148786
P 3.983275712971791 2.539617020928898 1.8331173926151807 -0.03763118008921261 -0.5128576904713813 0.598988103712562
Ni 6.9213815235056755 1.5269330734631157 13.057209602110134 0.6648111728549583 0.05355042242263035 1.5300130976592747
Ni 0.3245837079922717 3.855577766619808 8.109921096471302 -1.5462861237876853 0.48989516813793693 0.32393225884914534
Ni 8.576273474686012 8.527311567794579 13.447060631628013 -6.378570899967125 2.070657214215305 0.40773428106746545
Ni 1.0041477642315695 6.952926261767477 5.584447487436033 -1.760694273062058 -0.43898166911752134 -0.8145607056086811
Ni 0.8253743669297255 6.874917102538662 1.8759585951963187 -0.4487680590803239 -1.7658521631139137 -0.025980997444793964
Ni 6.152975928789257 3.2874649516554992 1.6049189352486057 0.06789872072450243 -0.4230981651180455 0.9900837477820819
Ni 6.845497091108084 7.281354979806076 6.591529797628796 -0.6907872852037458 1.5564694920785904 1.0687119391089466
Ni 4.0386583952435435 2.294052649308005 5.947688177188305 2.383534500801869 0.3178860526550654 -0.6950221492206998
Ni 8.32803455657143 6.265167096864241 0.3463891830465668 -0.47341671086693954 -0.583862303814717 -0.21180773553704813
Ni 8.387778520233589 0.4378689240057902 6.704380749298741 -1.0061199753093382 -0.40065886227792286 -1.0554977544115176
Ni 8.525000461416756 3.565282303815268 3.62177021679835 -0.8999416422783468 0.3798997753537006 1.3547636208622347
Ni 2.4932085138258637 3.3401824064108934 3.9291445693554468 1.3446201046703294 0.7598396599167171 0.027680239524087814
Ni 6.535697008752007 8.465498791165176 11.564705490392432 0.6548504620978206 1.2064032551465544 -0.7120202264405932
Ni 0.5631756207749138 1.046045886306919 12.67907439089144 0.7647237274818958 0.02749280610363007 -1.1841742685450252
Ni 6.237405863398391 4.953511718699757 6.720693619114777 1.3254787558551882 -0.28545158627544387 -0.20722500126237217
Ni 4.215141187917692 2.9681874693548878 13.41393073532239 1.0715072424658965 -0.2458262585743379 0.40574424722063024
Ni 9.103112539056077 9.359328501765075 2.148702696097675 1.8169163287795804 -0.19608621103673327 -1.148405852696164
Ni 0.8626279107038398 3.9015110058790157 5.5096906512953625 0.6622315850532401 0.445808976452 -1.177337705239166
Ni 7.252018839171467 7.203345820577261 2.664457768831525 -0.02249458155809029 -0.4224703017260595 -1.0615511596944494
Ni 6.352299534899054 0.8193785369156509 8.264576048545562 0.9755750126429455 1.1085889778095424 0.0015220930714812497
Ni 3.815002939325308 8.573347315804416 12.795377091764388 -1.0107759860241108 -1.9967655091321614 0.7014316522914693
Ni 2.4238566845365512 5.7810275866199 3.9859521232609456 -1.9059549168064915 0.5818298467657206 -0.28081485883438084
Ni 3.0885234236162287 1.328718425655579 12.114695690143233 -1.4084325711406003 1.6909775252922103 -0.17746705327364917
Ni 6.936711241213405 6.058854257756999 4.717439657387128 0.03625743967013755 -0.8022186391035604 -1.51302041975602
P 6.248038816531836 3.8095792945192906 11.071100694874083 0.7621937619711905 -0.15843677611507553 1.3288643844979693
P 2.2143474362051436 7.269641025302358 7.43341366479622 -1.2009165210003705 -0.7345184075431092 2.0221332984729883
P 3.075700510810249 4.385110015438221 5.783608011442556 -0.2838654727352466 -0.22894619498954763 0.7120202264405932
P 4.29649586000795 4.982270082739911 9.686947400673704 -3.3080543466402124 -1.7872578824831993 1.35347884061254
P 6.5942481433159355 6.917635294619045 12.950305089874417 1.4931751028953186 -0.8732312228666961 -0.7306908062669029
P 5.805741514498865 8.143705184985484 8.684243146030541 -0.8745797664747906 0.9766453628889891 -0.4866733187665296
P 2.7190818863486226 0.7678613664403513 9.010794090137159 0.3448332706678706 0.9252166147950518 -1.9645349312332294
P 7.106838491348542 9.101108958930142 1.6272322945673816 -2.483551956437787 0.36048383272093404 -0.8805179863360963
