# total energy = -340890.78826441494 ev
CRYSTAL
PRIMVEC
9.07705063683120 0.00000000000000 0.00000000000000

0.00000000000000 9.07705063683120 0.00000000000000

0.00000000000000 0.00000000000000 13.28518112934116

PRIMCOORD
 96 1
Ni 6.230923326163844 1.7059863012724399 10.991667605991406 1.1815622848434746 1.228150417015659 1.8221310402113005
Ni 4.898330584119599 0.3496080554698916 5.869339917653071 -1.4915766480599473 0.420357883368747 0.5290569259390632
Ni 2.68077985725929 1.3864650381843493 4.894353928190538 0.4704938807931897 1.2628757363119865 -0.29619905459993506
Ni 3.4720536013909373 4.353889080752546 4.7805395120806935 0.174899292546473 0.18266762363798217 0.14700616568063068
Ni 5.209500960527168 4.613093341675347 2.8894476381888254 0.47561166163572927 0.3751607180068184 -0.38667591773526955
Ni 7.236388236600133 6.181290012719179 2.543155429354145 -0.16575927791841777 -0.3212590828923564 0.18897891056799068
Ni 5.12095433056142 4.56138138361129 11.681633294522364 0.43211245280151384 -0.19557456150763736 -0.5823013870855004
Ni 5.431934088903454 8.138202304639815 12.568353134887003 0.3201295972736035 0.06907628597237135 -0.9139824366421291
Ni 1.754103747243576 6.600504524081367 0.6054792233610755 0.39512764804704853 -0.5186172186629778 -1.320020303843778
Ni 2.8542786050978677 1.5560878853570759 0.45403407799966716 -0.6359556820758467 0.010168970113201843 -0.7329711176606473
Ni 0.5434339507349475 -0.03749094267017244 4.672942875727542 0.4974452125710529 0.98774018725057 -0.2498955435477051
Ni 8.63463528664461 2.495126938480258 1.2464923772528447 1.349014377083283 0.2270831736388799 0.3133745379379571
Ni 7.0088628827588755 0.7308024321037825 4.611844339493564 0.28250561627324244 0.9068815639312897 0.6719290148466622
Ni 0.8521934624660527 7.438860930399825 2.5915932952163927 -0.5870622988092534 0.04607725397403677 1.0209806944712547
Ni 7.601331061589669 3.9449225596754767 3.914411869024131 0.3268409478555081 0.3954212680280674 -1.2071743289846242
Ni 7.712652011861318 4.026543399926836 12.783599054487597 -0.12231611913311836 -0.32732482947046204 -1.3785008165781745
Ni 8.196322660526098 8.732504047720028 6.731123284225614 -0.48653833585056205 0.8677097788278346 0.3206672149446284
Ni 7.200733581294601 0.789533673504847 0.7566293645734437 -0.6923934533486011 -1.9368873447192902 -2.0982662341818252
Ni 1.674960941844154 6.46117179522701 9.266506942736429 0.9511230502481683 0.11812470675959011 0.6947480696237067
Ni 0.051353414559838405 4.830261780622608 1.4877540319784854 0.2572879793570343 0.6928696216540713 -0.4801617429002569
Ni 6.664788197419904 1.7897493254983678 6.985494015629525 -0.0734528177735122 1.043269587776442 -0.7954826059313074
Ni 4.051659599323579 4.358209756904642 0.7233492657414169 -0.8363713737258692 0.9104502551191546 -1.3030854757616526
Ni 5.890043762685246 5.654730299309329 4.847297589450872 0.10689232837888042 0.8534800083816977 0.06331033002287162
Ni 5.278640856011444 3.1244933285679215 9.233732435630603 -0.409292883803837 -0.14894889122929833 -0.1235232520673421
P 0.09998189848761962 5.76032363056423 12.481307849113602 0.7874288823888955 -1.4529831040574654 1.1397885433407984
P 3.9298909636505375 6.22385230363762 12.687719982934322 0.2303595303973065 -0.32291358777664386 0.3159063032208753
P 2.432032358788621 8.602420833569424 1.5413331393796976 -0.014838350564413154 -0.18690737275094263 -1.5081674625390928
P 6.46059086397967 7.974688312614905 5.669730125656679 0.2361576251363223 -1.6796389603509396 -0.2792382583758804
P 4.635068881516154 1.1834477213402759 12.477561750273328 -0.19904117989999914 -1.0879610171465457 -0.0400403037513375
P 4.152578249447536 6.11553585716081 8.123689008212112 -0.8859476419921001 -0.7128231819578628 0.04449473997826531
P 4.614654594402575 1.3093918003535783 3.6580351094067463 0.6141185315960972 -1.776913048913766 0.37831417603413553
P 0.3326657402642463 5.500211664567459 3.640405661460106 -0.6752205411137404 1.2219751414428828 -0.6241527759036477
Ni 1.6842195335986452 1.2520611478816492 2.6455845007211876 -0.4167737655619145 0.005149405411423389 -0.3453932569363987
Ni 1.6666009781128925 6.792447839023009 5.208176618824246 0.4018006891918499 -1.4061440322167396 -2.6895957929078644
Ni 5.926578891912529 5.550643758477219 9.368059171002017 0.21588370537863463 0.9457425026625454 -0.7352748260931594
Ni 8.64991196303952 2.3432406484529 10.03271622666055 -0.5680507907037572 -0.3325464828807176 1.6934077320002578
Ni 2.279910065442031 5.190511770379722 6.945612177794516 0.052293410087077684 -0.5512866838715409 1.0049454953852628
Ni 0.46537585289891914 0.12850743814219287 9.32295530587646 -0.384379408391609 -0.7516949193223957 -0.23543411670673647
Ni 1.2791924525426048 0.8127990622557656 11.7566015642866 0.45226861603441465 0.6119750028905332 -1.7250952929115257
Ni 4.1485843471220685 6.893293872741048 1.684255841801604 -0.12159183937258415 0.5538256482433107 -0.2131861039418135
Ni 5.753297993291704 7.638610508977607 7.743427752394264 -0.3788330246520831 0.6326433298731621 0.37980104499230716
Ni 5.376346230173548 2.8892978668516203 4.90342734810994 0.6140234007791295 0.01755163573051816 0.42004986521002496
Ni 0.9513293798247324 7.464730525007963 7.214743101406251 0.04324724072440939 0.7344353609109996 0.9754297453143331
Ni 5.255766688147407 4.419688621564613 6.963719986315139 -0.017609485551647094 0.22866723029654812 0.26871679001926624
Ni 7.913309295513072 7.224687918196663 8.83060699670453 0.7903033757232131 0.06039521325860566 0.7061802227200483
Ni 4.415740104492844 0.2945094497748541 10.34709715591475 0.49316998223446673 -1.4709029217606797 0.6878816815211767
Ni 8.36789707360786 7.10956368366508 4.695660918318857 -1.296475940864935 -0.62200616187429 0.47227899771807047
Ni 7.150991343241059 5.932034199407086 6.786920822827607 1.4890261137239515 0.3580536260128866 0.5667441560771916
Ni 2.329588764140395 5.248550432809347 2.704623454142328 1.2890305403304831 1.509283321311091 -0.621080307625911
Ni 2.4605161440097914 4.8869207313398 11.747540852238235 0.05260219957674811 1.3828560082230765 -0.3779642488938845
Ni 1.0986136051270634 3.4972605712950773 3.4238971241016203 -0.5703046197349404 -1.8212725488657473 1.215707820376932
Ni 3.826630434435739 2.8672860188078544 2.431786370713575 -0.3725572189457003 -1.4103863524328615 1.0769880630748097
Ni 0.6810810712669417 3.3812830939939627 8.217854332585734 2.128859790697966 1.6693028685322542 -0.6322260398300854
Ni 3.591897902307163 2.785964721230904 7.411417375193423 -0.11500647284558257 0.8749775161338414 -1.1899877899030085
Ni 3.883534465522903 6.888292417783475 6.117666240969418 0.8894643968961069 0.7134991249789647 -0.6705259638515485
Ni 0.4475948182049258 7.415560141151022 11.280089077835145 1.2184583865388758 0.4692049867784371 -0.27677488443705234
P 0.16043687182415267 5.610942606541029 8.061753567899936 -0.776632820214656 -0.9823452414872437 -0.6220570697168836
P 8.636314541031453 1.5891283500495748 7.948005414260491 -0.8946783369968785 -1.0427594809092429 -0.4204815534308049
P 1.6710487329753445 3.1215886723312183 10.339219183577766 0.08381050685875244 0.6617572165199829 0.909747315514859
P 3.9996844067880715 6.2871465784455305 3.8615507563364293 -0.07935812751435366 0.12370914282590306 -0.09400313112103811
P 6.926797267021271 3.921149763788209 10.44790506601968 0.10136625635432864 -0.0138836999606277 1.341754095976444
P 6.20195845725347 7.704727746565563 10.2081338630255 -0.5741785008680499 0.23406449005271945 -0.18543130242604838
P 2.433648073820287 8.636296386929974 5.96652063828242 0.0048496147828174544 0.5450335038729776 1.049214235395651
P 6.8480810830066146 4.061008961585467 1.5390484457085158 0.5895534406622234 1.115374119052176 0.4181289940382283
Ni 5.710708471221043 2.5212053052554086 0.48653627358330187 -1.108378147350317 1.258956346652922 -1.4704401231916482
Ni 1.6504892130499296 1.4343101726332947 7.261294756124789 -0.38396828899611934 -1.871640716905654 -1.4849791973480877
Ni 6.820977009497879 0.5692735910756442 8.99923590682126 0.3225592897610187 -0.8114213886487509 0.6712936952555084
Ni 2.7412602463378946 1.6051856528080994 9.361256829177687 -0.607492027418515 -0.50308981245134 -0.012778896932223154
Ni 6.6055422872418985 2.06662660421136 2.5619540014360584 -0.5079396843444736 0.16903743444905728 1.7775267712383647
Ni 3.983436485964013 6.4918068414734895 10.353261381072077 -0.33609949033929853 1.9462037370242096 0.7879726707075074
Ni 8.270636474932003 7.2662154253307785 0.4944042611644716 -0.11263308751739957 -0.24131988606355212 -0.16700574873100915
Ni 7.508745144044756 4.010386249610175 8.363924956204169 0.01918634312046373 0.00969357313868008 -0.9761136587552349
Ni 2.9818837843965347 8.186374212915391 12.512169821628573 -0.1233116502771683 0.7244579379833136 -0.38912669326860727
Ni 0.16559354434937482 4.770643711364276 10.43949517850935 -0.5341693074649639 0.10784595054140136 0.0018504229451774587
Ni 8.964849315504065 2.3004151230630074 5.547625639106268 0.14805594710138373 -0.3218998018001489 0.48015325825982463
Ni 3.6735005884570433 2.7253572534419446 11.345066237850196 -0.4251828155612161 -0.2143266453041599 0.22211348833843036
Ni 1.2446179662750971 3.203173204379619 12.656779040077915 -1.5122020376197827 -0.724252763951043 0.007242026274393979
Ni 3.3446481172085436 8.424174788193984 8.339958819136145 -0.13486670210461937 -0.26884611650827894 -1.4848550130653977
Ni 5.370981693186386 8.163191425326202 3.616664635250427 1.021527053893028 -0.12792189535567 -0.13385445879002109
Ni 3.0148788638353348 8.352175621726705 3.636778471984523 -0.1296206232143316 -0.31682804370419626 0.37187690504922405
Ni 3.2102442269058433 4.441237540020655 9.363674955494744 -0.029210817236001305 -0.5529933821500024 -0.3440488270933623
Ni 7.256185284263413 6.167601820203715 11.42370163611327 -0.15020487512358646 -0.2786772436660878 -0.039530968215086754
Ni 0.38151207340978033 0.19893899794672742 0.5133462506480723 1.3803293851464808 -0.09855424082683026 0.7634564307336982
Ni 4.70929192541466 0.4245518171971298 1.4214479917351432 0.13812557536154924 -0.5287422229121217 0.4946807624520384
Ni 5.989864089669699 5.840256139378006 0.2536563675106977 0.5305260542854218 0.39145636984304844 0.8693933371778447
Ni 7.670779576799094 8.735199931789719 11.456236509079567 -0.1398196752345205 0.942994250493447 0.33519831868126787
Ni 0.13604229796121575 4.785393918816284 5.671908617834206 0.28593649633166235 0.006632674825169222 1.1172577092281337
Ni 7.815195454067681 8.60945554789269 2.7691894237588697 0.3561911188828511 0.25969710301915916 -0.4582405173471334
P 8.720032180003683 1.6995234411457754 3.406001718568307 -0.5731372040877291 -0.6391299660387703 -0.058535791452363706
P 2.0746234859130332 3.46747876781813 1.3720007578306415 -1.1219152626048032 -0.16615908445999772 -0.1958193305285918
P 4.806897452018627 1.2496103441819308 8.274369865901239 0.18415012172077963 -1.5224280862231652 -0.520013327679556
P 8.362614230077355 1.6625798446352065 12.270578669961079 -0.2602162087474228 -0.2157672344054284 0.7289406563450156
P 6.339539315315064 7.915941640227584 1.275167688244623 -0.37143570374674745 -0.9474898243709552 1.1157399870320268
P 1.9424253189400793 3.2668850235215556 5.826136786952406 -0.6181816459218772 -0.1263514655447566 0.8923797707706889
P 7.282908121641083 3.749085189966504 6.0007175192391555 -1.8811946791426764 0.12277711792993692 0.5789795218011189
P 2.2514172031701207 8.389727380636833 10.234677882503595 0.5176664247139343 0.34502584629465094 1.0359758823285061
