# total energy = -340864.85562116565 ev
CRYSTAL
PRIMVEC
9.33384729178564 0.00000000000000 0.00000000000000

0.00000000000000 9.33384729178564 0.00000000000000

0.00000000000000 0.00000000000000 13.66102899127095

PRIMCOORD
 96 1
Ni 4.933778296459682 6.759432141398163 2.813393291726296 0.7033342686308209 -0.1775812102540103 -1.5032013767830692
Ni 7.35123538986811 7.037608789782332 0.055027696223496576 1.7798867868301087 1.0986899735282756 -0.24719177146329682
Ni 2.0434498357245157 3.788907265439134 6.23869120527288 -1.6142519503046973 0.11611333275651617 -3.1513458660701534
Ni 7.463176219451419 6.330457857497615 6.019418599858304 -0.24093704880283665 -1.2319528214808848 -0.9957553442455626
Ni 1.0486110647491684 1.860282418085656 12.468967947286412 -0.026747186186857164 0.1620319496655016 0.16161003163673457
Ni 1.6858981506709183 4.439756431356259 1.4180288697601795 0.3808315431393506 0.6822576504661799 0.5492958786937572
Ni 6.299516153998185 6.580044931879143 11.506958183716252 0.48051192715082414 0.2970256642662885 1.199891936390598
Ni 2.606980860996945 1.5085830552324033 4.772739563785061 -0.7450175073022202 0.7946727084355023 2.1245524215718636
Ni 3.0422928271527305 5.875236795244006 7.435492962012819 -0.4426154092153668 0.3986410605169457 1.7472309484683006
Ni 2.675948658027801 7.4027115572283995 3.66261751254069 0.16279993817977767 4.123300508351693 3.387112940636276
Ni 7.340874819465586 4.426735714499033 12.341373322548083 -0.5090892245678845 0.3633428994362839 2.358155141496816
Ni 2.8439579077984636 0.7859986065868095 2.6298030508088472 -0.31668174793431914 -1.1788240599767053 1.0184309314662072
Ni 7.682698971971208 7.994776153420212 2.394791712229645 -0.42715767989939984 -0.8098771840900827 -2.0768345466706104
Ni 7.269022863646999 8.552585530353229 9.178981883350957 -0.20590062602399375 1.7302374992340976 -0.4373346204324017
Ni 2.3756974609932096 0.7674485186426865 8.180141692076905 1.1364836473372815 0.10384248580896309 0.34225239731457185
Ni 6.087572485412495 4.21753619699293 8.864614175796746 1.343663140073699 1.32976889859011 -0.5665916896597274
Ni 5.048425941733741 6.379339215333669 4.996344007689555 0.05530520033020798 -0.27119019126042326 1.4908801362135549
Ni 8.286328204855568 3.630679887544008 6.695092999198487 0.26328816280452716 0.8044927798497177 -1.2805168464325174
Ni 9.011997490003896 3.507015745865591 0.6428883276321594 -0.41311662842530145 0.7887853964167899 -0.4375871027628399
Ni 3.033108321498601 1.8455536071890948 0.6007338734799793 -0.6022811726415369 0.7515267691756476 -2.210574591369954
Ni 6.5470497819936275 2.1731436427002575 7.624097345651201 -0.3165033133749259 -0.3015693177729129 0.7092321221724947
Ni 0.20819332877692068 0.028790251717644846 8.651843528348294 -0.7513051400831448 1.0161339079019145 -1.3503778330897132
Ni 3.0646567250666474 0.31134820798194435 11.90307265851582 -0.9470002863290466 0.3954906878134221 0.6414892102995662
Ni 8.34191126498803 3.6705914182117496 3.5463756461632525 0.5140355128295664 0.23919332663885254 0.16970540705035936
P 5.442883658653627 6.80194781543735 7.155345938482728 -2.280029600837983 -3.5242375855371373 2.1677783221400344
P 1.0960456762677522 1.167010916601438 10.334759514835785 0.5424711424624399 0.2728899475603494 -0.23311832408936625
P 6.8528639519650705 8.716189204241017 12.271347067243669 0.7035839227477818 -0.48417754892786935 0.32843554603613756
P 8.576358839195779 5.607784737303532 1.536319515600098 0.9319480199816144 0.409988624319281 0.21428859297737288
P 2.7852760103924554 7.619574163293486 11.038821877078885 -0.07514460365363833 1.2732501375677747 -3.6227406614110578
P 8.064313315130848 7.893251897322686 4.3597942956973545 0.8668232624578232 -0.6905679701040881 2.430627340524614
P 8.22133662673595 6.718316544440397 9.907442922199639 1.1952338687932964 -0.2352767651932658 0.8420260009084852
P 3.0746906108168397 3.5339718966065727 7.804012850922278 1.2160397497950541 -1.2197683635995509 5.465915409666534
Ni 5.735070411699227 3.7062560483991773 2.637302797041665 1.0924951575714734 -0.667859729873295 1.867055154417501
Ni 4.187238528950955 4.418260581232824 1.134640201094236 -1.6718732003625916 1.6621924827397179 -0.04415175481654977
Ni 0.6841990019966023 9.005314455401908 3.0447970983590342 -0.5220457847285526 -1.3212081535042923 1.1917893618881217
Ni 6.2743614357686335 8.378751959923852 6.402787706293327 1.4475148818540426 3.837295620675939 -1.3591224120515624
Ni 0.37671127322049947 1.67183204292623 2.0845094295990236 0.33130798248792614 1.1473005354471273 -0.651338335179504
Ni 7.711839242959209 1.9996180892287918 12.578501577674395 -0.490273120302646 0.7473312430370613 -0.24641041321258206
Ni 2.032706577586403 6.131842922727063 5.411269918155114 -0.9983932960890419 -0.3057643296908669 0.11792930291933239
Ni 4.3494234580629 1.947852572605009 6.6275523474059606 -0.7353077362136239 -0.9153836878650299 1.0221225213851817
Ni 0.47270055792280447 8.294364647302931 12.514021494381858 0.9111976748081403 0.7095617375977715 2.0977676972788517
Ni 1.4948156305984184 5.811318609553479 10.42833786680388 0.32214817036552906 -1.9329751541490772 0.40548173758786293
Ni 4.650150681305176 8.339764480129848 10.620794329185616 1.5520307395809465 -1.940087853934459 -0.19567509164124364
Ni 7.335946548138979 1.8208469136255978 5.365150445708346 0.46512670294400543 -0.4135200345113072 0.7777638484953058
Ni 5.055939688737372 1.9994220784373928 4.388236394914086 0.38716982665255256 0.7558760472832788 -0.45454738476626233
Ni 2.154093260545706 3.3089421742331897 10.214064469954703 1.0809285357797964 -1.2695346363894007 1.5738210959831604
Ni 5.57720705384527 3.6187979000463386 11.186319997606711 -2.1310706823063557 0.361629516289603 0.3604347246505535
Ni 5.42771615693822 2.886025557171595 13.624445028891092 1.0601396240589032 0.5982730799234084 -0.2415811101447388
Ni 7.113558304525881 5.69164935448072 3.623983785555926 0.20371030324089434 0.9408777183710764 -0.34588716585368173
Ni 3.5733607318305833 4.560069721886473 4.094141803498868 0.8087728952823103 -0.23294657439819236 -0.6855545760498968
Ni 1.0428894164097564 4.28016631176855 8.604849474417998 0.38739531239979735 0.7325296592478546 -1.9379170715353853
Ni 3.823022476989787 7.958318146219979 8.586994758090983 -0.6264623978734308 -0.6140619673265488 -0.8537312051605556
Ni 1.0885039277224913 8.634770055032712 5.487799064810371 -0.09941196084143525 -0.28231689730120413 0.5347228659755887
Ni 8.333744148679733 5.30590011700728 8.25232686624087 -1.0757655035216185 -2.011182970109072 0.7224725321221687
Ni 6.185689887278561 6.578103491659571 9.323023680257112 -2.088049441549823 -1.0003391069615029 -2.4803594176424184
Ni 7.5345428152151115 1.5273814235122987 3.1166275863290385 -0.23915630275333005 -0.7477112520842994 -1.1684792264072714
P 7.024849420646971 2.5750311019988903 10.134721168365786 1.509949237029864 -0.3740422881316591 -0.20250548429951576
P 4.078181858155376 0.07049108089544413 4.722644805811775 1.1813725374301718 -0.6530041529177012 -0.7094342108809717
P 5.433232460639022 8.515436818459493 1.6151979915979817 1.989491086957935 1.546879791507626 1.4831339166092328
P 1.457153557108162 0.09337860763781305 0.8182722500830327 -1.0248797724153447 0.6689131108384737 -0.5332493667538559
P 0.40821207416777766 1.3168845012440777 4.65729107442043 -1.0355755615662938 0.30218586831098926 -2.0217255215116086
P 7.864830332569815 0.5497944023342356 7.1669992467237655 0.8786842755614673 -0.2730717245538523 0.7658293018412488
P 7.275108532027582 2.3304656374160637 1.1098056338239692 -0.4663968279056806 0.2566508599936677 0.2685000460227698
P 2.9529119062747378 6.326117618545206 2.15807414638055 -0.605972248339879 -3.8549418730027933 -4.452838029202757
Ni 8.62492284622671 4.484446891795256 10.548035123418268 0.6618389776005118 -0.20898415004532395 -1.5425639377410916
Ni 0.6622859289029033 1.7935920797739127 6.695857441284944 -0.7608709293947089 -0.49227986632002957 0.484558843526688
Ni 0.9299862671791507 7.2589889778968075 1.3824417105045903 0.3520729829494194 0.196857541985119 -2.2010190864710353
Ni 0.8282034635139206 7.908662079065539 10.283093870377142 -1.2149076930731397 1.3034734552286906 -0.5235406241065241
Ni 4.6143740449512345 2.5846729661662846 9.125471870683722 -1.9193210537007526 0.6939762244546887 0.40967494973360413
Ni 3.323857662073941 8.37519576413704 1.1567054158974497 -0.5237599392061818 -1.1193639569378593 -0.5645440631020794
Ni 5.048864632552585 6.983976503716653 0.16107326790929657 -0.9178444907006968 0.491568956295934 -0.31621817803433927
Ni 1.4912501009643966 3.368230771707815 3.973952653136541 -0.6172943582209176 -0.7703760406716669 -2.232154631533575
Ni 8.494136979127457 0.3458423737293032 11.121812846157265 -0.5730695840745873 0.4549096532016876 -1.152902712125253
Ni 3.5953979450921687 8.05562350337882 6.210153900814611 -0.26518152317249816 -0.24588950771210558 0.1597768350827377
Ni 9.143726075671305 6.016672582009274 12.478393266198546 0.1191624039954851 1.2607021256994353 0.01922465255756689
Ni 2.8113267779541173 4.383118646489128 12.75957821353833 -0.3493121323748307 -2.685231602401898 -0.5040316075393191
Ni 8.78755580000471 2.6217656749767633 8.804615272549478 -0.4931974930382925 -1.0547174246020674 0.7877361292166691
Ni 8.758994227543697 7.2550687620688254 7.608482752654459 1.6581388814956346 3.2298079641327986 -0.08838192827951875
Ni 5.072003239784889 1.5548602696970113 1.9514647714750784 1.3976802177201026 -1.344827335585129 0.7636328084105622
Ni 4.4686353546223945 4.365851029151587 6.511515825667132 2.566949287018521 0.5302437471583126 -1.3700079486158148
Ni 6.48527838116128 5.337728535991611 1.2451165500503767 0.12291492905938185 -0.6076054130679277 -0.5000044886577969
Ni 6.17562799998674 9.06194290642183 3.9394174184614603 -1.007826930698116 -0.14280883976983147 -0.15711034399416812
Ni 2.6018192434901017 6.560425185044814 12.582982757719666 -0.8204421040901225 -0.38908761250055574 4.385195133242803
Ni 0.49930295585454687 6.317362469862712 3.3732355805815386 -1.3337474236218836 -1.1415206955405568 1.5054734606466975
Ni 4.002447021897646 5.655415359613514 10.45850112744604 0.18569252650723503 0.14393318318226178 0.11024196157740368
Ni 5.542727822253447 0.7955088635085498 11.310703778904978 1.7217893684667442 3.4648042219711686 -1.7251667695794095
Ni 7.703242769679276 0.25520605040163574 0.5809787858611124 0.2100789257713995 -0.43490004284898004 0.05237337139539368
Ni 5.206335968823744 0.47022428825812906 13.510484354771654 -0.21364813117989656 -1.1802561644375416 0.4782840662615699
P 0.5246844865712892 4.114322514550487 12.325867935563693 1.205172725173563 -1.8332852570559073 -0.2053146716135367
P 0.3547963333573585 4.6640861151889315 5.171656059516916 -1.574893760222049 1.3279022776950165 0.2645348907274347
P 4.843650667804932 5.345167612217567 12.558392737246288 -0.2099467710689094 -1.7374743833021689 -0.24081029341698523
P 4.672505245371884 0.6026622463134582 8.824997594700823 0.054044588450229504 -1.9848749283421623 -0.2836073339778535
P 6.052589226071359 4.227458076576609 4.872233708114526 0.03061335401048276 -0.3904564678236243 -0.3088789640604487
P 4.035022148658735 2.2726704554949557 12.08595352704535 -1.3236730701050172 -0.058540162327737885 0.04981280975706905
P 3.4066302191276208 2.8411577536356196 2.553819934215344 -0.3636074659515802 1.656911693956753 0.7254454987075635
P 1.6762656203507336 7.69832383219988 7.516270875917832 0.03513309625770723 0.5831904745586731 -0.11976327080427762
