# total energy = -340864.916802833 ev
CRYSTAL
PRIMVEC
9.38074345180021 0.00000000000000 0.00000000000000
0.00000000000000 9.38074345180021 0.00000000000000
0.00000000000000 0.00000000000000 13.72966626179146
PRIMCOORD
 96 1
Ni 0.3702373052648615 8.690086188354458 3.0713398233360625 1.4135989458328881 1.6008346484575269 0.257909157880801
Ni 6.0051860903232255 6.713244603880905 12.453494110009588 0.9813790209192323 0.3014459048211712 -0.17409042349193243
Ni 1.2461942407536217 4.580973481633938 6.799122495694187 0.8806426848394188 -0.37188770368250146 -1.9724570142937838
Ni 3.027963265748745 7.658270077043519 3.341443321007918 -0.45359273416247686 -0.8403768953408365 -0.3021120776502604
Ni 7.670436901262972 8.052270681547176 3.6863741947409228 -0.8090770567862904 -1.6122081804017911 -0.9112825212124629
Ni 6.987546922308834 2.0965211090624365 0.8068030330497585 -0.23749485589050712 -1.1074918880906217 0.4577345242449923
Ni 3.4245623361805357 8.482405909715702 7.380876803657756 0.6057195088991245 0.07396395308197584 0.11859753263095059
Ni 6.386550833436287 0.37506651197895124 3.002252524175363 0.3562093737152962 1.0151669160029548 0.2657664491416907
Ni 5.752168678721772 0.3490799765489369 10.96081802159722 -0.35906149845211066 2.0448860187884716 0.8283942690576636
Ni 9.55766424381792 6.572073796110243 3.9299114270392317 0.42401116385061816 -1.1191163597034275 0.24892495210431967
Ni 2.3127378642159995 3.4502468116723337 3.982165920201946 0.8920768948182894 -1.2564142969573586 2.297859172820236
Ni 7.669939721861559 2.4353254192659697 7.367256902282103 -1.710649292689525 -0.7293998553696212 -0.16941847193755982
Ni 7.534791351368376 3.606248574794541 12.573779630623587 -1.1523113583981575 0.113371765455637 -1.8733602706999222
Ni 9.265744889241853 6.954245283157671 6.823520871262709 1.1094731801867086 -0.6438988481823232 -0.9999822378427166
Ni 2.887064499537347 7.33917470877142 9.621379191220344 -0.7774339759597126 1.2613816682649632 -0.022444959267077475
Ni 8.876959978081308 1.0519378059529805 10.731917563261606 -2.1834535667834465 -0.5911601230277109 -2.0770183805466425
Ni 2.1936868494364488 3.329479120846399 1.8659574449179472 0.8514971736237141 0.232769939611012 -0.8933411062426938
Ni 4.034019855620504 1.7671444459988803 5.280401711242583 0.2799409408698598 0.04828120360389104 0.5836090501533304
Ni 6.7412742652284185 2.431666929331053 5.023149832060049 -0.6111373374805862 0.5417363211789444 1.2269435411917513
Ni 0.006988653850032732 4.320873608748223 2.9540476979482984 -0.7515709921500218 -0.4585264240186684 -0.8505142408851547
Ni 8.641400129989801 4.479389411107758 7.644980377836349 -3.0938269459180785 1.2382952187591447 0.21415361006140535
Ni 2.226660162567811 5.482434782340778 11.181563799675342 -0.0010402683390562729 -0.5722825693969177 -0.07721614147068637
Ni 7.038024702667258 7.0262049659544505 5.935705738013109 -0.9503051823325633 0.24512794695573265 -0.5158229437472923
Ni 2.6198165001634113 0.5503550835785642 3.440119361073011 -1.5169346672087618 1.4839561554002119 -0.5567083691077445
P 7.646750524120244 8.46474196985045 10.22846432064867 0.3803075523150805 -0.03982947329211205 0.757346204070902
P 2.029739596635077 2.454931173019753 5.98354002487497 0.3518428692164844 0.9164026160478476 0.6194597413033525
P 5.87091012896837 8.260466901074192 7.724763600647797 0.07573672871168247 -0.041806908733457035 -1.730670473006458
P 2.6888587717556804 3.4090653480459663 11.795252034399022 -0.41541982263718136 0.6053744668548801 0.32521883887105285
P 1.5112283846797623 9.675392573774845 1.346309286859782 0.14227405031228402 -0.2661132909581482 -0.22391428899259505
P 8.56518158967904 3.5058183357093724 0.6014501168542129 1.792652056915577 0.15449450363787587 1.7729340096613595
P 4.464905543262858 9.396503071813136 4.137544801960875 1.4101716653188938 -1.2134257092109748 -0.39999088967662083
P 7.940320889538732 1.9171237718436096 3.5169091886582233 0.19364494858509232 -0.015089547343270785 -1.6517262931010714
Ni 5.594253243941301 7.869130427702627 9.79637789784819 -0.6783395463586962 -1.6941896044716047 -0.32622516864838014
Ni 2.287165957645276 5.524301040237014 4.821954461349516 0.815268273198667 1.7235963397684961 0.2578690486714849
Ni 7.462897333775556 6.724285738889614 8.235781474756928 -0.9456478860662101 -0.10643467201617153 1.4203995136944894
Ni 1.2959497038684857 1.4001510018096448 11.752539633446043 3.892753030313296 0.3525396381731929 0.019697992649559626
Ni 4.994007614542584 4.554125793957706 11.329075051925518 -0.5181446499019334 0.1320084067202178 0.6836509312692806
Ni 3.6327210327338597 1.59599278224875 11.19630939026174 1.69849080295012 -0.48113387700553917 1.475426520662646
Ni 0.5500839800936435 1.749893258844236 2.916922467777977 0.3283319305787377 0.8173143570944181 -1.8945942403780336
Ni 7.463638412505962 0.10438234628922041 12.50184996620576 -0.6959981399807239 -1.3035554734195356 0.03571519401342236
Ni 4.603712403690957 6.366673038123241 7.9063241372999356 1.5330449425070631 -0.3915273322902999 -0.47385996905194516
Ni 3.769079519128592 8.39081233093487 11.663942264114473 0.9158128049826485 -0.08885295437866633 -1.2259454389445401
Ni 2.193311619699534 2.5415717192733127 9.712558141141884 -0.5863061373695193 2.5416971973199516 -0.48012214791157315
Ni 4.986690634672751 3.938233084529653 4.614925206304306 -0.668041763977114 0.5241731154842005 -0.4120249380230194
Ni 5.795770374151238 8.906912691830508 0.5618014667031412 0.5141962067771467 -0.4484150466162793 -0.06953651343824153
Ni 1.4231244424522358 0.5938395197152444 8.836550549638641 -0.3051848030383131 -1.2103969496869798 1.2838677651826211
Ni 5.660593861427787 4.563262638051573 0.0994227472415529 0.23525748191955612 0.11331957206146291 0.07377137745519553
Ni 4.489755132590021 1.0193303418151096 1.859985663654953 -1.102943606598307 0.3617210475621448 -0.5361896803291023
Ni 6.87766089385342 0.24336181239630086 6.141911363785793 -0.11366692809855262 -0.39261645158942066 -0.03288209544000144
Ni 3.2793578087380437 1.5377289848493496 7.693953486949747 0.2789893755898679 0.22685203146468028 -0.2938164133003714
Ni 2.9472513493384342 5.415944072959527 0.377031777726041 -0.40379098014900133 -0.5488932439386999 0.5717765762947765
Ni 5.072590102195906 2.2126922356111685 9.233640232951448 0.06505070975274603 0.8313896042405617 0.11774701170519722
Ni 3.9102784691295223 3.063094149867366 13.85652875234742 0.6039451906075212 -0.998507195959087 -0.517008222304645
Ni 7.0986243051789515 0.6252715767022304 8.769590803086247 -0.9114334449680304 -0.33238656026408564 0.42257803094851737
Ni 3.791771537468497 7.700792986979355 0.9573939833656584 -0.6656958894527567 -0.17776350146814546 0.20069054257796404
Ni 0.030925496842151554 3.181038236923019 4.953416199677515 -0.9616036380645181 0.5569724214024084 0.9602733492888686
P 3.5619996080688976 0.10469097274783261 9.651817827478848 0.6577979747619188 0.42186326426967996 -0.88858687938716
P 7.108117617522889 2.2591738192714534 10.243814031111501 -0.30370924693405116 0.8125853270498651 0.17072150701969954
P 5.366591981811846 1.4223739829784068 13.303840677879592 -1.0517547424293177 -0.5633233033211008 -1.4934329845423957
P 0.6653245368948275 4.575316893349952 9.138822492656178 1.1148395867049445 -0.26475986225404724 1.513850114746167
P 1.374926182745567 8.068377418004232 7.87830198054716 0.552184770205778 -0.8196736013552142 -0.3253401949402655
P 5.454986727085482 2.391639297145698 7.019209745584022 -0.39987776113752427 -0.6595267845275673 -0.5441192195888241
P 8.860468631143915 8.723397208249045 5.181122489375401 -0.45814538653016584 -1.1346280821857815 2.317499315648667
P 8.21858188169111 5.470680710831931 11.577747303173501 -0.5477902406825081 -0.7508554541402359 1.0243868919393262
Ni 0.6977040489675228 1.027838676099646 5.052050026397205 0.4032896150325506 -0.500556504506525 0.7607418600160124
Ni 6.555516783968891 3.88068222363039 2.4124532906523455 -1.2109335389167404 -1.2049870915253182 0.5319496741058258
Ni 1.5612652700973122 2.8973645558156504 13.558718290901798 -1.2229686157044035 -0.04355577310376369 -0.8567684493249824
Ni 6.975145579503809 5.344340858412816 4.152304463662407 0.162696579832694 0.7763230022837211 -0.058154239743228885
Ni 0.48181468175941766 2.3779246502614724 7.516895707140581 1.550170803554072 -0.522918674251809 0.5914457725889297
Ni -0.30071004923762984 6.7179162141054904 10.181385183632349 1.094362035576883 -0.06299614121656248 -2.0672114217585498
Ni 8.99244631036017 7.499744893940562 12.37902414027285 -0.9413932245549143 -0.39276197602834934 0.9795293693050035
Ni 1.9590087912266918 7.386819504616139 12.936887570887073 0.05652647433181878 0.26642567999224437 -0.7205151512854816
Ni 3.233617303808165 0.3222923256306101 13.328101156519798 -0.8465537135755098 1.4461807364236512 2.187034342156169
Ni 4.017322132327808 5.434358472298606 2.940208287176549 -0.2312625018275501 -0.2570216130695251 -0.744899236556801
Ni 0.21399070473931767 3.569898194030948 11.294778115897188 0.5421111880198599 0.5035808931551456 -0.8688919720613939
Ni 1.657023898957895 8.245260715985731 5.2196210603828295 0.17316174103007598 -0.9121708373546871 0.9755842686143263
Ni 6.249263653442691 4.391135376985465 6.867853326604817 -0.22657589498515815 1.1345260093902783 -0.8066710184479592
Ni 7.839074525775774 5.460164897454902 1.3345580295739619 1.2257268951758309 0.5760731467876014 -0.27058649623815334
Ni 8.90249436167834 -0.10588701753424759 7.55726104608916 0.37189721676419824 0.18867114951958475 -1.239267609974743
Ni 0.7734413571406896 7.417213113306215 1.1797157263388205 -0.330317850660515 -1.0637067725848715 0.2145829842893401
Ni 0.405723719559209 5.10970032317675 13.431197402885745 0.03238921496398293 0.6986458620162161 -0.7316505990770109
Ni 8.304049835016812 9.257958872200877 1.0874758143361536 0.5078412110933963 -0.10862293791674196 1.0687499914357335
Ni 3.633621584102454 3.9158318692358565 6.836714886886966 0.7108776281957176 -0.026961101969876153 -0.39586375488212466
Ni 5.788753578070938 6.457215973640712 1.445719839134885 -0.33219012798256337 0.5621117995115028 0.031288525700636435
Ni 9.087313768595582 1.4505255939904176 13.18319775094118 -0.7443947861165567 1.5403463612644828 1.808523476730195
Ni 2.581074029826988 5.414302442860526 8.399837544182006 -0.699253413693228 -0.508692246239782 1.1641271200861627
Ni 6.641528820413119 4.348302902516674 9.314137330337376 -0.027841961912932697 -0.276558140440556 0.4444977138397441
Ni 5.452650921973189 7.54761482762743 3.5328902231534123 -0.9454262569737074 -0.4780331265930284 0.8260303968111773
P 4.352608663747768 3.0474189276077626 2.5559561512379307 0.04457341573500065 1.0553337180298275 0.3615472409884419
P 1.7318634699854938 5.409874731964934 2.364742829603666 0.712104044403651 1.692666225848543 0.14833671156659614
P 1.113484863550383 8.720001379129968 11.341020490600188 0.7466216185645465 -0.9432529034714723 -0.3730177035218866
P 4.67980899433722 5.918301644740671 5.703440407011712 0.07044462707480773 -0.5031288932193916 -0.7454311978008711
P 3.8935619843499807 6.421165776666651 12.40745811166189 0.1905015178601042 -0.936867825880735 0.11334836841686931
P 4.35071375357635 4.520824154806543 9.292237984816701 0.3303073091375537 0.10433305229213644 -0.7709277994100787
P 7.506048753520725 7.45785987455748 0.29731328204421126 -0.13058684378234287 -0.5340062995245384 0.4377220856788075
P 8.676315257009696 5.162495147160621 5.474086858768772 -0.041660870073895996 0.6845261347853824 0.3957989630824603
