# total energy = -340889.45031618106 ev
CRYSTAL
PRIMVEC
9.08751458038500 0.00000000000000 0.00000000000000

0.00000000000000 9.08751458038500 0.00000000000000

0.00000000000000 0.00000000000000 13.30049616844112

PRIMCOORD
 96 1
Ni 6.147540112395733 1.7747370938328177 11.410721462740323 0.3569645067137659 -0.5393138277803808 -0.3586339239963888
Ni 4.767019405807109 0.07969841258115044 5.870798936298252 -0.24479781730982353 0.4168115607783853 -0.18426813535588266
Ni 2.897408658612618 1.7209390068691102 4.695221678497284 0.00375303928452902 -1.1591438079389587 1.6650880591199582
Ni 3.622883131329965 4.398747873002338 4.8262581878156094 -0.5571680823529824 0.30386145624119926 0.5972119856487457
Ni 5.227056661949637 4.681714905413811 2.594448185132082 0.10129529390707714 -0.031043499569365893 0.1452123070050015
Ni 7.392647762591416 6.374764329699879 2.630226639217354 -1.3813269731730597 -1.15485212254214 -0.24547607432377078
Ni 5.088962788723201 4.876496695275315 11.573347081871916 -0.07236112737123022 -1.7533707428174514 -0.8301940412705637
Ni 5.603361557740205 7.946059232171797 12.480707252354449 -1.432569316287804 0.843774865278792 0.28860530141307716
Ni 1.6315542123800857 6.318267250873296 0.27827423982565264 1.0927448116884342 -0.04263248995854593 1.1838747350267351
Ni 2.4336182589031967 1.574657282907151 0.1590424120893981 1.5736385476587091 0.5606956358902666 1.2140769696417284
Ni 0.749142904726971 9.22019240428675 4.79391117927721 0.42759888120187645 0.5440973652119533 -0.5824564246061259
Ni 8.681466358445112 2.374140475258355 1.1054280056558754 -0.49370194347853674 -0.21594309786166035 1.1825971538658924
Ni 7.078619604970155 0.5470911031136144 4.735163123061961 -0.6211898366205817 0.43728859768581463 -0.01340316077978337
Ni 0.9332332335559074 7.206290098847371 2.374870202687947 -1.01584928678196 -0.3100218194156402 0.9923810284566911
Ni 7.642045515738712 4.002577670099834 3.5807861282808635 0.7283832411796488 -0.426548328450175 0.24619649742956312
Ni 7.241367905550058 3.659651215764958 12.51399845366912 0.9967655306776317 0.8607567445487692 -0.09087564123564994
Ni 8.300981205897228 8.814325823210213 6.96295644425259 -0.45597229013824697 1.545183634752126 0.3111633892192512
Ni 6.921887239114907 0.5294576896094965 0.5551789911875502 0.17687827064971473 0.6638410956322052 -0.31410550256671066
Ni 1.7700661112822527 6.3320166605989865 9.554145846616905 1.2010682160868864 0.8081671433775114 -1.4273276082728903
Ni 0.005357998661115187 4.835039453260378 1.5232655698333066 0.1562071154536084 -0.7228941930406195 0.39023535295175377
Ni 6.384433445329842 1.7972014301460415 6.714290236037825 0.7147921327587754 0.662814968360536 0.3223273762558707
Ni 3.578099858938554 4.331363951577356 0.68759407648432 -0.15339792813958744 0.17439432788559642 -0.24740388747410294
Ni 5.928222032871727 5.312370249857623 4.855226458392334 0.3828868830064825 2.0129953407274623 0.1930260840541708
Ni 5.126812287406282 2.894246203500562 9.297458997936907 0.2514022100002186 0.09427875337992796 -0.14248359521992882
P -0.17191760290192862 5.341868322540765 12.713305825846152 -0.18148054530841648 1.0482356735324658 -0.9901333700730948
P 3.9140198394475822 6.136962245296787 12.77967558063175 -0.38274444389134726 1.5652806626123172 1.2129197161088336
P 2.281711363348242 8.505586599138425 1.527628485635887 2.0752612886462196 -0.11302749474234083 -1.1244675967130118
P 6.6501523748600455 7.834800789824387 6.024872295355259 -1.4785810071312278 0.2464127272054272 -1.6761417458309587
P 4.560151221408151 0.9864497195794666 12.639674238071922 -0.7594642788551694 -0.2043278822202352 -0.6107305889604708
P 4.06181917836274 6.122858422498194 8.426289854706564 -1.9092788389734023 0.5140506823382179 -0.7356327236532105
P 4.892981446922641 1.087330220151108 3.7739630630481464 -0.021081760370963692 -1.0888958702559892 -0.41281092425942456
P -0.054356060365662116 5.646381852281791 3.660043796399558 2.7553723250830418 -0.3969495317471357 1.3839700672228616
Ni 1.668122371491903 1.100325366157544 2.639404120302599 -0.2423915218611761 1.2651887007158793 -0.1726045829750253
Ni 1.808987936698732 6.634067473859072 4.838308232294304 0.6757938971187071 -0.30954050890384754 -0.114079590155939
Ni 5.90983799065423 6.10780041065717 9.41480971013237 1.572106684395215 -1.9205122457953765 1.063146272095711
Ni 8.502524106687956 2.4632162942479257 10.590945850086761 -0.1120468759966264 0.4306860047676324 -0.7810150084427517
Ni 2.4611716034427173 5.123604394720777 7.003030566531738 -0.3115446838180699 0.4673460791928274 1.1177948126785267
Ni 0.8319565173437903 0.30404279648009336 8.762885946308513 -1.1293928019287711 -1.0018362603323199 1.4875225325952315
Ni 1.3909259109084624 0.9271809487724902 11.431324676045072 -0.5091617296770328 1.7935581136696144 -0.10212627444880477
Ni 4.131574941121764 6.797615475731681 1.666405739966997 -1.1570352462363882 1.2686216376568282 0.004193726366373422
Ni 5.680805357926811 7.885581821911075 8.065833584535033 -0.46578259136044947 1.4515918801368934 -0.9402789084448129
Ni 5.44255798530392 2.961611949896164 4.686017843619439 -0.35324566310128197 -1.0044649562044186 -0.17734929674886232
Ni 0.8515210277194939 7.2306537257307655 7.1065482638663635 1.67350173710495 0.30489401127077165 -0.3842490534613318
Ni 5.453690190798945 4.92695966434786 7.240949879874327 0.025961457060768193 -0.4019603546981659 -0.17531324015544003
Ni 8.600705615396723 7.099675376506456 9.23819204463287 -0.9237125194456995 0.4674800336675303 0.9081851132340617
Ni 4.3777193640101055 0.012167273418193902 10.172020510400959 1.0022761760832157 2.083751842615734 0.9968874009674766
Ni 8.59637995840437 7.375172471842901 4.878475955974757 -1.8122598038441757 -1.2050593395241505 0.45881952977905494
Ni 7.58204065624186 6.394647811841194 7.191564690043994 -0.6034818778178574 -1.543806294788625 -0.07050067712372374
Ni 2.251977015283166 5.034074199996716 2.8657250386465765 1.2651601614707888 2.5701307700702962 -1.3209453867612089
Ni 2.4131622633364223 5.1151530060592485 11.695153402519797 -0.21103846147119137 -0.5810572302657542 -0.6450998104689599
Ni 1.1781599294758134 3.3624985729226826 3.694559085942946 -1.6282901735653186 -1.5171475545505162 0.8753726946897312
Ni 3.7889756373157217 2.867856060841338 2.8916208205066747 -0.3684030875680107 -0.45892828744277736 -1.778992042929981
Ni 0.7822696220257552 3.307909872180961 8.524886662836655 0.7842705392655719 0.36484288102057816 -0.7622600964327517
Ni 3.987737758611365 2.9588766079745294 6.889098577362584 -0.5938065595116224 0.37826995305976147 -0.12312550240829118
Ni 4.067426174926356 6.875531826682159 6.121779734504512 -0.017313551577783085 -0.46617776991633914 -0.06343991362220042
Ni 0.8211932649451728 7.29787407189133 11.66401685093808 -0.94534372456223 0.35717816538646874 -0.8964032901077853
P 0.26138509377463065 5.407416565998403 8.034789725603154 0.4533032279465161 -0.668107841328359 0.7943945150734512
P 8.46050343876225 1.7730377285858223 7.831199407752813 -0.40800141868592316 -0.5511349887850249 -0.02966153162017472
P 1.7004557487582663 3.2122274300118945 10.57501180182964 -0.09692081898846534 -1.201769098808653 0.4658394127403138
P 4.083120312795668 6.202410526092838 3.8134919344459055 -0.9699674366481812 0.6463120856095063 0.2114974033854809
P 6.751450901107418 4.1148811766365725 10.237577841373287 0.15768807087450906 -0.34555472221492745 1.1559823794918413
P 6.31711313650769 8.026283811853489 10.37905590507021 0.7420692233071736 0.2699275224979158 -0.6289052029869685
P 2.485471617723284 8.652849774686883 6.037467590715343 0.26964495826049045 -1.0969377667238593 -0.8596347151291841
P 6.934146296431468 3.9458806659500754 1.4510843494035717 0.3132454685592605 0.45961348643526 -0.6457852665717587
Ni 5.350528724040159 2.7244096414626013 0.3698800229048683 -0.4268488904097294 0.14022719508558432 0.17438275792137065
Ni 1.4433699581833872 1.2395370036908269 6.868163669771656 0.7334948513746014 2.077035092717191 -0.8256095072236748
Ni 6.692082167638853 0.9589236375840158 8.94721709427673 -0.16136809082925757 -0.3569717058026175 0.7868745525473223
Ni 2.728862523660611 1.8709193493098244 9.073558993506296 0.5810952825925412 -0.9294301386557671 0.19926589431629554
Ni 6.49035751655433 2.132167221612639 2.534516025752749 0.27697851580742616 -1.36339224307151 0.1891097797189001
Ni 3.8353673998072293 6.922841428157337 10.735162890711194 -0.12079582583385003 -0.48398291641856 -0.46993543718655845
Ni 8.14832004662302 7.224328815506655 0.44571715049431615 0.3678140478337601 -0.03411802472963157 -0.4271096002702837
Ni 7.49245593642966 3.7558062086978956 8.219201752452111 -0.12478643505048186 0.33524485564848716 -0.6893811488848386
Ni 2.849599243829499 8.404587960875816 12.650434764216133 1.1006095591484917 -0.6059208262766532 0.039339678139887084
Ni 9.37840603503644 4.856794963427796 10.544274192142808 -1.8966302969714561 0.12697727205421358 0.0823244092315292
Ni 8.803956968949135 2.3624084937938035 5.454507158369559 -0.59316584060383 -0.8908599916920529 0.4876917327287149
Ni 3.6448294793058693 2.8884756316725295 11.55560461819152 0.20102350043735057 -0.9788164023983787 0.13834540468183917
Ni 0.921437639488527 3.326412052089425 12.69476547837599 -0.05223941692069067 0.5954196696350132 -0.3086730186972297
Ni 3.1760863840904983 8.462784404949394 8.288151452658148 -0.35787930521855144 -0.7999398703717125 -1.502885131094231
Ni 5.679315005517681 7.718698702147305 3.8120815521660463 -0.10356532088817648 0.6665217277881618 0.2989370223563884
Ni 3.145824960173413 8.408541029765885 3.607547041539432 0.7031455496587825 -0.09957908254691883 0.3475735524171691
Ni 3.153512997600997 4.24747710347567 9.388567693962589 0.7907162948909155 0.9969907593145605 -0.6468000809895184
Ni 7.002811557427713 6.247057485763901 11.682384535629135 2.1241482441549095 -0.5030216782175659 -1.057431995319753
Ni 0.5248784909572985 0.18015361746530834 0.521064461041983 -0.6199307674025001 -1.3433263255595704 0.13756378932080823
Ni 4.595919679227263 0.49006149592620857 1.5224549635229752 -0.6279119858357638 -0.7292661580052344 0.6486278782268765
Ni 5.905494158632498 5.77294366936685 0.5146841169782636 0.8515344546195528 -0.6188362487867407 -0.4040545182230331
Ni 8.246974106095657 9.056626227384763 10.63300195931976 -0.336474357180214 -0.32500852263245966 0.1972468070037377
Ni 0.2355520157658923 4.6104324401869 5.852164987426785 -0.7911646952822439 1.527058900126957 -0.11035611855776478
Ni 8.064833049167685 8.613364523359635 2.8494056797666056 0.07419612369743996 0.7130106153783204 -1.3437387305066406
P 8.666481046721607 1.5405881903350331 3.3479739981939507 -0.3523738020192899 0.4952636315387019 0.19588026567351427
P 1.9488720503190613 3.228357768586317 1.5906458562524124 -0.8493063366199826 -0.3818157614294908 -0.637193925358322
P 4.538868262004603 1.1756426879067345 7.862269620477292 0.8541821766550449 -0.7420705088587543 1.5066775082571278
P 8.432477543458859 1.2319761914689003 12.386379758625635 -0.7716374238825936 1.0445757081823754 0.1783114035518155
P 6.218804402593266 7.798596131300162 1.4454846228517073 0.11401942634196492 0.108537063071155 0.6784305634106058
P 2.013202566808265 3.3657428156669464 5.86212762978123 -0.4135904827379264 -1.347048254495848 0.16782798752198838
P 7.031155515745247 3.749472210959094 5.773918759693068 0.9651895556435635 0.18024101647436055 1.6924947332676852
P 2.098570679804391 8.520844536302624 10.233534806087789 0.9515938192369998 -1.9230720361027525 0.06605652530944106
