# total energy = -340865.084982927 ev
CRYSTAL
PRIMVEC
9.34500034987457 0.00000000000000 0.00000000000000
0.00000000000000 9.34500034987457 0.00000000000000
0.00000000000000 0.00000000000000 13.67735261915426
PRIMCOORD
 96 1
Ni 8.214040195373814 2.3367733570894282 6.742196130512602 1.3054524333319324 -0.28517082181023146 0.671322748721231
Ni 2.843291055128912 7.548937844817263 11.01669732085778 -1.0307012641931281 -0.19421933303132358 1.823299349487789
Ni 2.7873238492405967 7.365327281902983 6.555540966549999 0.6854334770910002 -0.9711195479747533 1.442637242046767
Ni 0.14806778935014217 1.307253380748816 4.755533203980151 -0.2430268414523299 0.3896401425699161 -0.34695468788624767
Ni 0.9913830307352999 0.9618247952661496 9.369410223211926 -1.418849138488234 1.3793996742433599 0.22552122846839873
Ni 2.9028373960740357 9.136027255007656 9.141792185599158 2.63103017665883 -0.36125079279394556 -0.4464581800002247
Ni 0.5451312386523607 3.061450083591547 10.81488737015464 -0.5783246618259394 -0.6697057819430983 0.9867531407469522
Ni 8.587877581307387 7.308322780998203 7.435555892517656 0.8737179326951275 0.9821914895181989 -2.1043780035065174
Ni 1.6041720704615299 8.943931431958697 5.384704963466408 -0.2139463791466057 0.37785960499522026 -0.05849491091209926
Ni 2.2247268053110174 4.8521390120134855 1.102254915995066 -1.112091334535846 0.14414144253832598 0.5991513687633035
Ni 6.314388565222411 7.5317150095439 4.861983969669746 1.1508085486003858 0.35929469750883924 1.2101334116129483
Ni 8.14812990932768 5.880705798338968 4.3885840176559086 -0.5016268547525683 0.3592725860216522 0.22212325853044326
Ni 3.7879584301227376 2.7189184481548616 11.843957851988117 -1.2783440071509145 0.8052463701862907 -0.8797947350168266
Ni 5.57784368853192 8.485204064677744 0.5629568264352897 -0.37423897752349744 0.7182217272656147 0.39512507694388727
Ni 3.63043910762258 0.9317338947885447 2.741994991521134 -0.11674428147229572 -0.32684840405467586 -0.44744908315858417
Ni 5.523782862673864 1.5054234538941849 12.879087631917766 -0.9931659862518315 -2.0791660230172644 0.7324957206861256
Ni 2.5205054050056357 1.1229045628228187 0.5731428765969633 0.4691815897396694 -0.3383101248373722 -0.9659696283426975
Ni 0.9763936504973875 7.2593643252211315 1.2450072692608412 0.8128079845836325 -0.6959132935764014 1.2506506550007044
Ni 5.051972495185256 3.658231138063697 8.237718556749638 1.1224395105393894 -0.0460433154123078 0.21730141166176767
Ni 8.563898310926785 3.69435890863712 1.7186006627777486 0.7616913684134753 -0.091049704919669 0.056451912340141484
Ni 6.792319907808171 8.825371415076905 11.753276774048821 -0.4997679471669587 0.5225268381300291 0.3218846322914973
Ni 1.0106711110414417 7.769573298319204 9.245534770245765 -0.7580190617682108 -0.2559646325599204 0.895403130978045
Ni 9.102889884481696 0.36202343674606097 11.30635587995526 -1.2300432631629976 1.108310013116543 0.43670007217219625
Ni 6.9445686502246735 -0.013142808208603559 6.881923507230365 1.1025594837860109 -0.12440256934850188 -0.5812387501489409
P 5.615868494135452 9.191041270880842 9.776954090180489 0.2738679952029025 -0.6174074867600141 -1.0028289632628922
P 3.4571547698721994 2.777287319081296 9.494872457203272 0.002392925712208782 -0.5596383982703458 -0.24470885714044308
P 8.327927712181443 2.091121338190422 8.967637828334967 -0.020192930008107162 -1.0424915719598369 0.33522325838193234
P 2.523084625046573 1.6535884312458697 4.631985760519198 -0.4872201924089351 0.461560839969618 0.21229290270358275
P 6.183530528145424 2.043246902430556 6.3520358328199515 -1.037819106184832 0.5496098103897502 -0.7577771209607336
P 5.046309425095371 7.899515525381656 2.7421454460235215 0.7629779484353828 -0.45252829745370454 0.655207074106291
P 5.904591618718086 4.814291761412771 10.310548926149744 -0.5049168383577497 0.34967260103804293 -1.2129197161088336
P 4.70074066461048 1.9522733259866172 1.0815622821666313 -0.6992564990170215 -0.3136339622469308 0.5776116949193149
Ni 5.653426049731568 5.6416793845451245 3.9098349875571707 -0.057368253506823785 -1.3672244723334066 -0.5705768995597206
Ni 4.134209375618457 5.105967906042276 11.319390286162143 1.6149962846698898 0.719965963650231 -1.0044955523320378
Ni 7.1379353932938026 9.284902452370613 3.548834828327351 -0.0020316857180481137 -0.5044067314905507 -0.44401280378352564
Ni 8.980825492544282 5.588796028705756 13.661431419835182 -0.28647539955426793 1.2935171153469274 4.117470789043792
Ni 2.6149179415041583 4.064224669507654 3.7501111795220234 -0.1781476242804416 0.10441558470361371 0.013566940051157281
Ni 6.073941711406022 2.2370622055068057 10.186564136681849 -0.06320002969725244 -0.505996958795806 0.3741417898240008
Ni 7.342161026535287 5.0481877701251845 7.984085907723962 0.20566305609189098 1.0964176325543311 -1.7588001413631387
Ni 3.092428759083243 4.689732254435754 7.486093653319795 -0.9829155121684169 0.7027549990885832 0.743359659983823
Ni 8.273259461313746 3.538587101164699 12.75755029798872 0.05194271161587829 -0.1762321524252836 0.12979982910467325
Ni 6.558199619092197 7.273082785438873 8.56027151636922 -0.6993899392710923 -0.24833308415659164 -1.1505727784404958
Ni 1.3744439318152688 2.739309238478505 2.1305077103155656 -0.09754611127729007 -0.9695141511608464 -0.08497650214239559
Ni 6.760434767302087 4.851933422010222 0.700543263619071 -0.6602490074055726 0.2904755218525965 0.5528537712483446
Ni 7.922513570746682 8.890113576104497 9.372337077258381 0.295703088800123 1.4764647321191733 0.19663257045850652
Ni 1.8589448095053003 1.1964403689899843 11.714898727439682 0.3514883140905431 0.2038208606768296 0.931223483110764
Ni 6.8762753891407185 1.29429186554309 1.5122088585018834 -2.1544682352946896 0.47388413742166124 -0.41729621372428777
Ni 7.04308364178831 6.085875276595433 12.04401654966346 -0.8559258988190291 -2.0589985469304537 0.2636990250897007
Ni 5.052822890198754 5.857175087965487 6.562886136666582 1.2689705363558146 0.8988278403888778 1.056354188874542
Ni 8.647807067258592 8.96271488225683 1.3303084306147475 -2.0723744540167277 -0.5949676696992593 1.3406189539307363
Ni 1.3626038166273418 0.14644269382434855 2.681294543057692 -0.24045599540136003 0.08496338951627302 0.03131912182825574
Ni 4.9768013139921345 1.1315673779603155 7.851100948613216 -0.7531162251499546 -0.6612147137529516 0.9029084382161545
Ni 5.056598270258677 7.039411056730018 12.247494582893081 -1.2027887983224188 1.0455933508136122 0.4298899912288983
Ni 2.494535649593442 1.8361803891439819 7.483659280781157 0.3738227159216852 -1.0884986348175705 1.4042591564892006
Ni 8.708960748229227 7.381008192151871 11.385219270706985 1.603646149764393 2.0612708879043984 -0.12205952303762205
Ni 7.016936331373298 4.072186609634027 5.742285787141957 -1.5758409546266667 1.0521062122314655 -0.5051963172713816
P 0.7500044804041229 5.544136272996914 2.9145074322592635 0.6169233480347439 1.0047333793744568 -0.8602324966141831
P 8.446992359071245 1.6577936813126157 2.874747260128187 3.119198849023964 -0.6477380194227554 -1.3203085245081585
P 3.6090484022830656 8.638873247116793 12.880633294942301 -0.18398351423592832 0.5838031684420074 0.9916950581332598
P 3.853074391156263 5.283214523855546 5.013706588577897 -1.9588448228269877 -0.17916038181567207 0.05316115740401167
P 2.7673068589228853 6.382420166302213 9.127253234368395 -0.6953047134581251 -0.1320017218519985 -1.482242515143215
P 5.142675066624895 8.213675740368028 6.7812582311325995 -0.79385201230642 -0.8810594606618632 0.3488107672583799
P 1.37700446185591 9.115935504688759 7.636024835699514 0.4485428304433952 -0.25268441914675194 -2.2645878123616163
P 7.386998337246947 7.541751539703201 13.656562674757906 1.0200535546712948 -0.3508853903992215 0.29304611079325016
Ni 9.15959534538173 5.245778453261358 11.66973621072286 2.548476425025314 -1.1858660544251511 -4.957075067884662
Ni 0.9402004649229267 5.661995414867582 8.014189891201775 -0.749430034547619 -0.048215383362962126 -0.2628729296439795
Ni 4.674144794188348 6.932448185032296 9.695998353895556 0.7264402585206651 0.25525063721203134 0.5999455825298249
Ni 1.236810769630746 5.764042816487286 5.423836217087503 1.2662181704216582 0.9323100313067234 0.18872205736217823
Ni 9.170996245562685 7.719988727532194 3.273647001959551 0.3314177685929131 -0.44921285992722637 0.9090256068574861
Ni 4.681985249312793 3.133107544728899 2.8770311781644375 1.100040574018899 0.8364310233192109 0.10348973045523467
Ni 3.2875990871809995 8.083126088295934 1.5337780533442311 -0.6488245676187148 0.6538122506412934 -0.4749591156533949
Ni 2.42767217353218 4.679648999275712 12.410542407480985 -3.3785887052153494 -0.733530332598227 2.2816180283710255
Ni 2.2663120559710617 7.062586657097863 3.7651837302612563 0.46259313788887424 -0.11261714667779961 -0.9878499733555568
Ni 2.211344765098617 4.558846182358321 10.091000296165054 -0.2537249445961243 -0.6927510937983359 -0.8469275519751609
Ni 7.055531181985877 6.8257469733387275 2.271329386550697 -0.5186701833881003 0.7151500303188264 -0.8259571203710807
Ni 1.1523786932906341 3.2635637467995093 6.356877477396798 1.9942216596643847 -0.6369339868287159 -2.358998720444034
Ni 7.7274740726510025 4.015116693728209 9.863381324052268 2.082890008836071 -0.6321684471192726 1.9389478267927447
Ni 8.758975189023058 1.6204697507202077 0.21943555548289628 1.3058463263362414 -0.20758829813906182 -0.5033026997930945
Ni 4.195811616596211 5.780284426745073 1.8907430415100042 0.8685271325228073 0.003971325942922193 0.20323002117036615
Ni 0.19668048012172615 3.9787833331515237 4.176816969294728 -0.8255146335170235 -2.4456868059608974 -1.1918574961218957
Ni 3.861083056283377 3.1308740896934495 5.991173045092312 0.6223008102965735 -0.048463494818026205 -1.1081765728624722
Ni 5.864922093088449 3.701909668756966 12.42188069616095 0.8676357310567896 0.8459271357351045 -1.2229922698534872
Ni 6.899563129510342 2.2971599014606805 4.075386337684813 -0.7199142844766893 0.3491632655017922 1.259186203275541
Ni 4.175177856268712 8.243233975837178 4.8148113434210185 -1.141199821866028 0.5426655178614332 -0.8026343864847403
Ni 0.6576095294376239 8.920699761589962 13.339494295725375 1.8160429250356915 -0.3068647618438973 -1.6361243248977562
Ni 4.036890544073805 0.5529287067761226 11.140395218821121 0.6832668084569845 -1.109976087965056 -0.17451311285164783
Ni 4.763922210613302 1.2896100204687795 4.697527853559486 0.7210699953476872 -0.4326930078953322 1.0641950250751995
Ni 0.7158886883626346 3.3411459380308988 8.494921930331987 -0.13193564450075343 -0.4347424342251932 1.0171929452940482
P 8.537227680503467 6.50257817820937 9.452896585537028 -0.4813351943830678 -0.933245141526483 -0.09805107593816663
P 1.5688573149010117 6.598112114725691 12.99768409430014 -0.6526585966528243 0.24545576260879665 -0.9375435117915208
P 6.838474863540744 4.080354139763663 2.8898057933671972 -0.9600722890216563 1.6610213452497524 0.018403185097536048
P 9.032867798370301 4.629204688475056 6.159226051759662 -2.8684712964932664 0.9796756650748807 2.16846069291904
P 4.70470294467337 5.088006815757196 13.54747194652641 -1.10401729927846 0.9722318072023255 0.09310144524237515
P 1.2206532643742927 2.893866195931644 13.496250131713415 0.737177442432511 0.07160753703465732 -0.40174746735641126
P 7.3575055167788355 1.7527856078203343 12.011806203152217 1.8401801844035277 -0.6723879567609518 -0.38391583849162914
P 8.388614143144663 8.27540881134786 5.209032978178131 0.14727458885066894 0.4620871447867333 0.9222109951995086
