# total energy = -340890.4728885576 ev
CRYSTAL
PRIMVEC
9.08074824884341 0.00000000000000 0.00000000000000
0.00000000000000 9.08074824884341 0.00000000000000
0.00000000000000 0.00000000000000 13.29059295828103
PRIMCOORD
 96 1
Ni 6.418045738979835 1.6848783256245259 11.450762514162385 0.55352817160755 1.0199355410361919 0.38808796759144776
Ni 4.467237705221851 0.38882855293039165 5.921238010382209 0.1404331404488033 -0.09228589131961526 -0.22727137839028602
Ni 2.5597720821492347 1.5318495586289644 4.740515554718518 -0.027138250977688745 0.40993334560131334 0.5894071448923461
Ni 3.3937389069834025 4.342840536988276 5.008174237290378 -0.5310893829880595 0.6043493680244753 -0.16618865214635248
Ni 4.813768133498473 4.395817621408648 2.64922743976554 1.8117548391832992 1.0031974023459045 -0.267578562649765
Ni 6.9195118913531966 6.037444343828815 2.804234901772278 0.7771048747550681 0.371560916470702 -1.931303422873609
Ni 5.438133130668769 4.531229737088557 11.750731406551887 -0.9729771700087825 0.07601800739752715 0.12671990462776886
Ni 5.613128227320293 8.008538768844103 12.61617482852804 -0.3309313158747978 -0.01029161173399518 -0.024629111402589842
Ni 2.0525759777242345 6.415030930610352 0.3835235798898738 -0.5358119852747095 0.2623203995746192 0.3716822725399147
Ni 2.706725828665326 1.6163368389592934 0.20128477047830062 0.5335273030055909 0.22808384698925235 1.115136292009757
Ni 0.6546946958271431 8.953590385195996 4.8063836691428605 -0.7802706740775595 0.7356226963508814 -0.5855448337234626
Ni 8.884794637583939 2.2154755179054226 1.1268136864881715 0.20967037747907116 0.5820170230758622 1.6547090298784792
Ni 6.877386300913344 0.843077539403753 4.770193255661724 -0.8328775016399979 -0.5694949793494514 -0.5215451909430502
Ni 1.0277318278101528 7.450653928520145 2.8548055879459238 -0.030816728270540477 -0.12518367048890053 -1.1919677964475148
Ni 7.535549842515012 3.938756327248453 3.6410113100688495 1.194586979237917 0.10751607800580837 1.7225478438993238
Ni 7.809334397755707 3.644204101101109 12.64613221651275 -0.6331102422072515 0.5489747479089127 -0.3173476636530922
Ni 8.094142981190837 8.919283318870976 6.745547459611121 0.3635617003153093 -0.9982706544682485 -0.2631428954759146
Ni 7.159025703261276 0.7541633943742583 0.6746196733100331 -1.112311420966452 -0.6209355545179306 -1.7571955158801802
Ni 1.8151961416198563 6.48438968460466 9.16811670255496 0.696092242356427 0.6040012406564372 0.15324366194991026
Ni 9.282431516172158 4.770180542614382 1.5005609329726677 -1.0878687145430554 0.3133056323732346 0.028215286091951404
Ni 6.698005202929108 1.7608660257324575 6.887437780986177 -2.192624691759753 1.189033139299223 1.1579945248258636
Ni 3.4484322527948357 4.244559600292752 0.4155631834141107 -0.0900325765090643 -0.027838362368506897 0.0884559760505638
Ni 5.696416848901309 5.464013262756199 4.742202757715656 0.9598424323990372 -0.03299265287593672 1.152000769136274
Ni 5.25858857921872 3.0263409195710227 8.808912274153979 0.8153135246143056 -1.7696142012595073 1.6480303323067231
P 0.167597011173759 5.421660653613824 12.479707529918812 -0.3844022912097444 1.756136992708679 0.4500523251093862
P 4.00841474593009 6.045844035822103 12.636681881964194 0.6674727788475214 0.8572525880502527 0.03172587034837117
P 2.546096475509352 8.494840071889042 1.3514541410818641 -0.6513653317626975 -1.0316394597366816 0.3593615461910327
P 6.241216331211938 8.1928507130471 5.910871428350276 -0.001580714223558568 -1.6883462583169504 -0.027041320388508268
P 4.72721044260115 1.1980775814340396 12.760404350613875 0.012982785412913124 -0.8831788209977113 -1.4808734027098303
P 4.204867650343927 6.2965998138790376 8.339302294193216 -0.4307325417348517 -1.1594122311089967 0.0005476449733538954
P 4.864938149046775 1.1744494748756222 3.6518428264035463 -0.8057294804702962 -1.5962539710653798 0.32280817254703115
P -0.06711671728820892 5.818344053651453 3.847493900760078 0.8782767557104036 -1.37600530384983 -1.6540006909575449
Ni 1.6655998974064168 1.0309827356302579 2.476342708972655 -1.3976743041828315 0.3108502288542066 0.5057488473407419
Ni 1.8592014469165863 6.55247713386485 4.996332941766867 0.507186865338849 -0.4487408053868142 -0.2400145369885673
Ni 6.266333680458897 5.6663777341836905 9.399213569048356 -1.6185868302346254 -0.30783535328728273 -1.205240602297021
Ni 8.609638889380015 2.529851017156927 10.10673824117664 0.3914131753099388 -0.3717475785602114 0.9540505083076085
Ni 2.0927673688186066 5.076365207078918 7.144145081348409 0.9677303197875463 0.7910960468278375 -0.7860312307104206
Ni 0.5008713633727568 -0.16180621810984555 9.48832658246126 -0.5676165313798159 0.7415776283827358 -0.6233971286845458
Ni 1.6389024979899112 1.4041833210790828 11.385213133996384 -0.5797775922223821 -0.12830139018227582 -0.2823284672654299
Ni 4.473612390388649 6.541843577838754 1.5817400967698567 -0.40779907286712996 0.9783428051960699 -0.36363343409350923
Ni 5.659703384329564 8.133626073933343 8.006120565624846 -0.6053952927904864 -0.2892164526345148 0.07825898091290392
Ni 5.287183854988303 2.987175653012047 4.761621029454519 0.5639727639796417 -0.5344184473612925 0.537706631194261
Ni 0.898710742643624 7.475980134973422 7.201520880148833 0.17540734253114307 0.5963113282113472 -0.6548651173858399
Ni 4.9284125782717325 4.467165059237044 7.19700229989385 0.3920109567949378 1.509417790006426 -1.5490199777790807
Ni 7.85741695894972 7.463639398304363 8.898025287566881 0.5201737645168203 0.08533928479845303 0.4861439286256208
Ni 4.5699772892348935 0.5340969125989651 10.411039558485058 -0.8809285915109538 -0.6778628638325939 -0.06474449136623689
Ni 7.886611564093959 7.348023313484313 4.671549997116975 -0.3102030821885109 0.4656293536120368 1.1833180911923171
Ni 6.809870938783508 6.1817737541437605 7.058939513843303 0.2593785433374759 -0.3037005051833027 -1.0669486765609366
Ni 2.320103897523442 5.115321616431574 2.6147778056953372 0.9072474319111408 0.6951046816321771 0.24786000117491505
Ni 2.402475363546273 5.433792533076562 11.260773286246735 0.4121766331095353 -0.35221413651297406 0.530882409183576
Ni 0.9390310803610282 3.60830790385844 3.8505904358624683 -0.5264423711343514 -0.7308838961143155 0.037651748914502896
Ni 3.5154118507867222 2.6668613445025855 2.8532645849932092 -0.8186163637352932 -0.5774597427224829 -0.6187472886173602
Ni 0.8880281505777816 3.3208114189854587 8.014666457662559 -0.15124308658011373 -0.6770383110487695 0.9291956540474577
Ni 3.505323139646675 2.5290155883316485 6.886985559730755 0.46607235468672636 0.796769443063531 0.15101477261939153
Ni 4.2621126863717 6.78389999921507 6.267072853354306 -0.361681452573461 0.8500753535755232 -0.9796116446061646
Ni 0.6709256249826064 7.45028161784801 11.376800728955754 0.9552111042746131 -1.3778894082464204 0.587327379545182
P -0.13753791881031793 5.784091471815038 8.005069923069577 0.30986318235058896 -0.7728108753654045 1.2983687870122738
P 8.603809049099269 1.3031145947165974 8.168956540569328 0.8086862491057749 1.8640675325440865 -0.1153214329828401
P 1.9150843707292309 3.373879310886839 10.196143654678389 -1.4928889391134677 -0.18625636943050503 0.9254161324003675
P 3.950724753245376 6.203349611631385 3.798743904580653 -1.2957328920513234 0.2721150170675378 -0.10995759756776546
P 6.724947782544337 3.7955256874537104 10.33061863715429 1.2554956417978314 -1.3461100589522947 -0.22400659159608516
P 6.1633307547509295 7.942058611997764 10.381906702427903 2.3439855348646534 1.2143757318290698 -0.15080805592522414
P 2.419883157655607 8.503820931760785 5.899042845874106 0.9897250788910827 -0.6550427806142848 0.16442384693644585
P 6.943103674919212 3.9479278828303133 1.585089076669451 0.08836547321928652 0.5641221450733123 -0.9206889021280273
Ni 5.2607134742743185 2.79008709623115 0.746274948499048 0.4526460539784914 -0.026940018923953604 -0.06532401801879073
Ni 1.6017531575093247 0.9980287007722651 7.080536257051559 -1.6064681925942206 -0.3565384749199408 -0.9754950513346295
Ni 6.7703606037967 0.7583895745403949 9.131128999390567 -0.022291721518664834 0.4313753175251732 1.3413411768087415
Ni 2.4312522542778736 1.5161126221701873 9.06561957451621 1.4223319548305116 0.2994376161418908 1.2803877770538208
Ni 6.620591825369343 2.018877321521972 2.68790234592707 0.09577127876505442 -0.48001030492405716 -0.7726710073534306
Ni 4.42503038804909 6.848082726791894 10.472827692787687 -1.981552034616516 0.026691650358573384 0.701825031075146
Ni 8.54947893321187 7.104695587373876 0.49898620006701994 -0.861963877482993 -0.28167849238625686 0.16231271413071402
Ni 7.592586021336465 3.881284272518159 8.281833871762162 0.01842786768788439 0.4100120213580487 -0.926788844378178
Ni 3.120135966704725 8.37580054503497 12.419035419557778 0.51378688715387 -0.06303573620524627 0.18485151866317842
Ni 0.2208683118325985 5.1766802313490325 10.25868912337263 -0.8448097343012094 -1.683516955249107 -0.898172723303382
Ni 8.755194200688576 2.354401883100361 6.047019992701164 0.6603101996608112 0.716056858403812 -1.1481474568284549
Ni 3.7297992326997425 2.8558771162218246 11.436435817883671 0.023326590541082406 -0.15395765729779937 -0.19836960775427126
Ni 1.3358052878796656 3.6552190485474427 12.564354631415716 -0.3225685457323993 -1.0867271447394444 0.18403339363725726
Ni 3.274018324021767 8.266241319198189 8.309571016836214 -0.8823830645692933 0.8471905758285604 -0.06288686933220783
Ni 5.59551157600464 7.812385529117593 3.71858814109443 -0.5998910751428056 0.9121111877613451 0.18521687242239712
Ni 3.1955879026747063 8.52624129882179 3.7206213205942107 0.4412072160139305 -0.5635022521011263 -0.5041424220855705
Ni 3.4271469792464386 4.381315666691587 9.175519328406773 0.182377346091073 0.7869429438914125 -0.08882955733989864
Ni 7.414321855368635 6.32806460604849 11.240319809224376 0.5127368486228008 -0.35805773977794464 1.7508495190574944
Ni 0.809930084611212 -0.09693789405140764 0.10387376945083857 -0.48562430867672496 0.6331493229753031 0.058628608276486124
Ni 4.627240486758867 0.1049961499161039 1.425296060413564 -0.08979089281190343 0.7121829772707026 0.5722697138811111
Ni 6.425809778606063 5.6371831290394505 0.1988883610544857 0.18685389380518788 0.6535248013078616 1.2513589939216383
Ni 7.888927154859677 8.680614016536277 11.696784498234345 -0.5321486774905093 1.5585394872337417 -0.15485805762488167
Ni 8.847790589072966 5.140911164579776 5.952231511725227 0.229096861634799 -1.0193506150669993 -0.4490531944209105
Ni 7.911429248653588 8.671515106939223 2.621476673569336 1.0363515205003702 0.6307288864592685 0.7129681921761591
P 8.562991086385939 1.7094235877411297 3.844556278749452 1.2380779605420162 -0.19181509446520512 -1.1607160375220849
P 1.7416330012548524 3.14202965037588 1.5993767257313316 0.671182880709257 0.554228282998368 -0.16919170063873443
P 4.580583603016688 1.111056772383573 8.13115792659953 0.3410275237685353 -0.671135058190457 0.3500500389821197
P 8.777759859719193 1.6927876572203684 12.378658781202148 -0.7239491166676952 -1.2768303987198655 -0.9551383420551487
P 6.353063905570136 7.846719837686916 1.46531400921921 0.9329792894596061 -1.2544116647050332 -0.6254262432994325
P 1.7065994750817646 3.241009804675169 5.847316180467222 -0.16587909132573364 0.1912211696349481 1.1729485750325348
P 6.908015664257518 3.9672426340408267 5.991718236766974 -0.694636740856823 -0.40620678867934557 0.6107452442484901
P 2.320603338668989 8.55280248701678 10.43227761214333 1.373471738794699 -0.17486021177842143 -0.9716751633679072
