# total energy = -340854.36785639974 ev
CRYSTAL
PRIMVEC
9.41459332713479 0.00000000000000 0.00000000000000
0.00000000000000 9.41459332713479 0.00000000000000
0.00000000000000 0.00000000000000 13.77920897593486
PRIMCOORD
 96 1
Ni 0.39319201609688975 8.575169333414557 13.23874743717582 0.20646395472663154 0.9224112841357727 -0.5548569177213025
Ni 2.3908453834710013 1.3229763090788342 2.9382098380114603 1.8151425247086093 0.8775565897149272 -0.8598380893892418
Ni 1.6781794997454487 6.280804702095785 6.094599109944373 0.3367186119805362 0.5726317252062203 1.5149991407489456
Ni 4.481233436322736 6.213772797790177 12.060197579554996 -0.40672975106235115 1.0190533955415546 -0.7939402011448521
Ni 9.204412505896851 6.057161038222227 2.9489434158343286 -0.7184983779657691 -0.5423942664779176 0.22894799476176053
Ni 6.395389717166509 9.234454473121458 4.125261073383401 0.006684611109027196 0.2441190460752441 -2.2722764392551253
Ni 4.833037958807563 0.31112406482969623 11.885297972499178 0.1587411947293718 1.2669933580247856 -1.3627196424845176
Ni 4.906782468137034 6.971807606634932 9.901257165579485 -2.3230729530817027 0.6681682622526494 0.2442244613048568
Ni 3.7148290540330797 0.518198044492878 7.321968341129344 -0.11884667252727918 -1.1059823934246307 0.8202233032110969
Ni 2.4627069741402017 7.182534448499037 0.051157017080872794 -0.07856854173352275 1.5566970347083642 0.4257435731606926
Ni 2.3851307253370826 7.562968749213269 10.861682193920004 1.2874441696799697 -1.328485661002312 -0.025585304668272066
Ni 8.491200575759821 6.352007271233891 6.871567607377474 -0.22744749895683408 -0.882620634501396 -3.455567790974565
Ni 1.944188833475078 6.468126865012735 8.372164340976218 2.1955698904310057 1.6334848303923803 1.2223690344471916
Ni 5.962883300902514 0.43740012186203653 8.562097170615633 -1.9689723981792928 -0.7679046963130388 -1.1837412947726644
Ni 2.9375131581071603 4.388659740390566 6.474988220610758 1.123368450111562 3.2583474663333885 -2.4070729502434416
Ni 0.6716502665488937 0.16124468093154265 3.8432554041754488 -0.33211530888056995 -0.34480653119499327 -0.06375873041419988
Ni 7.2474386547185405 7.464558005434262 13.14058429720064 0.16179515106434716 0.5731726853113548 0.886945744239311
Ni 6.11145499779111 7.288994669550697 8.053272295213578 1.5226108916579326 1.247667146892348 -0.9028876122805483
Ni 2.1265495057222177 6.735021170512692 3.876711102931124 0.17052713162070632 -0.5369134458690044 -1.2231763608398352
Ni 8.028840484137246 3.106335645186959 13.26204761413733 2.068475633182954 -1.5512267556224124 -1.9506206351449824
Ni 3.547927143986757 2.286691737778172 12.672642293209694 -0.48113619099838423 -0.8403311297045657 0.07846209806264552
Ni 1.7791980858689287 5.398384286553599 12.704816665817056 0.9676454733832238 -1.7158616901283998 -1.5845937611186325
Ni 8.416900605425571 4.438999570772881 10.853937749470314 0.1243640028010826 -0.08267716458525762 0.016817842888287166
Ni 6.926589315008551 1.8501276318012956 11.172071920472195 -1.6235801696841587 0.5770499088785739 -0.631209425640113
P 4.70681650641637 3.6409339112107877 11.388970969704665 1.2380504497381903 0.8687742155366069 0.6607547433973975
P 1.2870031480743778 5.165806173637062 9.89423011313936 -1.892167376104096 -0.7651842120580822 2.019676866512696
P 1.994105007158833 8.345895742746793 2.0150713064409382 0.032838386686259574 0.09268132698582103 0.8183463979033584
P 2.153663534430104 1.9072177255806788 0.6234804999225391 3.600213683953135 3.6483267374102777 -1.5386172943885177
P 4.954119043256219 8.130706383657847 13.121664730502248 0.17558783397306532 -2.3888813669360793 0.5145119382453527
P 4.094754966709038 6.3728135224298725 7.771529293158733 0.06127992985640414 -1.3579913837709128 2.210856384276431
P 5.776954497794163 9.10834599584988 5.976635197337795 -3.4524927515936668 1.1546834581747596 4.128772844320173
P 0.2021953374144225 6.482107536065239 13.318845855524371 -1.9274866202306804 0.052043498859800696 0.7419571232093415
Ni 2.4227702693558775 0.2673019573899048 11.79392840305025 -0.29171993578265887 -0.784058937475398 0.6171930567563629
Ni 0.4447237339911563 7.974885449927212 7.463398127539536 -1.1818083394160097 1.2616917433062143 -0.5600819135656676
Ni 7.846178544904464 0.8303963144182582 2.6414467938036426 0.02035310973505527 0.612446543210313 -1.0468279945516619
Ni 1.4218295387430036 3.3829552255672097 11.420704739345522 0.20782921050527434 0.5199055984570982 -0.9837873732504089
Ni 3.2755535451854145 0.2690521302846257 0.2039332713378516 -0.6355862145515698 -0.42071475248753354 -0.6368411700045935
Ni 6.477739164773413 5.569645153298448 3.916533891136502 1.0210151472536158 -1.5021207421243807 0.5117477452366541
Ni 8.338138117866482 4.365066769577385 5.461927142581727 -1.8696661096777865 0.09003077673685139 -0.18524052657148096
Ni 6.0938026353510795 2.3952796569159367 13.800980358917098 -0.7245844362588489 -0.8548113255986116 -1.9571903179427002
Ni 6.263491265014602 5.34508827387466 6.748587599459936 -0.03738049753098724 -2.0839469893456752 -1.599735244745761
Ni 2.7156488523675586 1.2948172605144976 5.436586823251814 -0.9238007082841315 0.5190316804925771 -0.8855655760623329
Ni 6.851715054482918 6.549412463576586 11.100750727458491 0.6515561076172649 -0.8585985605551858 -1.1391215991807608
Ni 0.08160004598011647 7.646890433901498 4.949519072969179 -1.1077716241145694 -1.3933373673703746 0.4246871068717202
Ni 6.594103537978092 6.935326057592203 1.9387208376856544 0.9315446138956086 0.12510730872501036 -0.4977126072998267
Ni 6.399136725300446 2.623319935861224 3.9113389185528176 -0.5636346639139325 -0.7292445607386796 -2.7234240543112196
Ni 8.373000356861379 1.5351906566845526 5.042611512992254 -0.12661294673625936 0.9304755492011458 -0.4029265752661771
Ni 9.378544823598611 2.597203854043281 9.334959022450684 2.8151527875757836 2.394425179572444 1.550808180027755
Ni 3.851378315275853 2.1346931289278848 10.130268089094143 -0.4225278944368723 -0.9288745232626132 -1.0309779148932825
Ni 4.424698803548132 2.8556344401653235 5.16181532753662 -0.43272334691263536 1.0548999729265187 -0.23844359295702158
Ni 6.155854219800274 4.212230261923277 1.3814343432649037 -0.11792287516142916 1.4863336544934531 0.32630075908132194
Ni 5.573693428418028 0.23764598849065394 0.7507450892515211 4.022317603478712 1.2554074529593993 -0.4870325018781612
Ni 8.115595961409182 1.0882704980761917 8.613686317529037 -0.3097688228645697 -1.3184195350155616 1.2148629558781336
Ni 0.5960802675782916 1.0787617588418288 1.3297595235524564 -2.9648161883736033 -2.3958030337565774 1.0051365283501463
Ni 8.593160621213435 8.172573080068949 1.6352065886214389 0.5910670490932725 0.26045660689300304 -0.1711621941015439
Ni 3.4239181210213814 4.754143666942254 10.035880201032803 0.08828859723476407 0.6229741822145142 0.037328047026497
P 8.157905143705445 0.6667509121948714 0.2768492964568033 -1.364401915282947 0.27235361544090514 0.229374797886534
P 0.5613140574350682 0.7995155069305018 6.328542338889607 -0.08763090904610714 -0.219867372616731 -0.1341665907138012
P 4.288563784410619 5.24044506933016 4.727425992612355 0.17523919238439498 -0.21215560579477008 0.4639370535112784
P 6.585752793719795 2.9825337432742134 5.853366161405906 0.38141646910854315 0.9232870018725067 2.417666666598888
P 2.819002257629773 5.209075644450063 1.1932573352761904 -1.35939752008982 0.2504665855598267 0.408549063659277
P 8.190225442508979 8.361909965952389 8.86178156312486 0.007917712185179912 -1.3239540916805457 0.17524536303198204
P 3.8211480561852196 9.256192769054273 9.564148823238066 0.2299602380763588 -0.7698466505307581 0.5672365223325779
P 1.612211444482893 1.4168774626664937 10.360890790981989 -0.9393224580688145 1.164107322591821 -1.521936234188411
Ni 8.401281795138631 2.913571847341829 7.308506414167745 -1.3386325196283269 0.32970207145338704 -0.7842617975148235
Ni 0.8834240111881092 4.61730255330714 7.820004092608052 -1.583307695317357 -1.5232104729151443 -0.02141651800256312
Ni 6.4031190982669175 4.942284899476422 12.735296411630175 0.09457700134663712 -1.0474466019722672 0.3617719554047382
Ni 5.627450756168733 4.864454456654165 8.835959216617917 0.11759428817741684 -0.7890846728247636 1.2776181847284835
Ni 0.020619842248615627 7.455717702324295 10.783305704686267 -0.7191869193923615 -0.7435298670131001 0.01672759716732603
Ni 4.628129335603692 6.158424403771543 0.613420065520717 2.0761776298129013 1.1098326204086564 0.7485843987178721
Ni 6.567441409748671 7.2544242829481425 5.6148483815755466 2.3877737356941977 -0.2559034403046818 -1.1504426806205348
Ni 1.4342191435275795 8.901968696091 9.155609137141315 1.1544543728830892 1.4428437016306184 1.079288171962896
Ni 1.9794653145752346 3.701658038004492 3.9172776440073087 0.7513699318828091 -1.0505558370252102 -0.6084055403717199
Ni 1.8608226097916285 8.568353167864379 5.816452482530645 2.7864633900608915 0.9570399299532356 0.09770140590823174
Ni 8.187203358059246 6.0712640989876485 8.87539506503861 -0.38010289250344215 -0.32999183477966393 3.305125860139508
Ni 3.4305459947055312 8.631317967863804 3.9358385147009196 0.7857977745433757 1.2341557426694745 -0.508996150633446
Ni 7.996887354472466 3.6736402083396764 2.7270979392813297 1.4409164027009185 0.9294519930326379 -0.3605892479505467
Ni 1.0011572662588049 2.9746348994943816 6.07343416274361 0.07609411205110121 -0.5728168446338328 -0.23525619636797548
Ni 4.257363822209947 8.231122435810041 1.5152166555364095 -1.1878725433322188 -1.7394942419456751 2.705944923689849
Ni 7.696721876245541 -0.039914109760401245 6.756221893168 0.7911490115529601 -1.3257438365911167 -0.34438538449717465
Ni 5.25767377507163 2.1571563485449046 7.4605323253386056 0.5139529804180891 2.9797018472361847 -0.36415125427019224
Ni 9.115849426711057 1.647506754769652 11.467829486115427 0.9666046908235353 -0.9618422364378855 1.2914643465829565
Ni 4.324235678429432 7.327669818832641 5.968133819586677 -1.5640791861050483 0.17415984327728715 -1.240294508577361
Ni 4.582223778666312 2.262176136821458 1.5840580446745374 -2.114721808634687 -0.3635686422938448 0.8425718461096264
Ni 4.673545333689401 6.480554128170516 2.9678347387528166 -2.0309912630842506 1.080512017067668 1.1457187927823043
Ni 6.494082898744556 8.750685596331614 10.291071225599852 0.8043896786129501 -0.6034453681529672 2.030521779647
Ni 4.089275673407653 4.296010727711986 2.7144353112910147 -0.21810333873777277 -1.0077076315114322 0.21474907755355918
Ni 3.962574076758092 4.3917571415867105 13.367486351815794 0.2775888956979155 -2.0619802552665973 0.06367825488525163
P 3.038616475570352 2.870151743036005 7.626943735073929 0.7542876197502365 -4.005129007514567 1.8039422851174158
P 8.291903050163553 4.696855866703543 0.6575933372906488 -0.3448098736291029 2.210985196544811 1.3582346101299705
P 4.782189740386975 1.1413876334824054 3.4464698378154335 -1.3372479805759745 0.41735406354541665 -0.033696878031812934
P 0.6984780916204191 5.054619826748125 4.79269830942994 0.1299579519490923 0.6315400695066544 -1.3320643794925058
P 8.172403617389524 9.010773150874696 11.706209812883587 -0.2586578631213674 0.43172884420985 -0.08480346689964104
P 7.833101674808889 7.652153191556952 3.7828476077166697 -0.9471818062122332 -0.7046121069019801 -2.281169885090013
P 7.165296328164266 3.0979095841822515 9.206205985920759 -0.23035593085288067 0.5639565660297254 0.4077401946047365
P 0.08929271016664914 2.1915290286881315 3.109884946861568 0.9611143571329254 0.6228515405937208 1.1275025268845937
