# total energy = -340894.6690937494 ev
CRYSTAL
PRIMVEC
9.00608595373506 0.00000000000000 0.00000000000000

0.00000000000000 9.00608595373506 0.00000000000000

0.00000000000000 0.00000000000000 13.18131714241735

PRIMCOORD
 96 1
Ni 6.3216148991875585 2.1599386017164908 11.366882793173279 0.462666671439287 -0.2596014579815594 0.2061878182471094
Ni 4.452762001763167 0.4075614140043534 5.94085919943261 0.03819965099817292 -1.172381132564839 -0.25241985263145555
Ni 2.634514301344356 1.3856223491895918 4.610745861053462 0.2631704062797403 0.6698075976282851 0.6473574961548851
Ni 3.355082232865864 4.356126699419359 5.079552262015769 0.059462417031691146 -0.6020104354786535 -0.6208363099359049
Ni 5.050504932971081 4.6276691971796735 2.718870706091189 0.8778093291556818 -1.603394438764903 -1.3508444883134865
Ni 7.375020749508706 6.183173345820455 2.398366622012877 -0.14691926239377923 -0.562955892679353 0.36597313797027936
Ni 5.144915732082931 4.631559826314112 11.44606249971068 -0.40501148281966376 -0.14181562261862674 -0.03632994477928581
Ni 5.538661810225643 7.916835886909066 12.148772263383394 -0.1122384231821422 -0.5701590952960116 1.849826706354356
Ni 1.607973605439945 6.519163394705866 0.4046542494566757 1.8569435199047952 0.20006550739945542 -0.051841667261639746
Ni 2.839907097733256 1.589493117051362 0.44619392033557437 -0.5808415147105223 -0.688060630301202 -0.09707559939877475
Ni 0.4808394324125918 0.04356243778536831 4.894288968354608 0.19361075291304722 0.3403577513950203 -0.08402313709019078
Ni 8.438738568253306 2.226547613471832 1.3143337751697735 1.8599131440560808 1.5249706501393605 0.2658255845144002
Ni 6.74992633524225 0.6147293099358411 4.858765362896555 0.6966676552439228 0.2638625472507585 -0.8081643151640341
Ni 0.7569354072339526 7.355081275194709 2.551375519419227 0.3931478986128584 -0.6050497365256096 0.20089571661023467
Ni 7.7205842677689045 3.9693153074653447 3.539130605531108 -1.2880635484315237 -0.4649420977370251 0.11220705572357449
Ni 7.698960655380509 3.9600390389272158 12.566132298911517 -0.6899411351533666 -0.5248719413234381 -0.5436037134049864
Ni 7.881586066464177 8.648202115495833 7.117186415187116 -0.1607721091164715 1.0679097549226255 -0.12559016189869981
Ni 6.996215767972552 0.7233445078227748 0.4866159359469179 -1.3042113618359796 -1.35135099563626 -1.4456852848444715
Ni 1.7934809640306038 6.492127124655902 9.462366695958465 -0.04972616358053371 -0.08510865684488568 -0.8475443596235532
Ni 9.137574814354906 4.759500283452615 1.2195140997553695 -0.3372495447833418 -0.24942811699298334 1.8587995992769275
Ni 6.314608164311186 1.936821828159593 6.823690682292293 0.698585698202242 0.025082139779608416 1.1501657728100645
Ni 3.262706809180827 4.194161249526437 0.3911199034769669 1.2227940377997522 0.869098174534929 -0.218261718692508
Ni 6.111250743349098 5.611935325590903 4.65792154052572 0.4165457087115085 -0.24286589039443335 0.5324808640189475
Ni 5.157010905526335 3.117564727859968 9.349942824319323 0.9281659272313627 -0.9774439475308844 -0.11864201271564084
P 0.15820540900489402 5.5921849790820515 12.38794688820581 0.16739784196310525 -0.08541050435602064 -1.4377637160045498
P 3.7712534650473537 6.0791170286461425 12.535525115778674 0.2992715228776717 0.07190269967757293 0.601265586892829
P 2.4185393539532214 8.39584258082893 1.4094389435090888 0.032939688150814245 0.39105964862526205 -0.8581054229688512
P 6.463253613070231 7.618446246903933 5.693577296029588 -0.9065894866121678 0.4364997832359322 -0.9082776729478679
P 4.756141013389779 0.9299504239903992 12.45832224510935 -0.20872858239109215 0.709520599947191 0.23720689233644313
P 4.284429249096986 6.032672643353783 8.010984608919498 -1.6110959211742188 0.42667405539476194 0.37556592386503707
P 4.758716753974152 1.1181055718531063 3.6614269485988875 0.47784954982731254 -2.3591311322568402 1.4300534918444856
P 0.3182759784119691 5.416566302874758 3.5478566022171205 -0.3547929529837438 0.3347442618629848 -0.3669956656975228
Ni 1.4285003244420498 0.9240424316010666 2.526990641075695 0.16828255856090374 1.8848343327777926 1.3388502920660879
Ni 1.8293792226645664 6.360665287907293 4.738670107237239 0.4493576130352067 -0.06847747604610788 0.6052608240951511
Ni 6.075361490801094 5.630478856581202 9.06972206212858 -0.15870417084384927 0.8412605834973704 0.7239077219067984
Ni 8.669825727884229 2.3885040572787943 10.033117486937616 -0.8631581549014102 1.0213614748494408 0.8884367269625408
Ni 2.2844567461904424 5.1297404772414295 7.201915671892666 0.522206735786449 0.9576611084770021 -0.7195949534640574
Ni 0.3719666604672206 9.349758199557156 9.254761104249352 1.2179860748881475 -1.04592090935636 -0.024470731447854627
Ni 1.645736123867493 1.0365014269754502 11.545396926016503 -0.7184551834326595 0.34682536139723497 -0.6710216725410444
Ni 3.981392468736831 6.898706875290687 1.5792144711459577 0.6144980264227029 -0.5939618541425642 -0.8269328540207888
Ni 5.581746925455167 7.903768056182051 7.615031139108149 -0.5299758382089067 0.30195241214394447 1.8519411815941975
Ni 5.34134747294228 2.906236920823857 4.754870254660914 0.006784112801368961 0.4032487344922862 -0.21359233824129667
Ni 0.8965999870743361 7.582809164762792 6.9083019592717765 -0.6005947860780495 -1.0363659186780732 0.2576217085473692
Ni 5.111467128829911 4.222854639392922 7.132239187259571 1.00286830114126 1.493127794597151 -0.3119097804669725
Ni 8.27492687073872 7.279952506121823 9.323738716612002 -0.32930072224991025 -0.35635669792643787 -0.7945575230138768
Ni 4.589114143187703 0.39507357521312086 10.38364876221299 -0.6050834179770225 -0.4293647148530476 -0.5510743107504187
Ni 8.249385610958006 7.121859673191421 4.613000084369087 0.014664801101026356 -0.7055063365814752 0.14689869356848895
Ni 7.283509910075766 6.145437845650784 7.003695322361791 0.7886244453588934 -0.5582883120003547 -0.21796732738054075
Ni 2.464524428861654 5.0730111417834935 2.6174270544536844 -1.05185090168755 -0.12302008717867845 0.009589443460648
Ni 2.1617128006504824 5.013516937936037 11.396948710539968 0.19818500254729096 0.550795088947103 0.4074951684734659
Ni 0.9511237320808272 3.2459194649526015 3.8105209004387093 1.747463376194081 0.1366003969662744 -0.25832464815166484
Ni 3.7637153710993796 2.563717459617918 2.6443696612096708 -0.6918332099697568 1.31192981352616 -0.5860449132883326
Ni 1.0964009046910768 3.3305586607985576 8.228648197428011 -0.5272180729581114 -0.4451548878077688 0.1708922282696089
Ni 3.795272696300936 2.4963969670717883 6.842830416173101 -1.5751873802030678 -0.1546009473087531 -0.16581044287132735
Ni 4.2443611726638455 6.542453132996741 5.886987495049575 -0.6973718803997989 1.3278886508482615 -0.020569339510919417
Ni 0.6753717897431136 7.699519032709989 11.446880252315786 0.62036245562328 -0.8028328756487915 0.05858927039811845
P 0.3109216086175652 5.781862155471889 8.00537021493244 -0.6541107557183187 -0.9529639601116491 -0.13594219455698522
P 8.353820183742611 1.6832104475443417 7.907972997716471 -0.016680803089790627 0.08008035039235886 -0.47782820967107387
P 1.7326988898909612 3.013742568920599 10.506261218897944 0.12674304455622043 1.2060181038929938 -0.70558372678663
P 4.048586876079529 6.097093176221002 3.6936552272044163 -0.5966427434088369 1.0997484966997768 1.3311241270664236
P 6.999890251043967 4.088636940340752 10.386890953158357 -0.2984708813532473 -0.4298485964680016 -0.601785206841725
P 6.197808235504396 7.634170872988956 10.074876005705327 -0.33432825737148875 0.8852814691630109 -1.1189723779263954
P 2.457436639211647 8.261381717455858 5.64483275638321 0.6020500304673374 1.4840530859893926 0.632845161471323
P 6.690873429606803 3.917359197565864 1.3820739513216087 1.5085564704473953 0.11195740160661363 0.7449755983206912
Ni 5.16925918243105 2.599930931260458 0.5307619681024519 -0.024749439030538018 1.0473039057468156 -0.3762392957829778
Ni 1.6949904079791696 1.0443457278460426 7.017363859022294 -0.8309026373018141 0.13127744209146425 -0.19887020153977364
Ni 6.72519562319788 0.775617631948025 9.257818670432552 0.32386463883600347 -0.2802690136332399 -0.6836324193265194
Ni 2.910163574302133 1.7712359317110131 9.163269177596927 -0.22272283978765514 -0.7125102787031341 -0.1031187202690611
Ni 6.45829125970663 1.9997473507575605 2.5069151748637113 -0.39489316343873926 -0.3465227425551516 1.3440665461597048
Ni 3.9646411488524427 6.930750529134048 10.533295687730716 0.27307583831891036 -0.8611935749758717 -1.5346896771993375
Ni 8.138736838861451 7.23246341485818 0.213479360971799 -0.44791548127204156 0.3195683254534948 0.39021581256772797
Ni 7.599083162091334 3.9990443972171534 8.082150700170269 0.6983447858360295 -0.897514778004409 0.5310490166684273
Ni 3.1103148286626925 8.267217661157517 12.414889494961798 -0.049583467355082345 -0.03199403640809329 0.47574047390410973
Ni 0.11584438308650279 4.8871795640982985 10.087451203530364 -0.8634057521358421 -0.5524128270561841 0.3245405818571056
Ni 8.56227504935769 2.3418255137514916 5.704307146841557 0.34219249061091395 -0.45585890448883426 0.6221771402345155
Ni 3.60406448529801 2.7444155683062847 11.574528011660613 0.36571859875731205 -0.2490568496964937 -0.5388201759734139
Ni 1.0540542885102204 3.2402276186262933 12.75114522338301 0.0049221198919657165 -0.6942461902866237 -0.7459017096793863
Ni 2.9961086526121954 8.043929771967392 7.9463434269462745 1.4647932093185159 0.23353227169833327 0.31302589634928674
Ni 5.55130635491257 7.889052111724476 3.5538546554660466 -0.12604293316540227 0.1659333416024368 -0.20912710338109147
Ni 2.9907860558102204 8.157451485484978 3.4839539192925635 0.8947742391447945 -0.022277066230645504 0.5074401190002358
Ni 3.290112328755124 4.4563734422328665 9.231693816281673 0.0931847489848008 0.13180966044585044 0.6396904665279305
Ni 7.236813354376545 6.200059756994232 11.27421737352035 0.2473905177376643 -1.292173456834839 0.9778550669263738
Ni 0.5820020941681648 9.120733433610924 0.5899868899797232 -0.8066028842141851 -0.18925144750308698 -2.0471107943539324
Ni 4.587871303325312 0.33473640171987024 1.453846152157444 0.6086801341893452 -1.0579901818160684 0.6183299985742835
Ni 5.881865733964494 5.65303009582341 0.39019497844894185 -0.441406219398614 0.5051479805319493 -0.38627148320799926
Ni 7.6115926154888705 8.706057211698687 11.386245877985877 0.5510977077891863 1.16754025953277 -0.1378494388820271
Ni 9.17251842787718 4.730860930101888 5.939198477181706 -0.5100428467304055 0.37534095233842457 -0.3525635494325928
Ni 7.902867447586117 8.697663539584575 2.608833447231274 -0.610109153326388 0.7503170651382627 -0.06117914261248174
P 8.585717891109873 1.5814056518598671 3.6079244937401866 -1.550100098217137 -0.288221178600781 -0.5151876241561386
P 1.9133429620635718 3.147374872385411 1.6383853565074726 -1.70008668668233 -0.5247235886710317 0.6915236491491381
P 4.79248057023575 1.116286342489318 8.215836139542242 -0.0957288555628932 -0.43049342914085215 -0.32676432898130175
P 8.455994228951418 1.6097207861160585 12.111060179037219 -0.07918920603665716 -0.29319986276229504 1.5717989233468093
P 6.2448290102981545 7.685604629902795 1.2637835152885466 -0.18264062705478867 0.4763310563002571 0.6200798913858546
P 1.748639662039008 3.126282619068617 6.111952317445332 0.6949241901902549 -0.3606864356500433 -0.9181692210299671
P 6.973403352237522 3.9108387913312956 5.959300061042971 -0.2238055313288726 0.9097784258631106 -1.1172654225376177
P 2.2975425890893755 8.462901896882238 10.108910004545704 0.4683392963440321 0.7991803664978687 0.19697478428927367
