# total energy = -340890.7178978171 ev
CRYSTAL
PRIMVEC
9.06550452442117 0.00000000000000 0.00000000000000
0.00000000000000 9.06550452442117 0.00000000000000
0.00000000000000 0.00000000000000 13.26828222672925
PRIMCOORD
 96 1
Ni 6.123521734672709 2.2326071508294474 11.27129963654726 0.3214025504487562 -0.4295320936688474 0.5769097837562838
Ni 4.221053065669495 0.3841154028972068 6.337807600179686 0.9221372045387796 0.3971526488968773 -1.105958996385863
Ni 2.7227064617141967 1.7070073238442085 4.513922351443451 1.1592173414893714 -1.0243634949005584 0.7970453224327371
Ni 3.275765702200044 4.090020261860384 4.83996413173092 -0.7630131725486924 -0.20904405674898194 0.21571246990809304
Ni 5.096962122265338 4.91432846614673 2.471389822926503 0.9344201356711906 0.7773630135124612 0.7468116230881654
Ni 7.4060821321060555 6.119523847134323 2.741279867584136 1.018114428667053 -0.1940756083646077 -0.7451836005664393
Ni 5.139325225364825 4.783957444175039 11.201720982021504 -0.5275718567531044 -0.5214552023324053 1.150273502032522
Ni 5.50637844201261 7.899209321534616 12.628525343149876 -0.16134803622459953 0.43719809485453737 -0.4644731285204065
Ni 1.9502982713898787 6.583242539568504 0.47617469578506777 0.18398788511130248 0.2788014279487779 -0.5232107515709311
Ni 2.98502590346184 1.5234036587310271 0.4632781089095426 -2.1183097830962616 2.168590276518368 1.0231802732257345
Ni 0.626143525649006 9.187073039171944 4.776993323524274 0.0030974079784011174 -0.3779665628867297 0.031973981803435254
Ni 8.649252911955996 2.286148021128092 1.428291103886413 -0.4103580918435578 0.7708552943009305 -0.14414272808990658
Ni 6.665113111811487 0.5293620114034471 4.728511004804811 1.4987351134815994 1.0940051664580968 0.8161177656831559
Ni 1.1793858893282216 7.299000391508766 2.749586589469448 -1.1354418363363283 -0.3452240783483861 -0.11528080955289179
Ni 7.698952324430474 3.81237105179662 3.66730031408005 -0.13702720009104788 -0.3016706192374675 0.3551009711424659
Ni 7.52909196432453 3.904222744628633 12.586956378255294 1.0231211378530252 -0.1572378707109679 0.5846521467058641
Ni 7.857498934767928 8.847678677126455 6.996856187955849 -0.2930335123877599 0.5462138973343239 -0.7069410121454728
Ni 7.239512550177966 0.5295741442116063 0.12664056681966082 -1.1117185245774597 0.9947554422261384 0.3670668852550904
Ni 1.8489187331999457 6.4383667102013105 9.086173066176524 0.6666510542771745 0.1251535885819135 1.0986017846898433
Ni 0.4027060332259285 4.789578057040796 1.4794930739925332 -0.7773894958750225 0.06768017695579312 -0.21448116860415323
Ni 6.2394876697997415 1.7181669600341227 7.044370310781662 -0.03177857796317753 0.8102412522977207 -0.8725128566434328
Ni 3.4873727110911656 4.533278110362286 0.6180235531589119 -0.06809592433697305 0.06709525098660057 -0.579695574031537
Ni 6.156973446728583 5.471376528666341 4.727635277058307 -1.1110621219403831 1.0034951360919815 0.16897264264939285
Ni 5.473035516012201 3.162628204515133 8.886007630669067 0.8723647611013429 -1.066133122638177 1.6045390938923076
P 0.2378099434510949 5.805186539864563 12.570157998190378 0.03806106853777961 -2.0297136819234076 0.24735940738941273
P 4.039742973225727 6.181948911962712 12.594970284341308 0.2743960997922307 0.5691275687077036 0.9010320471290482
P 2.581529358232857 8.692205272855924 1.6077844692038945 -0.37274825191058386 -1.1565261678104535 -0.7330436227697956
P 6.232053956009548 7.783007683287405 5.744436780290353 0.8507749507457091 -0.8255413729899007 0.30316211618132954
P 4.593083244354863 0.9718855540309514 12.540265403249176 2.3224833991268192 1.236517815143748 -0.1487365181081761
P 3.9896651256927584 6.376947916385984 8.23074026487082 -0.5718817344140732 -0.8649535562389361 0.2130279810973944
P 4.8061679304994005 0.9294408613898655 3.8837591810449665 -1.6041171758635404 0.24419720761134717 -1.26861752389177
P 0.3177359649526189 5.409413804573683 3.7346633592761456 -0.6851172314021621 0.9931469600884378 -0.10071268193072977
Ni 1.3983631534771825 1.1568037173143504 2.6146474597186353 0.11725310278791419 -0.15961177025978318 -0.38028466949694506
Ni 1.686764052022862 6.419764294716581 5.22044517382509 1.0376363007500646 -0.3080587821519985 -1.5063445503977413
Ni 5.784716630427661 5.7249386929489505 9.114089381110093 1.0408393810683945 -0.6226954746318308 0.2011955072388406
Ni 8.471686872921191 2.4113607709697584 10.268841574728441 0.7858556243645046 -0.11339876203883052 0.026279759632135385
Ni 2.6969060355594485 5.10185749476132 7.066262597893785 -1.9106327818981352 0.063069160546343 -0.1610094219382582
Ni 0.17705565112457494 0.05939718628457838 9.079803642628974 1.3306173626333342 0.24917666310380954 -0.4665125275479385
Ni 1.4091873659960754 1.0570559699564115 11.484971767391317 0.03695986505380086 0.9694570726706657 -1.351555141227266
Ni 4.17915230330574 6.9411758585663685 1.6606844083257504 -0.47126444041062715 0.20763097845153922 -0.3787134683550833
Ni 5.9731340784952245 7.788465117069962 7.914211825133876 -1.216415130856602 0.3312383055922553 0.23664639184728276
Ni 5.173311802193409 2.8782705210309496 4.851043084929696 1.0349685241099142 -0.6901442523031083 0.302089451942441
Ni 0.6594193669152106 7.598288961105694 7.033277759325953 0.07318902258916427 -1.1450600761523826 0.8552766952708044
Ni 4.825812879015683 4.3172743317294024 7.064524740657712 1.7019232256704364 0.7926700761831768 -1.0866376703494318
Ni 8.11074380638876 6.941402496181922 9.181014562432937 -0.030610782907321474 0.9381361510701973 -0.3605961899290822
Ni 4.689032545276104 0.25715119756253385 10.524812443589166 -0.6060118433285627 0.28726858487952467 -0.5973269139600551
Ni 8.190765015688816 7.269492173963543 5.008710341318796 0.2184650929525657 -0.7318496024616945 -0.8035540700855323
Ni 7.285420265584728 5.813445214575376 6.938754462281781 -0.809455780281948 1.821277948182386 -0.02438331394037091
Ni 2.4423194692545316 5.241176169795112 2.754667804810184 0.23086398083755078 -0.015614309498489238 0.28143680868909593
Ni 2.508751487125928 5.03719325029125 11.493225002799356 -1.0406259795060078 0.6032085695518127 -0.015024241322974124
Ni 1.0259703546069274 3.279147135424121 3.7689880794271375 -0.26167145313671064 0.4459634997519933 0.07517288578841247
Ni 4.16258056085638 2.9078965901362617 2.5750284848682856 -1.428735030143378 -1.682731483233334 0.7415413758281617
Ni 1.0544451046252212 3.5091933807167734 8.330782641128978 0.49604498978941675 -0.244740738819643 -0.6378613837389917
Ni 3.339487134189407 2.467095493386973 7.1024720364557306 1.540213178120728 0.624495246844731 0.9122790807977773
Ni 4.259835294443217 7.051276412202847 6.175257663001075 -0.515184538832345 -1.2944676521856544 -1.2015556972462664
Ni 0.538558059292195 7.388050843412523 11.19904031230472 0.9828918580193329 0.31920322880459223 -0.161602832547883
P 0.21069501912612942 5.588122097190883 8.024471025101242 -0.14198788653043287 -0.6787694348072633 -0.7434545336904744
P 8.44674766970555 1.7141509414864933 7.7806533717370225 -0.2011489702716213 -0.7305946470086708 1.9644441712916363
P 1.7237513108813907 3.2452784101556245 10.407255512400937 0.355549114423478 -0.2279995148055622 0.7472893340555323
P 3.958833344472696 5.886277478710038 4.174069274864079 0.9511850138343555 2.2229529104296493 -0.6625059217605493
P 7.011533239939172 4.096647145739204 10.389277710184677 -0.46424070079462626 0.2671849267557721 -0.7662072540059579
P 6.2509555331468105 7.772219732787001 10.129311673436952 0.31783488770215584 0.7228157743942002 0.4902664354344267
P 2.361056285821235 8.335722434597608 5.952748478251309 -0.3938714070424442 0.9868737254852166 -0.8252382399271851
P 6.866376379928692 3.870254298809293 1.5687094246308757 0.39386806460833457 0.6795520786095588 -0.4589174888095
Ni 5.173756011919896 2.9180590208177346 0.46601679785590566 1.0689173702515335 -0.6447480835564959 -1.2224045156708172
Ni 1.3798423275340517 1.071524515333424 6.968316166304276 -0.4115657389984138 -0.07209141864961133 0.29357498671352666
Ni 6.7588594951095375 0.861986254597086 9.263091828181306 -0.8521103817276809 -0.018082311423007567 -1.3298056653653163
Ni 2.6052537838291236 1.4378615571160573 9.408048340539635 -0.6459050799790746 0.3900805725414443 -0.23590385725430338
Ni 6.441865994985475 1.9107545402278927 2.556757866852727 0.040770754159458814 -0.7296947609022207 0.07886010483201257
Ni 4.1304342814660995 6.988561251226547 10.532681301601226 -0.6066019115040779 -0.581784852460398 -0.41220260125146424
Ni 8.08949426355435 7.417250833800592 0.08150160620486034 1.5808250381048194 -0.42616497696882727 -0.22578605209401115
Ni 7.723220680304072 3.76560211345075 7.932058177533116 -0.10009381739980826 -0.7410749777147042 1.1833147487582074
Ni 2.902828973052458 8.663132199532566 12.445131091193467 0.8962176564595403 -2.508707115547176 -0.3668216020135037
Ni 9.069674754314603 4.87410482213808 10.273976276546449 0.6688583463411384 0.021246568083602122 0.5749935405701774
Ni 8.698224767925057 2.434958279501315 5.750274965267043 -1.1959216388889404 -0.8945310127857369 -0.6330680761154065
Ni 3.7441259330007854 2.8049396541420677 11.496303648169052 -0.8651543593958326 -0.44331063551017846 0.15996786804762128
Ni 1.2783086757655415 3.288004133439999 12.900724371834782 0.08112190428299577 0.34967542925152034 -0.27865950305427495
Ni 2.8848430118820363 8.426477201370338 8.06596112010561 0.7555993965831245 -0.13037652754374968 0.9954576104994857
Ni 5.761735576210413 7.758947834020117 3.467692407106857 -1.0875604392740175 -0.06321417076463952 0.19662665692123557
Ni 2.971101288362159 8.315515424794752 3.7666926936567995 1.733534939038447 0.18512508403953926 0.7765022081740627
Ni 3.488977305409293 4.252954576434976 9.292521175836313 -0.9069388995317865 0.3094530913963638 -0.06557881434207416
Ni 7.2046466194010295 6.316662310648431 11.40237686132902 0.1067858847080032 -1.0132509299271646 -0.1877380961823541
Ni 0.7739874012295033 9.124158437093957 0.3108026670175692 -0.38499133094399507 -0.37345787638309874 0.6626943836222715
Ni 4.6928944502451575 0.25924260947887273 1.3898923459582095 1.6809270830347438 -0.238282384788809 1.0397276360614545
Ni 6.176156054509134 5.781144821606519 0.3976320702888897 -0.4770962166010557 -0.5215945561237469 0.23291829226341823
Ni 7.945778818778797 9.036368090332683 10.955607036336483 -0.3579093871255385 -0.03715706866627149 2.5055518577476463
Ni 0.12983706374944445 4.709729092328561 5.974176611526776 0.5346277351586212 0.42537384852609966 -0.3408444612234517
Ni 8.334716163584547 8.65569848574237 2.6001317737175875 -0.7008711518023091 0.4723813276238897 -0.12468899024066911
P 8.398129368416754 1.5486964166269328 3.6193483273809846 0.4062250435117907 0.4198071530715996 -0.11626399940176751
P 2.147744962061142 3.242341186658036 1.8195591899305266 -0.9770906779565237 -0.9167006069042406 -0.608845456122616
P 4.477742829046759 1.1463239939711007 8.460719425429268 1.8856527149140299 0.04901551066675429 -0.5640568390530157
P 8.771274604170651 1.7592971545049911 12.496267789666309 -1.2660333081043615 0.08924453339013018 0.07007233133705351
P 6.618162863373173 7.848505954182716 1.4495071043537204 -1.848666624607984 -0.13850121353341308 0.5313830029690784
P 1.755816000730071 3.0829514843907195 6.002557986847461 -1.5947696732103696 0.5587462254733796 -0.43480619758359307
P 6.775186468934098 3.8495124242337257 5.967383828913371 0.4032250803432023 -0.47171386924321984 -0.11836716178769936
P 2.339942725556158 8.358232082574503 10.253569825641904 -0.9272621844701708 0.7296983604466465 0.24101572455957204
