# total energy = -340873.06731381017 ev
CRYSTAL
PRIMVEC
9.20637735535994 0.00000000000000 0.00000000000000

0.00000000000000 9.20637735535994 0.00000000000000

0.00000000000000 0.00000000000000 13.47446385445085

PRIMCOORD
 96 1
Ni 1.8502056692938023 5.284525081426718 1.3330392592254066 1.0728429305581846 -0.5545203603174901 -0.08132656409463412
Ni 7.587086105055748 8.222316940382429 8.17091497335567 0.5951787572688008 1.0564732309509095 -1.1396571599692567
Ni 3.8434600308774343 5.1037762736183625 12.222605769265964 0.15901604565731323 0.35802328699558345 0.5059601920205996
Ni 1.7814616491285198 2.46486025109572 7.144390081905389 -1.2510286071654133 -1.0992340189572036 0.5861410725465648
Ni 0.12252675639182109 6.839325718573283 0.19089423572078912 -0.6283094783844986 -0.11324783828326303 -0.024156285531229366
Ni 8.727728647766074 4.634573248611851 1.247704426318748 -0.23229557107775478 0.08038194079317769 0.0017784320566614532
Ni 4.404533496118224 2.0877946512685503 13.382581704549892 -1.5395369779893098 -0.1642328139715623 -1.5015700118272333
Ni 2.7074298832525248 8.41088196261697 9.789710060558601 -1.3865005469541993 0.1537260009029675 -2.2833542943358416
Ni 1.5388920169717146 2.264409795617121 11.723255540773014 -1.1459514776184005 -0.2746411259235012 -0.9986023267760544
Ni 6.090690726236296 1.605969682824701 3.6313414126617953 1.3079266059040378 -1.0352760280480042 -0.8145594200571004
Ni 3.0970529818751205 3.8136497808044214 8.750425130009743 0.0928330220723369 -0.3572930936977782 0.38002781629113264
Ni 3.5584029669457826 3.010853670129099 11.011264692464938 0.6650857666725836 0.17296299475570856 0.9570409583945002
Ni 8.727176265121114 1.0389212786409265 4.154891524830446 0.12079659716479842 -0.5179132506174177 -0.24283657981839465
Ni 2.2470189486782948 8.155055146981123 0.9638524771908509 -0.11862710031730538 -1.1798602145507036 -0.5589704256690438
Ni 8.668310687923203 5.1661678933666035 5.580463162826341 0.48866720926810675 -0.38537313976344595 -1.6812042479555307
Ni 0.09033481648128898 2.4097508758835353 0.36764563445511683 -0.3632038027552583 -1.0124569732709596 0.6344410452035332
Ni 8.643545532674157 4.999191826172586 8.862195155028708 -0.7846544049675519 -1.1998392287757917 0.5545784672489352
Ni 7.407736666614626 8.583704079470149 3.0936696381747395 -0.6681322668083912 -0.22619999970297816 -1.3247120528924927
Ni 7.454772048832977 6.153459807458594 3.272475900348319 -0.18309339832149113 -1.1887541746062238 -0.39013225171498617
Ni 1.4662813182917116 0.2904897472448339 5.65331875114561 0.3803396911045966 0.8286976592306954 -0.3364769282833754
Ni 6.699407194604894 5.349558931493352 0.26280709099265925 0.4385157852246964 -0.15835398659328212 0.532659812798973
Ni 2.5666367534296155 9.226631446316606 11.852178888193473 0.28711817534458944 0.7098088206115711 0.6298385134345152
Ni 2.921376888022982 4.59902742540867 3.4866659534825577 0.20890136052353056 -0.7081136922973353 0.964732413501487
Ni 6.451203259469496 2.6398090411319948 10.855419135566867 -1.1423074531079103 -0.22994378301612658 -0.5644774715302021
P 0.4548162190185262 4.833716398497376 3.2590953514119025 -0.0023422749799314503 1.408190630333123 1.2443931041267666
P 7.761243146634247 7.061899098982533 9.991544234562824 1.7301192284886784 -1.2520372509355857 0.2319117053757748
P 3.7992694192806273 2.727545817906488 7.03907372745504 2.2877323687988795 -0.23508238979427257 -0.19433169023947178
P 1.9854013216477828 7.705968056628575 6.773977010399022 1.1873107572914778 0.07744908341709887 0.9932158656531604
P 7.9477735594598515 1.534776766266762 2.1820412575138985 0.050283064525268234 -0.45591058366237613 -1.488360712225811
P 0.7238725990011672 8.8521344257885 13.082235609643487 -0.4978653308276071 1.118571542943551 -2.6650502423580167
P 4.235633296044262 5.722859122957377 5.110823755530311 -0.9893592109112316 0.07751567498897617 -0.30994725742396295
P 7.2262697613678215 7.13436249562388 6.089662373878929 -0.4960732719241908 -0.6621914758439241 0.8783310059871067
Ni 8.911552385631374 2.2993019660237666 8.505984761962006 0.44273830794647623 1.1828912880675433 0.6190216253246694
Ni 8.702659682062302 5.849566495333804 11.556185568529353 0.04282635113690688 -0.5808299447462965 -0.46921809940455966
Ni 7.028608838246272 1.1029332208143843 9.15421408156234 -0.5312230803524464 -0.42132281838517766 0.9071175912014958
Ni 7.139950766715393 2.938942656132712 5.509533548662501 0.9274156793288996 -0.7097319446270486 0.9260486237780438
Ni 0.18921867503107684 8.37383549989498 10.895182400264318 -0.4651233605098957 1.443422971172856 1.5020019571583294
Ni 6.619044726140618 0.40635845148940275 0.42588425735100016 0.7861664707367042 -0.8263888085918607 -0.19902292506755404
Ni 8.579598035142613 0.8708293985040896 6.608429772979967 -1.6244062651298796 0.17519625496160152 -0.16076028204192958
Ni 4.918792532198646 3.1926704177177108 4.895622842155795 -1.1268605224252206 2.6245494540304932 -0.19399718971818847
Ni 1.1179027904928025 4.479703567719875 12.76012840043888 -0.15105796715250114 -0.1132295834508179 -0.4351869779617795
Ni 6.713437713786879 8.31719786603174 11.31774131409266 1.18993456806757 1.4270270463133359 -0.556977306498415
Ni 4.0150116676472045 1.3002995398586223 9.576005183514186 0.5832046156260601 -0.1575993678154447 -0.11029826873663584
Ni 3.3174628635916097 0.3537670205004947 7.469825396545881 -1.2650434333872664 -0.43604521219701675 0.9339519377855205
Ni 1.843070726796401 6.4446391123718865 4.996021149790515 -1.4364725079969518 -1.669738670518092 -0.4657831055810817
Ni 0.3196021539097135 9.126456853653096 1.6615356943567188 -2.0617596546153587 1.7242054341074045 1.043903621816015
Ni 2.2602853385347528 1.2363152168174125 0.34359489409355476 -0.861944079988651 0.35399154012837103 0.8857391255257197
Ni 4.467772102588737 2.3269303046491867 2.3573840805035777 -2.922735971374102 0.38565313289771 0.11228418881841308
Ni 0.7873266347032153 8.934522297284298 8.213372944722785 0.1180282903910419 0.2585563045464966 0.26324573960236597
Ni 3.4149399876722324 8.0541256313695 4.951609585135725 0.22364843692571804 0.9551146879060647 0.0624235565425441
Ni 4.4912299522447094 4.698244554820917 1.370366516458584 -0.7581116214820169 -0.7971797911280722 -0.45452270217591395
Ni 2.4799034717934663 0.8354833536908354 2.7386579154476016 0.7823848922070848 -0.18794018489083117 0.7427371959084756
Ni 4.063114989645811 1.1606295880804651 5.453721726853474 -0.40555552824859187 -0.4417247790802973 -1.2444203578202762
Ni 3.071468459036052 6.817165968132968 2.6744655282767904 -0.5487299788879582 0.5491148730312028 1.396555617197356
Ni 8.863780493219743 7.768129516941417 4.915052901692266 0.08895219896069197 0.20836554262471854 -0.08706603768157263
Ni 5.214197564345883 6.905970684687717 1.9723650912267248 1.9908247181676941 0.362857218049117 0.0376895441309738
P 5.898489184922436 4.0855877569182715 2.9959393387151767 -0.31054581023991035 0.2888876085401863 0.10932562041072139
P 8.902926009992582 3.4539197896515828 10.943110801092022 1.0946127181351084 0.07189858591251488 -1.023513488195437
P 1.2950703174863334 8.49141935225215 3.6706600093300543 0.7657953632795198 0.5719866354230537 0.4845336467157074
P 6.563972176438097 3.329983536877372 8.735885498156652 0.3879095330320545 0.05649562109388334 -0.5597170740270812
P 5.339579218374406 8.743839808244077 8.936291763023654 -0.5260929582147327 0.13538760760509586 1.1521318953974995
P 2.5423411234287876 2.5379773005336026 4.360781108086419 0.2128024953501496 -0.7816318160911442 -0.3473575797516211
P 7.203539215527714 7.341275828048511 1.061794523330982 1.2250730636419158 0.697347969140399 0.9215476505838968
P 0.7283349301347031 4.378958179656572 7.145373323013417 -0.7300500873591104 -0.003836085916638554 0.3611667177205715
Ni 6.185129745769639 6.508264386693872 8.721939677646894 -1.3330195443169235 -1.027823942645333 -0.15535248076279695
Ni 0.8724349907254403 6.731924119638211 9.561735298519384 0.8629164712042493 -0.4945208398354064 -1.1832193608309234
Ni 4.311530671461777 -0.021646955218244102 0.9982843287266963 0.2930823633478243 -0.04364781859693773 -0.3824711356253026
Ni 4.414752575049985 7.704734402054831 11.105504854246096 0.6218786351574903 -0.7217348826251957 -1.1380872443789756
Ni 8.047515452384811 1.1317583885038847 11.914943366227064 0.87921340859206 0.24799292720835353 -0.09469450076110787
Ni 1.5988623594595477 4.496744572316894 10.324929256102035 -0.8856560788936101 0.016755879302100173 0.8252253844113788
Ni 6.2599960069165625 5.75906780533451 11.346738641039838 0.9289035767283357 0.4532584907515097 0.036659560204562666
Ni 7.954899295579837 3.417766345538945 3.295463304118333 -0.8244208862322124 0.460001208791982 0.2966577394039085
Ni 6.345016902353335 5.231100473281662 5.526753156981389 -0.565598986729155 0.1493119309956719 -0.9443654198093607
Ni 0.43219430843192747 2.85893923638766 5.238548432611207 0.5652202632334976 0.9646884476374289 0.12869219786279124
Ni 6.227644796676733 2.648288114732132 0.9897536994130294 3.3314866095212237 1.7977708661993812 1.326568132264625
Ni 3.8111456461472693 7.005215433232212 8.00093486521081 -0.8931948104728166 -0.6473883493928206 -0.03798830631831523
Ni 5.619425472688601 7.2801454820062625 13.003612225873095 -0.6198253521728874 0.9059994184366527 1.48440789822565
Ni 0.5291411451733887 6.8897674604355545 2.6008145089487793 -0.544752482297449 -0.653639729619171 0.0651520112173007
Ni 5.586374577765155 7.433026585376382 4.391071931060546 0.884083849310484 -0.6282554852181115 0.7177566147037381
Ni 2.2701729878795383 6.86154991365551 11.652555165406831 -1.3107435065275426 -0.6928467388359358 0.9661372642688135
Ni 5.0309906537674545 4.554680305395791 9.988498764913611 -0.6319933549939889 -0.13880228971359967 -1.3557380689603618
Ni 5.699659051869053 1.5420498044254032 7.257548428638687 0.17177283110234934 1.1993594609258957 0.18029500964074754
Ni 1.041858113036631 2.901012381178786 2.7352626034565803 0.76845516949987 -0.9847543651493685 -0.9655160857450468
Ni 7.642379607816253 3.542162917183956 12.544672470409942 1.0276969301491656 0.7387005639452567 1.7130836131626304
Ni 5.315771526376627 8.36766722702626 6.901162193763339 1.748547610397195 -0.33821962200609496 -2.5282593266474906
Ni 0.08243942720932618 6.783249673732418 7.1393910189685 0.046829815869345155 -0.1588430104145587 0.5980373097635185
Ni 2.867105293155653 4.867908884220406 6.657288017926687 -0.7535916221244763 0.22800080035714285 -0.7155776047745482
Ni 5.078587625008182 4.595225191535861 7.401401758314675 0.7363911990857899 -0.8158796815304207 0.44967771537878687
P 5.023947775044214 0.3528721606156594 12.136476425988304 -0.05814292688931923 -0.03660685258975631 0.3706792851966971
P 5.534671562196892 3.7487724391538597 12.642874136393203 -0.642252570828152 0.7865215400832777 -1.0685972679079532
P 2.567336438113231 3.3095361726364327 0.5304051807926057 -0.3079590233493406 0.7600895711439942 0.12628358842129864
P 3.153552520077121 5.964554149259661 9.797835609265965 0.2684398822087957 -0.265473086270988 0.42172211070612536
P 4.527539904773419 8.76978337980237 3.0474517822709295 0.08471193562709926 0.9697938871847944 1.0058160709156743
P 6.473123644096995 0.5865447496376406 5.388936448977073 0.8823121021220418 -0.12613266466573117 1.1006530107919175
P 3.7027405520738528 6.759303886073399 0.3698873873559132 -0.43448069592337435 -1.270298768248935 -0.24815156427340487
P 1.6294919771225844 1.3435971328460767 9.455273670718485 0.9236981212679963 -0.01045179146094329 0.3556038789208134
