# total energy = -340866.2940161413 ev
CRYSTAL
PRIMVEC
9.27421891095016 0.00000000000000 0.00000000000000

0.00000000000000 9.27421891095016 0.00000000000000

0.00000000000000 0.00000000000000 13.57375682858933

PRIMCOORD
 96 1
Ni 4.778949401504158 2.1679136090220483 9.882292434926818 2.2058561028483625 -1.67751702891193 -0.5622488393099994
Ni 7.323628157095168 2.975225098097286 1.8957514510472202 -0.11833450877755103 -0.2509404398724517 -0.05976349321187773
Ni 6.463880233836523 5.907835159924188 8.310844655873872 1.0159482742536696 -0.4685015329535093 2.2605475808539714
Ni 7.047590303003388 1.8418413434659102 9.087807190718161 0.6870198477415135 0.5643484021515055 -0.7359399704809843
Ni 8.89943852876217 2.85489210667003 6.877483505665462 -0.3499690492325392 0.16495040886387718 -1.2768525102070527
Ni 7.784964906656434 0.7600036979946646 11.070444162396306 -0.15429215781908268 -0.032516484570466575 0.4327135767206225
Ni 1.5270928992995738 4.65278292633064 7.8192173796613105 0.8777728194907914 -0.11919505700563343 0.3119126086804499
Ni 8.016653445526238 7.954108112641042 4.385382152386544 -0.32102074162930516 -0.3966384282646201 -0.8827229644072152
Ni 1.3432686046498905 5.192245696684445 5.145824520939553 -1.030423327941393 0.3021804689943505 -0.3872384751069589
Ni 3.478694624541328 5.611366201392003 11.048359464709545 -2.056932665540361 3.717142313522095 1.7935498861394985
Ni 5.783950142622816 8.942090661908525 9.71923033433557 -0.1552817754258616 -0.4221309161087698 0.6771239287840403
Ni 8.998867430580406 5.960772401933188 8.109505071235017 -1.8884996974445218 0.25458780681705184 0.06585880747633818
Ni 2.9906388500627656 0.73165704764419 5.200839188002865 -0.6847508492016788 -0.5973467114543971 0.4068081697087704
Ni 6.402317968164529 0.2210009289028855 5.299913814655588 0.5003636717694286 0.1478721132253518 1.6037435945742058
Ni 4.698922165818162 2.3126285221804994 12.990546930252046 -1.0657225174633196 0.18492968019928152 -0.5545946651988513
Ni 4.292173469246556 2.6245297811161485 5.440117747696105 -0.2391871559912655 0.841819541324634 -4.873436824937716
Ni 0.9791813154436311 7.869276831516949 8.540648673444407 1.0319996712895774 1.1699447552092044 0.12071792140806309
Ni 8.883894937730796 3.2935348423567294 13.320687795680179 0.5634726844147716 -2.532622231601877 -1.268065765153358
Ni 6.174357665329696 8.321172426143882 0.5360248173732981 1.8480734711086753 -0.16668101840173874 -0.126596234565711
Ni 2.917085019233512 6.137900710470309 2.182361914790412 0.17267863074607034 2.1728307969622773 -0.3924477872220402
Ni 2.924995928034086 2.3146873987968273 10.971097801127105 -1.3146356424930974 0.6069176429722838 0.977812900834529
Ni 3.7062746843974694 4.125079865659282 9.54119778944668 -0.7845875562853584 0.16302876636113212 -3.8235731288835244
Ni 3.0086864802221056 7.0236628180028235 13.308851109980093 -2.4465422119826576 -0.5126964823031686 1.4203360074464055
Ni 0.717091886716521 0.9208882119664814 3.345876679506413 -0.6435088118327562 -0.4129060550763921 -0.6479033413560261
P 7.258857011651781 3.7803200488333237 8.051314911588683 -0.11189980889580081 -0.15556562521486755 0.7633659279024209
P 4.967141853299293 6.8993140897518295 9.59441974997875 0.04688175215320312 -0.3716958993866695 0.40761266788793676
P 3.5936856658289233 1.554516764860298 3.2483897991452 -0.4331102979384089 1.0501303194520173 0.14735455015898494
P 6.227016680768922 0.32625774993598755 7.7767989568335665 1.225777031687476 1.0253631398096663 -2.5260859731452556
P 4.948982932512043 8.110248863598212 4.7453043898432865 0.10490769384868384 -0.49849550821243827 0.12026643569294128
P 8.287896528398912 7.864454237640866 9.506923985738123 -0.416980739366398 -0.8394453846655028 -0.3164063827857454
P 1.2312545876588772 8.357749945850172 12.825137524833805 2.439663225474637 0.6755275308311979 -1.103827551865157
P 1.868959159799883 2.629908828131779 13.289793517372475 1.3568665261378503 0.32230192233457394 -0.4879529568099016
Ni 4.87306417583971 6.442846305161609 6.9428546930776625 -1.4858999093901442 -0.5009115738530986 -2.1667087432249392
Ni 6.705306702648418 3.74654334326276 12.978914277369796 -1.593064774704121 1.5500497045951755 -0.39498520893191325
Ni 6.851180893180927 1.4111837103317244 13.411414697817785 0.818171819998707 -1.2048400244244928 0.18604862429507313
Ni 1.1819250168379467 1.2402876769575397 7.601520854985441 1.4972626427011313 0.008956694972655542 -0.31593458535564944
Ni 8.059676547432291 7.290862341394783 1.958842108009173 -0.4298352267315629 1.8918303044796514 -1.1877838402731544
Ni 0.07875017573073285 3.306555845822153 9.22427732319231 -0.482673196468201 -0.37599349832075885 1.0602581519146386
Ni 3.245716969231571 6.934973461777864 4.79026023898737 -1.0597285046634137 0.14358402737295917 0.7071937515862272
Ni 8.56813560369428 3.5465169880332374 4.438455725414734 0.015202161661735108 -0.20611197070385145 -0.1905917635810653
Ni 4.425193592255506 8.572698519438573 7.684755115599032 -0.3815640504300009 -1.0152458488700065 -1.2212315784086387
Ni 7.111934834373122 7.545346910548069 6.630386779361573 -0.4613536090548183 0.2185921054487332 0.37643264274070654
Ni 1.8070166511491974 2.9545250413061 4.17276326260905 0.6832174432762879 -0.23234210804497404 -0.7758746018923929
Ni 6.0785735315755 8.138331198707402 2.9085035843997824 -0.6108061793934125 0.42488662447703596 0.5266681139919123
Ni 5.072617545900617 4.060586946785669 7.121553126890209 -0.820227159865839 0.49077371408814835 1.0861391334464583
Ni 0.5113581771190343 8.855450908080899 5.499801056600225 0.276140336176847 0.6841669516737506 0.1992152435840182
Ni 6.322791540304127 1.9070854740779137 3.813940947524814 0.2065385167183088 0.7779744218442151 -0.9695989975651689
Ni 4.074572469026309 1.6437347515678282 7.30654968282054 1.6523996650190123 -1.5313791247688657 1.8151497237974612
Ni 3.825559689078577 4.790569997901718 -0.041203500139731244 0.8409026859373195 -0.6523035273062507 -0.02925529732069155
Ni 6.141832979323115 6.1701657183451015 4.470653031490881 -1.4834959279343418 1.5488186604015521 0.8602296684007056
Ni 5.86810440576046 5.706195090589976 1.5547922091643744 -0.35912860424462023 -0.024623969196267272 0.32506997199801435
Ni 0.9783280872963243 7.185293906603534 3.4287038019062344 -1.175478283432924 -0.7058619201486811 1.5046075131019767
Ni 2.5125992320960675 7.81149844719388 10.805511258126105 -0.711927923837103 0.2246935903607808 0.41729749927586846
Ni 3.800055586849293 4.728683134564989 4.252739490090587 1.03545163439392 -0.015113201492354619 0.7959883419231323
Ni 2.7233836813568515 0.6278293837578272 1.393251080487891 1.13929566286478 1.7226049223895041 -1.6153521253474115
Ni 7.261407421874708 4.881615005750765 6.29256315092008 0.9212211204824134 1.0091559339221845 -1.7210242081659455
P 8.277054966396719 0.47687106637364746 1.6234353410371167 -2.59411941967541 -0.6295788320152254 1.692308071178176
P 8.453979242116006 1.4702790337517226 4.869599327624124 -0.37105363781698036 -0.7758177805125285 0.6914544864740995
P 2.6710585378013545 2.4999213747333653 8.623678901240163 -0.36861314669628775 -0.10068517112690402 0.9920822662693495
P 0.8447348175536393 5.218797785659878 2.521963411012761 0.2773464406698062 -0.6780616101069613 -0.32816635153515095
P 7.225006112329276 6.330201641279108 13.48423772019043 -0.9605939658530811 2.1523051662051 -2.420578183818728
P 2.29364419590292 8.298005427100701 6.4775736181789 1.0031994592284335 -0.20518688778642083 1.7246710608899136
P 0.2087747260051166 0.9428449254311465 9.553169878744058 0.22504377461134792 -0.20257464697455432 -0.20704605248234667
P 5.300568574516457 3.4759587299385504 1.2911604778188168 -0.945582065825281 -0.09941813148902233 -0.5944681043550213
Ni 1.1647491632638982 4.1975486128664175 11.631013200333168 0.3080089027506695 -0.14921448618585917 -1.9059034947432658
Ni 5.845948296587457 5.819025238852326 11.659028761065612 0.19080079426807783 0.5473842634933412 0.5189470911985707
Ni 8.467853473728738 5.489975948999605 10.869932765513477 -0.6310518170163262 -0.434134111217233 -1.7892713133688023
Ni 3.0720664928166235 6.587811622232856 8.644392869359837 -0.31169046536731476 -0.3629047834576008 -0.08405424743844232
Ni 3.2058100049069864 3.9774342992992118 2.285413326547106 0.006801853413181834 -3.066969973626234 -1.6130365898403574
Ni 6.644069034641159 4.108803611327503 10.246543877809243 -0.3649048446067651 -0.9506396828538467 -0.9957131781537173
Ni 8.527941138580928 8.809942315484864 13.20065528894828 -1.5303164878323063 -1.0968531774298529 -0.34904010966036664
Ni 2.9014023149172505 0.2545040450131716 8.928030018494045 -0.8676066775910671 0.20331769578816594 2.0010014015903796
Ni 4.729860960377032 7.808159728356593 12.49502355464075 1.7430943005921076 1.3468433375738933 -2.763568744850905
Ni 1.402252637441979 4.7273290985920875 0.23406273893187565 1.1762974369001096 0.8322974607668118 2.1487439312164023
Ni 3.049205543000193 0.4374908776878352 12.4427642580401 -0.6871735997105585 -0.24370535557659317 0.13836237396270365
Ni 8.011895771183102 5.594477848606721 3.348130314721583 0.8952812606882001 -1.3389940167328036 0.5608303616959179
Ni 0.3700552491279117 6.424019640606901 12.417598664804041 0.16284030449940987 0.8220449298008682 0.7816585555640216
Ni 7.18366164406086 7.695375951189205 11.377034076114969 0.4275492589108637 -0.047519128626885905 0.5284933401261092
Ni 0.5273478580839462 3.0226998251197235 1.9162484024424709 0.7599005950616396 1.008552753120547 1.4576882228426185
Ni 2.3605947828095375 2.988830377359234 6.4479684563111475 -1.7391304308483533 -0.25840846611472273 0.1089317274064124
Ni 0.6185783503128416 1.0970659130568758 0.6127086971125093 1.6857263041955999 0.10652980283313909 -1.4525861257293629
Ni 2.6312257672287096 8.649414858944258 3.094572240045643 1.2088388611712406 -0.9957494307082916 1.618991521872212
Ni 8.562125909787161 0.12443776075332177 7.664340704752814 -2.5741211221766123 -0.7819334064919631 0.2763092576545435
Ni 0.8668464104754784 7.231674275784861 1.063225215375264 0.7931346745244211 -0.15649456478704016 0.21186250003438353
Ni 5.346207006178386 1.0520766767244198 1.8582205416285056 -0.7345867988871995 0.5302455469305255 -0.5948386003205627
Ni 8.279512634429722 4.98807376556529 0.9311436433283512 1.360434703105083 0.8600314363469704 2.006016081196152
Ni 6.345856522938392 2.592366789650274 5.935029952275798 3.383799302882011 -0.1353564972568443 1.927017651014062
Ni 0.7128192540266917 1.7304208764904148 11.58122455567211 -0.4236704926817478 -1.0528340915364256 0.028255652411583593
P 8.915371636991228 6.587116055808422 5.851646376736428 0.4224055099263951 -0.33173427139206735 -0.1263234405202986
P 8.219508437548463 3.012164312344281 11.265390100461756 -0.2722499999835053 0.4232269773864259 0.26673935457792125
P 1.3411633569386006 5.611060152165251 9.860303261695679 0.06250146096833108 0.6021790998460339 0.05543812636364646
P 5.5323127587002165 0.5720820533941096 11.61867477938559 -0.5503153210972072 0.44971499637462553 1.9440265268672325
P 4.284281108883967 8.185054713991448 1.4815212420143908 -1.2998386866895808 -0.5759376496510016 -0.0522908389839164
P 6.227100148739854 4.166897319096315 3.924472016898932 0.44717757466475244 -1.4902293900034334 0.3309441713906042
P 3.1185303299688822 4.988491105419952 6.350075365158064 1.3776580089619046 1.289057794023993 0.5839206678564782
P 4.6728523362303385 4.034526391416837 11.401861160357802 1.4165562286889992 -3.1531376678632537 1.9261650732057793
