# total energy = -381170.3719846044 ev
CRYSTAL
PRIMVEC
9.22604362017536 0.00000000000000 0.00000000000000
0.00000000000000 9.22604362017536 0.00000000000000
0.00000000000000 0.00000000000000 13.50324742090607
PRIMCOORD
 96 1
Ni 0.8020522750163288 0.7696873135140624 3.707708031715503 -2.046439993539153 1.4420361181276584 -2.057311646146334
Ni 0.7983470958432073 8.947297297719066 7.032883069333108 -0.6673383101521861 -1.1939105219961825 -0.880381203647916
Ni 2.4341901590069788 1.9382903070266988 1.1136563673088455 -0.4377557671302203 0.11332471426778548 0.08598720279509707
Ni 5.873889922998568 8.97793698903863 12.76353958559663 1.1487077002072992 0.6029594296554841 0.9900806624582884
Ni 6.7378166604763985 1.0264342722272388 1.0337911195196865 0.6794916576852684 0.596550955025979 0.0807876608720286
Ni 1.8131021192774817 4.815699608157075 0.37735995136291395 -2.1349517625283165 1.384718772463428 0.905214460641512
Ni 3.6460494586779326 8.58104181262301 12.113169005584341 -1.5178795476205342 0.8137045282559728 1.1557460951113192
Ni 8.708185921648873 1.0232789652620804 5.623684229309653 -0.6765261472990414 -1.0368677980151564 -1.2490023207640035
Ni 4.736540152715386 4.397575305054819 3.805040025546877 -1.3551881099941627 1.8892298907423268 -0.8734523377385666
Ni 5.587042996525659 2.8121903978066825 2.0278908761890593 -0.4932969947306343 -0.14735737837246235 -0.02112984000007974
Ni 8.769409948025453 5.207621946987258 4.596653954655662 0.6378688399381595 0.251338960862451 0.4581039917692691
Ni 5.349158684275248 5.221101196917364 7.036798602303906 0.04615078752444955 0.33053433754669526 1.2585387994995294
Ni 1.053604971093879 3.5558372028144314 2.539731486574019 0.8446847786875711 0.10140739400490921 -1.3419153041446568
Ni 7.463057508187392 6.542528992255625 3.3474956052807854 -0.6455608092657785 0.3232367754440175 -1.2075227134629785
Ni 0.18019017021555456 4.931357292704513 8.378900116494586 -0.7969926148179306 -0.572231147333692 -0.13911159342390234
Ni 3.5180750057138677 6.393048631292193 0.99160964745915 0.44613627788443166 1.4017006517334054 -1.8499372637902913
Ni 5.826191276770883 3.286547437612563 10.662096843361857 -0.3157960028952561 -0.5709993318091199 -0.1245249538589791
Ni 6.432148604737634 8.952971314630098 9.235573338370056 -0.9075328243620435 -0.06416470760336693 0.632807366254852
Ni 3.0721710848569574 0.6576526963503018 3.8029060416257043 1.3788576856969608 1.3234781804853917 -1.085838571486904
Ni 2.3491075834727995 5.889592649474297 8.542599656097497 1.8041086354919509 -1.1403850392742167 -0.6934231801646961
Ni 8.064540204931623 1.880535273103042 7.526399834210755 -1.1621088041045533 0.9919297998518851 0.2547757544581418
Ni 3.7758414422622777 3.957262366715119 0.888817680931926 1.3131629146023125 -0.5152809552008931 0.6054657410171057
Ni 0.15974525724833036 5.761378319372531 10.668686083813657 0.7661290924698548 1.5396740177878063 0.1529227882753818
Ni 6.928786540218535 4.251896074119589 8.66562802700302 0.5561923487032743 -0.2577119542683303 -0.032039287823731916
P 2.6767243973113066 1.5963546732761287 12.430400984569099 -0.0622518068513702 -0.488201839595914 -0.1429664483936183
Ni 2.0090448366050575 4.18880838690394 4.576844716103348 0.39401024661315365 -0.42085976270583 2.025337921453215
P 8.933661205045079 1.437749755036259 1.6829097253940486 0.2448042450677268 -1.2104949087174248 0.08862489752826028
Ni 4.081491045913528 0.43931468040510885 8.10319087004606 0.0033650598174909787 0.7122688521162894 -0.592465986323328
P 2.1036394632535003 6.362787207766699 11.735631914181276 -0.8395474574610058 -1.09563138920761 1.6627681527375298
P 4.907341900803031 6.928223751549311 9.03263266685221 0.8747481737318547 -0.3505179797574738 -0.7659491152485648
P 6.861768558362075 4.191400905199874 3.3456586999686126 0.011410812940102929 0.19926435165439876 1.0000403447741615
Ni 0.860961487014083 8.232509557585631 11.194475549755996 -0.8023322818632892 -1.630295119810489 0.8907574046759176
Ni 7.6115599085125 8.48531238259236 7.2186337761214725 0.9317477310453501 0.12138897933315868 -0.21403893886041203
Ni 5.32723760430678 7.429871428790683 11.281193902848427 1.163341390960074 -0.8278327401272388 -2.9248370768775045
Ni 4.431481015864634 0.7987216732197729 10.470418403459124 0.2508077709493294 1.2061965384523874 0.06512424330315882
Ni 4.722590374553635 2.3586473127183365 4.452682464419995 -0.05826145474505451 -2.1625630964876823 0.7364518771203962
Ni 6.662052389137569 3.484215425122842 5.849175196980247 0.7903249729897679 -0.2396646098483163 -0.20941763803831676
Ni 5.33688804607741 7.548121631634055 2.010566211220714 0.5317725250980131 0.4030098790086027 0.6684886217065454
Ni 0.5383147429478883 2.5016233128325394 8.821712390088265 0.17900662984662719 0.6558372514911222 0.9520121377213411
Ni 1.8794465999396248 1.7801835951497489 5.602538137016837 0.17922543072565264 0.24177599976436423 1.0304017306748383
Ni 4.205258422924048 0.2981801986249574 1.5860371885418116 -0.4063430571468937 0.2895470965010562 -0.8311499774259299
Ni 1.8462143903241277 8.4070201752639 4.808385200665914 -0.6501414866579255 -2.801378359499511 1.732307494389249
Ni 6.05626112995846 5.744282460289377 5.087672306883705 1.04538097769249 1.1915206816077673 -1.5430614462028005
Ni 0.6795848475712789 7.112735400661006 0.04971453678875794 0.13160114397947015 -1.4791597624528332 -1.8186109428731843
Ni 7.616182156435145 6.680569058959421 8.953139228626489 -0.5152580723827578 0.28057343224753617 0.2374812290437523
Ni 0.4991760201186652 8.439274424241074 1.805951012760832 -0.33806612714736617 1.5766922468833686 0.9288169305518004
Ni 7.582479418588001 1.9120422125358356 9.880745042724842 -0.7669194495816342 0.08402570819335206 -0.9756896838439392
Ni 0.8260870416097024 6.671176946414007 3.1763017503334345 -0.0716972685349862 0.7287912752513449 1.6831734558667593
Ni 4.061950285234565 7.166587818075125 4.623133622844845 0.2645171501156219 1.0199067446807855 -0.3883931575366924
Ni 0.8064973828988238 7.203233663880999 8.6781865177661 -2.8820626620244556 2.2487891547664622 0.7141460145343443
Ni 7.844508287352502 5.771047213230676 6.691183622302737 -0.30735738520959965 0.1443353037166869 0.9738048081164004
Ni 8.906435149915893 3.5998362054952486 10.88332076579448 -0.5040521763646093 -0.02683794612845055 -0.4197968686589545
Ni 5.417754319614287 7.662589156536741 6.9400210937023745 -0.8963433834041272 -0.4240875256145083 1.913437341226466
Ni 2.0797624620083845 0.21579808609867812 9.743862844512648 1.2485919726994625 0.41514574304018825 -1.641600003300347
Ni 6.451098898616099 8.1533593281877 5.024693486984397 1.5280986542453812 -1.1098457330347788 -0.5850858918091729
Ni 8.69883993932225 4.956055411844071 12.926253783726212 -0.6748847550408764 -0.03380100770984501 0.3199953856885844
P 7.616569650272972 0.16749790181798674 11.257414697667143 -0.2344146743032866 -1.5046242252725248 -1.3057123718615382
Ni 5.525413024223737 2.2177748505809056 8.036120299740178 1.1132953821462763 0.9766381638001373 2.277689125630264
P 1.843806392903349 1.260932626418546 7.845048933516707 2.1614819476083613 0.5322620631399221 -0.7917017987326366
Ni 8.816305928446212 0.17971687417078083 13.037020742477656 0.1711292839810795 -0.12143731607259084 1.2924696479190192
P 3.7623714183759303 2.896341142921327 10.127287074437547 1.0531979026337475 -0.21121972424406202 0.11728472735679801
P 5.542204423862884 6.643434232834385 13.280187887383766 -0.10378874975289222 -0.22648847747767448 0.5269324233968925
P 0.05222678850399943 5.556061941587058 1.6025112122756904 -0.5634328323157716 -0.5781493125903397 -1.1569833099525302
Ni 4.637258695837995 5.215076590343538 11.373893500109023 -1.2947849263157571 -0.42116289576854565 0.7483637980666337
Ni 6.441817498595779 3.8752243856210047 13.073411949475814 -0.6199834750173064 1.1669172812367903 0.15079751440226288
Ni 3.123080394312347 7.343072809117559 10.183811354123916 0.14021973888641656 0.386129044092864 -0.6475264176325816
Ni 0.6006108356091209 1.3549091081352183 11.046344958994323 -0.20396227135070033 -0.1588684643358554 -0.3278696462303386
Ni 7.460068270009873 6.954139708464894 0.9101104673204896 0.9402377707942323 0.2762989732418984 0.05425927556419688
Ni 7.662589156536741 7.194026072210741 12.045328983229062 0.7289691955901059 0.9555813431298383 -0.24422857506991488
Ni 1.9998556970223158 9.051219454606619 0.1239186841281476 0.07180139821301827 0.5282675972685483 -0.012212997126424128
Ni 2.677637775643326 3.8463376426154188 12.163806146748875 1.1043500000275304 -1.1560078334131383 -1.54055307795865
Ni 7.3696069109649125 2.046447217999068 12.171003383484312 0.052370800292232386 0.04273610541594575 1.2249280534236195
Ni 5.421896813261528 0.2602879143074094 3.688385005669224 -0.9670073255785927 0.23087195125735077 -2.0437850724148094
Ni 2.687325121588987 5.424203324200971 2.80881089797821 0.9082218800092682 0.13333252484828004 -0.1880520278783471
Ni 5.766258896520393 5.240789574296451 1.5034511804484854 0.12319852173807169 -0.3948651384142812 0.39870250988250044
Ni 6.885424134557004 5.395713301076969 10.851412493458225 0.7750055690238782 -0.6274101064986808 0.156430287208008
Ni 4.214770474038312 3.2209871706698308 6.553058675996372 -0.8513418789927725 0.2514518322912314 -0.4610535613158963
Ni 7.056290464950954 1.850744377809194 3.7717948994701187 0.3112176394959543 0.27172498071797074 -0.06919661360031953
Ni 0.5910895584510995 2.65757113047017 12.804441405387966 0.0928438207056143 0.6428374967973445 2.4899439760070603
Ni 2.090787584298923 4.013698076381415 7.227735268288515 -0.6271110872010233 -0.9217836778541028 -0.6994282487081955
Ni 8.149770397165925 3.5000380901674224 1.710375657660938 -1.2932106398501018 0.11328923304415972 -1.1437138465371335
Ni 4.949597181213631 1.9890335476944483 13.134365652770292 -1.0797041764543922 -0.053408497528127374 -0.2490509361592227
Ni 8.61052824847285 7.560733633450931 5.2690757018534065 1.5797446605564471 0.4117246331737812 -0.6598427731060894
Ni 2.8382816495536636 7.930873282969012 7.583355892744989 0.20430602784336427 -0.9866065878667588 -0.7974911517209039
Ni 7.490929386379623 8.890188086858455 2.7379456558747584 0.7281425859237525 -0.44789311267453835 0.38867237934000803
Ni 2.0328572555438686 4.0252952133849345 9.851645178108452 -0.8569432843399498 0.18300058149736873 0.29259308241623155
Ni 8.95855307110355 2.998925523464001 4.2980567388528526 0.39717861703880625 -0.7747140059253883 0.9514932891033935
Ni 8.829720596070013 0.04532293996005816 9.13890377448049 0.46858020871024464 -0.19348065509308612 0.6352730541865254
P 4.552415997441518 -0.00482429828093932 5.671499123688685 -2.1645253624203753 0.15199693402700276 0.10830000735968445
Ni 6.240053147657049 1.081532205548657 6.2290344835971405 0.28684178175475117 0.06881711877371374 -0.9664663654734581
P 3.603526622998358 5.419534946059538 5.695777457837264 -0.8170017109500058 -1.549242892423164 0.5687539874183689
Ni 1.2867009666340052 6.336972737332451 6.281697663970883 0.3915941809724934 -0.37740400551504033 -0.1633136445914026
P 8.965417247659333 3.833587250142177 6.405575753506497 0.2614747637448723 -0.2948996190622212 0.5189578898318482
P 3.1551224442830916 2.9546036092516608 2.9415339956644 0.5320610028727095 0.07161910699888312 0.20075816259110588
P 3.019047524899703 7.816876286297973 2.7494366933750642 -0.3483698230662194 -0.07628000280966217 -0.5602454357267255
Ni 4.203274823516127 4.716372021060896 8.870377925701765 0.9667584427925803 -1.1443630500853583 1.3308775582732564
