# total energy = -340855.93664914323 ev
CRYSTAL
PRIMVEC
9.40616655004753 0.00000000000000 0.00000000000000

0.00000000000000 9.40616655004753 0.00000000000000

0.00000000000000 0.00000000000000 13.76687553587943

PRIMCOORD
 96 1
Ni 4.249696701431233 9.050397241014256 3.1489804918132966 2.635247300063971 -0.43396133308479456 0.15790584331226998
Ni 6.795663837649755 0.300929609471356 2.867847100744001 -0.021664886567943336 0.44395443974176446 -1.6042115353495598
Ni 1.9871655858861246 8.207538863007334 2.9200786037207176 -0.9460106687222676 0.5056868837545548 0.8110722328394483
Ni 6.220871803955435 1.0459845475367497 5.628421573546212 0.9890666193714773 -0.5113762208298483 -1.1269435690573302
Ni 6.211747822272456 2.7828802564754245 7.213402046846616 -1.299423453529033 -0.4454035134834652 1.0381847170543668
Ni 1.6852558538463496 5.874630808336402 7.65403862821775 -0.650562376245428 -0.043642933500931284 -0.39532536588015144
Ni 9.046916959341367 5.253466372892508 9.234090270176008 0.3943550315470821 0.5586302687208057 -1.4275569506748769
Ni 5.209323232646919 8.762117044498849 9.957691623269714 -0.6319666155211116 0.2442386023722439 0.28884364267612833
Ni 4.038208449719787 6.158301983176902 7.692186277819286 1.7485342406607565 1.4410884095024086 2.3013702712972886
Ni 4.849462107670202 3.602194999273585 2.3406032396346914 3.607149234730704 -1.4496681807516194 -0.9262450560595661
Ni 0.9361995324738019 8.899682232244798 10.494269223579042 3.955804450247826 -0.17662373143674742 -1.1911846384245872
Ni 0.9182459821250366 0.5474407822120856 1.2523398540890192 2.077696637560589 -2.2103869008391803 1.7344456237781742
Ni 5.166346457070083 5.022996476813792 11.596128282449023 -0.5221910520571652 -0.3928226540629557 0.21238906196181487
Ni 4.538466018614182 1.9491364539848 4.033460216777963 0.008223416351056804 -0.26954674211972934 0.35153613660934296
Ni 9.15160759452854 6.740016955550265 5.528667294634531 -0.32928812384442 0.834191592465731 0.2830257504427707
Ni 2.8894333126659273 3.7139496656400546 7.983851753724078 0.18938077399209963 -0.6131517968074538 -0.2998235387263997
Ni 5.177671481756997 5.245922627212354 0.4368393118810113 -0.9494119810943327 -0.09215553638933806 -0.6740756288760197
Ni 1.6943798355293287 4.77620688153923 10.22750845520211 1.6504237722395638 0.21602922981756342 -0.8562542286927253
Ni 2.6840684754654287 0.2047675456160975 4.837804104682692 -0.7561979493990719 1.4425819633287993 0.9715882600810557
Ni 2.3284401254962783 2.4755243539259126 3.3204464449031894 -0.3506563051075509 0.47135237213874304 -1.075230714064071
Ni 2.9059975721955422 2.815547873367163 12.776473336742656 -0.3797809903876492 1.4273463773259676 -0.601683391156538
Ni 6.638994725369651 7.768383752888851 6.135097910585417 1.7168543930589721 -1.1190677658536792 0.5567597911709702
Ni 4.250505631766012 8.158636202419904 5.946616201965102 1.5479879369701406 1.156473203085331 0.6972574663091218
Ni 8.086114657290246 8.183120454297011 0.7616464754783906 -0.7139552386797768 -0.6132309867848214 -0.773503787667371
P 0.8070284078761941 8.713863409412577 6.49237610219085 -0.09901961049902303 1.123652299900568 -0.801078097741214
P 3.7729733615789143 5.0896485739329576 6.090245545371893 0.412053991488742 -1.371996182690437 -1.4703151675780097
P 6.135633121469707 8.526981689745124 4.343669950299245 -1.5999393903367671 -0.7151472021053491 0.24086788612779808
P 1.0914633634513933 6.452395190702703 3.9210678123103544 -0.3948530542294232 -0.9647848640059772 -1.7936604435754337
P 4.246893663759555 1.2830387602939048 6.592928964653958 -0.7446979191792723 -0.21924876519612566 -0.19242058925968797
P 5.64382229025708 5.545631316248195 3.189881326403089 1.4284223839989658 -1.4049983486480706 -0.16454803121913597
P 8.174194002114387 6.478290367582333 7.447356927681564 2.0964618339832346 0.02587198267075544 -1.1131778827318055
P 6.804449197332128 2.2051440926091748 1.7017787262425568 -0.49062536143574204 -0.15736334054523865 -0.3080626388067404
Ni 6.78220361312569 7.3838596588680385 8.486920825840167 -2.193399108031932 0.1530893957602331 2.848670459717255
Ni 8.82416952610979 1.4821955274833043 2.9601535768756997 -0.4431154887802368 0.1793699267233169 -0.49901307127880506
Ni 3.3527058341608647 8.89412318773486 0.1261649137255663 -1.7667343086085507 0.9263805531961659 0.5637483066736614
Ni 3.0604938599717615 6.152771157167013 11.957880987545789 -0.2726557200623563 0.9033892345073151 0.6208738480420597
Ni 7.103781639700629 5.618134049044486 12.897525058259081 -2.3219892330992202 -1.5789825855794417 -4.287089807027932
Ni 8.625671190588236 8.895129647569991 4.459944279757128 -1.8773310824222118 -2.0503143888928945 1.0185173205324265
Ni 9.309969816811671 8.938981196648392 12.361952036551548 -1.6816523912365426 -2.374034274620918 1.9154214615360303
Ni 9.2032850742876 1.398932140001107 9.636207658361608 -0.5111702754666293 -0.32434157847242207 -1.2485462070631916
Ni 2.293439779267036 2.7503819505839884 5.5288732896849 0.9725549948696993 -2.235637190765537 1.6877446201772095
Ni 5.42662449536876 1.9924800700622927 9.784297406009706 0.11298198621638608 -0.341850791000779 0.004011692262554381
Ni 0.1274544991778719 4.576767929349327 11.942641116285209 0.34684952976695105 1.4083256132490907 0.8224429365702352
Ni 6.6457953838818105 5.328179554859418 5.298759887323487 -0.3250427183045047 -0.1832296667890393 0.3042823458287018
Ni 8.012755963325755 6.022467530100714 3.4507914591028954 -0.10269551668871345 0.23598021901819358 -0.4531803292154067
Ni 3.3860130703870803 1.0943416504565393 8.84037164822209 1.4068197181275255 1.2667658153950119 0.35896251098040116
Ni 4.9839702912440185 4.192949297829776 9.14336685189714 -0.5295428644365461 0.08638880910888992 0.6315302993146414
Ni 7.331316811774099 4.396733899027449 10.699313310495633 -0.28985022956377177 0.9134378769925688 0.6557927714064318
Ni 1.593545728682384 0.6180745096883694 12.795512358726697 2.1672625588458803 1.9315651611754283 -0.7719251303263415
Ni 7.900314646791392 3.3055903452432953 8.863059322262652 1.046541059438862 -3.7433619093402566 -0.04734583627381523
Ni 0.7817831971143925 6.824982859202173 13.344852245992177 -0.4531533326322131 -0.34631474030940357 0.056832949828644064
Ni 7.05666615078306 2.1402791671598713 11.547518153645447 0.12804916496215366 -0.6316619397964992 0.6378369582589596
Ni 1.5523749371087758 1.2550836329105914 7.583042763324152 -1.1295064446885 0.15334882006920686 -1.0361203783261703
Ni 6.124185816615907 7.509460202592596 11.713629176042431 -0.23656977297307644 -1.4873217294383352 -0.08011814560882977
Ni 4.234120089403384 6.960488096444439 3.8692906271844505 -0.5304941726062218 -0.6346655025095135 0.48969102254693075
Ni 3.8099490028116887 4.522174537918388 3.960868125398179 -0.849335390085705 0.3353196747504806 1.9589049866409616
P 3.207926116568684 8.699349694219961 11.049432468638267 -0.35500146945012406 -0.03136128792010083 0.005799637400912592
P 7.006427814526573 9.084833217242489 12.76700132689239 0.4453986283874587 0.8775247080357274 -0.6337334776135473
P 1.9479606831493645 4.92614117847396 13.509462984803147 0.027496405648055874 0.08916122964770451 -0.12482551581853342
P 4.617581286588963 7.295959031210884 13.465023550307027 0.6198621189480937 -1.439911615585488 0.3928617348310073
P 0.774624163651593 3.291669218551739 8.391942998370359 -0.8994104523652252 0.061899565718274034 0.4763811928119022
P 8.98731008106813 2.7006139226616765 12.477345948807857 -1.0172358827168415 -1.8372023327221263 -0.018395728898368317
P 3.034062531591172 0.8551616440289167 2.162817283150167 -1.174516433740287 0.6980866470786364 -1.8445286911802106
P 7.505566049585633 3.2235497594299507 5.637686647729443 0.7504829012921655 -0.05664551640818632 -0.3614102011899453
Ni 0.6748237945231631 2.62931517920087 0.5986432505536289 0.874740460422371 1.9125346269065382 -0.865639269452051
Ni 4.428658428751193 2.02940868046165 0.6521906762493646 0.020724119921228825 -0.5186493574524939 0.7348444234239603
Ni 1.877706024190425 4.819954962784114 5.313092063499111 -1.428035175862876 2.7514457363351257 -0.10816425311276856
Ni 4.159087097769235 0.926577023956598 12.192357910631669 0.9735883212302201 0.2661361737762836 -1.122850372824563
Ni 3.153389162137846 4.524347362422272 1.5438999809269571 -3.2158592152621908 0.4375878740937883 -0.9260982460690567
Ni 0.15164433803778682 1.2515939450710192 5.169585940875874 1.6549391436114143 2.2575512172298087 1.8367135660111658
Ni 6.085940342880863 7.143212290437793 1.7867201738610878 -0.19026651903116265 0.04943125804793422 0.0354817378463776
Ni 6.937348926403069 3.445177858826192 3.5181800590733774 0.3116210455819601 -0.3129186813474611 1.3853666904600723
Ni 9.456677798573967 3.8238513171698774 4.349534695226398 -2.3044903049835086 0.8499521977340974 4.0739528111565
Ni 8.111577150502436 8.727953847104436 10.584786646807544 -4.854610179149517 1.469825629536101 1.8390524985569874
Ni 7.209365860722733 4.4318471192568945 1.407580169649902 0.24849840608986234 0.05708646060034685 0.20281273112728943
Ni 5.768811433147211 -0.1562938062294328 7.749966478522589 -1.1585750799196821 2.120056333473723 -0.38477304428560183
Ni 8.946261569661408 8.262978809439788 8.767545343291888 2.7225925595488594 -3.0783234509658404 -2.276530586545789
Ni 2.589338970796065 6.954787959434248 1.22704196879379 0.7571369162735735 -1.6292939322394842 -1.0157986360496827
Ni 3.343083325643661 8.363013392118637 8.376868675643408 -0.9612699088741832 -1.6062380788612856 -0.13229457050206894
Ni 0.4974319564226764 5.445361579402259 1.9669423275166347 0.6662121669675429 -0.6118359062095076 -0.5672041264327458
Ni 2.1988701794312915 7.345379030965907 5.542172668758677 -0.25429007307097495 -0.6596134307041027 0.4983055036888192
Ni 9.037426137157732 4.722704605443576 6.648272027569571 0.3096891186665699 -2.387656750500359 0.4957284869902624
Ni 1.1543812123972155 2.5073548219828212 10.924167725064311 -0.3183372812598711 0.1662966384791265 1.4659070112079853
Ni 5.528775465551392 9.270689664741441 0.6284466896902469 1.2994638198486652 -0.04027375991838225 0.33421718571492115
Ni 8.525382641408932 0.4065251178934802 7.336423419666562 -1.445456199552801 1.8035293659497134 -1.4307428046020263
Ni 6.887872489647945 4.910301193778974 7.949503254846002 -2.240373419898942 2.0097246403959903 -0.5804766751719358
Ni 8.427953566901408 0.9333993166521287 0.11064191684781322 -1.869363490835703 3.0695156228662235 0.008306462983166339
Ni 8.827348810448807 6.631328699522612 10.965991304605753 0.321586127214472 0.20940941050820064 1.0668771998930529
P 3.0710852036573635 2.7339587835546264 10.230427188723993 2.393360742863672 0.8865449092564668 -0.1545523534590048
P 1.621181046398459 7.0058634445255645 9.453589754051778 -0.22315195690527376 -0.2837675137048016 0.7945899189137089
P 0.4892627006580708 3.270213752346713 2.624421150675454 0.9174464839313295 0.09444124709972122 -4.60316734571935
P 8.235691519891002 6.100472870406845 0.5028226305489809 3.9424128594322685 1.107056857435732 4.075318066935142
P 5.359116437081396 6.261186634360846 9.772154985437998 0.011457092797006074 -0.011528569464889822 -0.35681718250262423
P 5.403692260994426 3.1268261474236883 12.864732339350452 -0.02111724159458944 0.7009984214087926 -1.1163092292719357
P 7.200721593540612 0.7570816627868959 9.20753383977853 -1.0366919345589243 0.6617505316517636 -0.3719455535036304
P 9.046578337340762 8.590351034691754 2.502156974273528 1.4551047783861584 0.6495077097286686 0.27186999093626724
