# total energy = -340895.4409375778 ev
CRYSTAL
PRIMVEC
9.06182133808671 0.00000000000000 0.00000000000000
0.00000000000000 9.06182133808671 0.00000000000000
0.00000000000000 0.00000000000000 13.26289151123455
PRIMCOORD
 96 1
Ni 6.2974494526004055 1.8885651671676642 11.389455530762191 1.8197062328198916 0.4843580403697916 0.04352671963804117
Ni 4.700566197446104 0.2447498320298774 6.180839214363748 -0.27667821095818795 0.1954732600430827 -0.6013805152041385
Ni 2.733534717487222 1.699399642336083 4.787837882236308 0.4255893069710155 -0.784560559702165 -0.06223535179113797
Ni 3.4536051813994186 4.324455294062402 5.026171944609621 0.207824582519584 0.5203383151191425 -0.7937293706856265
Ni 4.918122409190133 4.702287943540379 2.35083405747322 -0.6705527033244257 -0.3836957520610231 0.6611072416408098
Ni 7.206513266734755 5.919625864943977 2.6319942884862493 0.09536041647988093 0.5145921566639847 -1.0350361441230562
Ni 5.108837505506562 4.229723011591056 11.354189639840657 0.5430347282753938 1.7741673678478285 1.2580772864820786
Ni 5.661400198088852 7.825435678519042 12.425963896976969 0.10155420399541865 0.630775680536804 0.19834595360518745
Ni 1.7307263594303477 6.562797711192902 0.4397140164705473 0.9362913845519746 0.5819697147776944 0.12428198461023758
Ni 2.8132334380090787 1.3994442872486497 0.26853077032044115 0.08369583565775908 1.3220157370072523 0.18388941186022525
Ni 0.650783776349932 8.933478970222344 4.557288830755584 -0.4251859008850096 0.48083742881104286 1.0231041685721607
Ni 8.611376523269598 2.3754749626287666 1.317983042435548 -0.5509961492143156 0.3616202603182224 0.34423780317571684
Ni 6.808146529627156 0.8104811636869109 4.9238222949443395 0.07828700593736194 -0.22541529901815374 -0.26994886265415446
Ni 0.6433385837654229 7.567907771923177 2.4988480382873077 0.588386931157948 -0.5980581356991248 -0.02742570031112051
Ni 7.483469718731288 3.8868871169346146 3.9743046970517546 1.2197938175208476 -0.7598090637890978 0.020474722914584093
Ni 7.719077079000563 3.8461723527157745 12.492092539729468 -0.029123142618201456 -0.10676505877239677 0.32182806802194897
Ni 7.807393591815345 9.007767783279556 7.138313997758349 0.2553953903200118 -0.11059445982081599 -0.32950486784091637
Ni 6.900640542175944 0.683326589896048 0.5632946078425564 -0.10451945727132968 0.06682708492687846 -1.3668264655640396
Ni 1.755193277612157 6.5417652233780945 9.134392240509813 0.8314657088941357 -0.06012833275046418 0.28814430261625856
Ni 0.061850556799304124 4.8183064448299 1.3883598671301354 0.05573303189624595 -0.08332662524379843 0.376767400372306
Ni 6.2238674616240015 2.0579668592012728 7.102371188767117 0.2100385594517673 -0.2554295859920569 0.27038286486777946
Ni 3.491392977257991 4.10393586667191 0.29496138523187937 -0.19837269307806482 0.715838828855735 -0.3855016949215103
Ni 5.946267620297503 5.650199786654513 4.752823909953829 -0.4734673615992168 -0.8330690488255137 0.43860500250439305
Ni 5.134092802163118 2.8087025272346695 9.361174292772693 0.5466643546081811 -0.061135433858739874 -0.8418316255094921
P 0.2507840989992355 5.568317167139392 12.516655513219694 -0.8984339473845687 -0.5228842214694479 -0.4430779506740821
P 3.874155257658525 6.232684613991001 12.816397009318576 0.33148307461320975 -1.3068264308613236 -1.2479664233003216
P 2.43985920473312 8.542742286858848 1.439262837316312 -0.9069784945204702 0.12986770622813118 -0.06871581730915907
P 6.4946618749673375 7.8051190746065915 5.834995701135254 -1.2122591997066992 0.09381081260457393 0.5093771881219485
P 4.873302639809678 0.8538800394485113 12.545329835146621 -0.9218628678314704 0.38498927406146594 1.334749639634153
P 3.94083214061473 6.313081094772117 8.213403975399373 -0.7596260012440144 -0.588756912902857 -0.1569645624449232
P 4.651813597513462 0.9155067692555596 3.7286767745137968 0.5581301891559356 0.20051185090825469 0.882908340945144
P 0.32106033747463086 5.686220527311066 3.634403926394976 0.7694684412557329 -1.4471505565360883 -0.962937012163961
Ni 1.2784870932150236 1.2348906697436592 2.555825147457657 0.9965549573287223 -0.7798744670804053 -0.34431365071897474
Ni 1.9338017803393648 6.7338667783914925 4.9823507879638465 -0.5871934250704791 -1.0161899579508307 -0.7313613499713663
Ni 5.994965849300852 5.632520172812768 9.28214070995252 0.666026276208982 0.11685046803285683 0.7055996676262299
Ni 8.853943362488366 2.606352052049558 10.384327346388819 -0.6065345486012522 -0.9487530073540952 -0.14121501292015035
Ni 2.222556723992459 5.26451959971526 6.956319998500503 0.5556650154448947 0.6693715385321312 0.7398886707160871
Ni 0.5482075811459288 9.134044266562338 9.326995820437014 -0.6406597724197354 0.5171982268282642 -0.8409103992468034
Ni 1.383921386935524 1.0362827268582093 11.421365829164202 0.8675182316423189 0.6312405359883645 -0.6809435596404466
Ni 4.021156126823455 6.904056848899849 1.546465998603142 0.7126005244240954 0.7262651663953814 0.8340740930512603
Ni 5.567338490412118 7.72638996899046 8.066915099151952 0.35084091031453124 1.2801736041604856 0.2134594122078582
Ni 5.3493654348768445 2.8950798102380055 4.8321891554426895 -0.7858867347127562 -0.21610379180924072 0.0808694219525575
Ni 0.7595075112926534 7.696250350519089 7.013987618472873 -0.5501309730005428 -0.631491732767222 -0.4018564821304499
Ni 5.123282049055378 4.61171503715994 7.323716148100707 -0.9169258355411692 -0.5615425572715942 -0.6317444722079766
Ni 8.317728195980143 7.278355387973787 9.161925679103742 -1.0695022962207257 -0.8199538515997943 -0.16293080733068713
Ni 4.638166494260941 0.25233729521270293 10.438148223113716 0.24539379902260963 -1.2092538372214723 -0.6597296445669928
Ni 8.047749346576202 6.9922374343913996 4.577090723204061 0.5628751600400888 1.417389780333888 0.9357892481045754
Ni 7.161856610142179 6.074111798708231 7.02385503595738 0.5542943603496132 -0.2223268899008171 -0.04470351355496172
Ni 2.399198811443573 5.249685397839844 2.409045386738519 -0.9021023973750916 -0.4485497724219307 0.8223727454539321
Ni 2.2362672599958207 5.421805636338098 11.491924796471919 0.37530187157037304 -1.000718858898425 0.03952016958180936
Ni 1.086059312625868 3.3616186308573646 3.7620985847501487 -0.47904639834889107 0.7777278530510476 0.23972837320671614
Ni 3.6293410866956513 2.481815438504149 2.557973705346882 0.6586089006989884 0.5200981740838785 0.1688579714483995
Ni 1.3724038117469761 3.2389578143725606 8.158521959371111 -0.7457834389339673 0.5031175803654819 1.3666799126838463
Ni 3.6522856188572588 2.6169725069047733 6.985339575828439 0.8233873027613755 -0.23458051045718956 0.8690747774961614
Ni 4.16482224565842 6.810511665051398 5.9164433532160325 0.33078090633986257 0.5251570766640246 0.7399259517119257
Ni 0.8621879174444679 7.4124703468962965 11.35578089570463 -0.5943644888976216 0.05019796101062968 0.2073353015879913
P 0.15250955048445636 5.702232765987827 7.823978537613992 0.18101568985685598 -0.19886325956123815 0.8182587232855585
P 8.735387551165177 1.7046011279051045 8.253749923481177 -0.5116896383052091 0.4092823422808758 -0.7349326122623925
P 1.9682820113326183 3.349185811692386 10.422007306570961 -0.6450095647479988 -0.23684693789386307 0.08340170145610798
P 3.9464957790827415 6.1557406872199865 3.728291647097972 0.1401120096639587 0.1517285108569645 0.734889931949915
P 6.924255649132165 3.840445281496921 10.309882670000968 0.5414411585360289 0.7805730358093267 0.20839948118644755
P 6.445456183957255 7.729389431923118 10.296460299922858 -0.7375515379424782 0.14291528344070872 -0.6987587334449965
P 2.5386693069014346 8.724694601737571 5.845845420075654 -0.5706686879425784 -0.7766081376243077 -0.8434761030914506
P 6.769923766334241 3.944701538416075 1.7316162303064415 1.6161478817758297 0.19527117133460564 -1.3210371751440668
Ni 5.455071583243809 2.7572404426589308 0.35935287679347216 -0.1159582952358906 0.13940752739776635 0.017227419621880007
Ni 1.40112978605673 1.0994798703396678 6.961413648393094 0.05817018058282885 0.3546767391208537 0.23741258058934597
Ni 6.998562585832475 0.843569498890266 9.246423540317853 -0.8924412201362437 -0.5563697548214032 0.4536153598702963
Ni 2.769292665318859 1.406313147982654 9.282644547230635 -0.20005702275902318 0.7123328725850054 -0.4966525414664285
Ni 6.234161690903459 2.057377840800599 2.723667300002714 0.6809541011634078 -0.3040082662317087 -0.6486386768601538
Ni 4.215776868227425 6.682513435674339 10.67311310023518 0.10016503695737587 0.6084564482143133 -0.6037415592371472
Ni 8.314484063865667 7.287045674839104 0.4004998899001912 -0.8348035150181171 -0.30883988329239714 -0.10489278145034837
Ni 7.798268337515685 3.7919735980322926 8.248272052354917 -0.07782729269212403 0.10156525973901218 -0.2815859326724505
Ni 3.1168225835375885 8.376122574040728 12.338176594540634 0.1291205436494615 -0.5007038287176667 -0.004425382761205281
Ni 9.291266870434335 4.897253034163204 10.036746681969417 -0.36828790214638507 0.5161515307313046 0.12012553923970279
Ni 8.568042892623149 2.3970511597365025 6.070199810345606 -0.026699363668057245 0.13212744879658533 -0.5941282045170994
Ni 3.7246080166383777 2.4656038397533133 11.28868354422856 -0.8838547640188134 -0.627402393189197 1.3347542676198432
Ni 1.1983352816157262 3.282889525241232 12.612068338489358 -0.20346887665404959 0.3092152643539449 0.08212617717779404
Ni 2.8612792158609133 8.336323053798317 7.971674448491716 1.8592125184446304 0.021029566976789586 0.13744886100949877
Ni 5.846660077832893 7.847193112057755 3.6347754610784775 -1.5855203866979597 0.3911388386026296 0.06133212325057824
Ni 2.9876916264669284 8.388636949599645 3.6240317654501983 1.142814731761632 0.21777269487123138 -0.5822224542184489
Ni 3.523209032715892 4.558848370244134 9.439505584422834 -0.3766640420252223 0.012338466960694879 -0.47847329945424044
Ni 7.42333547093333 6.138079197021339 11.408872295794845 0.19618134185370084 -0.5805684635547937 0.14458675760586068
Ni 0.7540794801849112 0.08736502155215682 0.13221288257941324 -0.6259342932841027 -0.9717103874812169 1.3511743608490794
Ni 4.517870813200378 0.2652531094662336 1.5184287227310982 1.1029271515380745 -0.27374946734716726 0.46611580633015204
Ni 5.989655621873245 5.720592016445733 0.21535509528982075 0.0069540627203299584 -0.8094637507017478 0.8147180571221517
Ni 8.026245644040856 8.857033443636512 11.354374501000253 -0.25092244215032267 0.420855648940772 0.5959040654705996
Ni 0.11812356243531062 4.8805520970487315 5.758389780308009 -0.3772975618441631 -0.2897234741779204 -0.35757051572888093
Ni 7.811716080694132 9.03104760283847 2.690298048331346 0.9291308622477934 -0.10742069007852467 0.2460869684348923
P 8.545977357151777 1.655467931467412 3.744340133060929 -0.21110325327085577 1.2518881269522313 0.858091024791148
P 1.8910843535582356 3.195696678298502 1.5701807855963992 -1.150894680556289 0.10653828747357136 -0.701193053918102
P 4.724589086372021 0.9469965991377031 8.307133114225266 0.21402196957954756 -0.09339377967181334 -0.5431373152915292
P 8.579134562198902 1.6549514076391296 12.499718062562799 -0.8717317555030342 0.28554028933450826 -0.3466471839481578
P 6.470783975186201 7.832839186724427 1.5259355357021394 -0.7946171726072185 -1.4258885618335184 -1.181060662616708
P 1.8346292053090978 3.2593559746789507 6.068462659154697 -1.0396798135426546 0.23419587342426118 -1.477383644389017
P 6.799945581125476 3.9095597944497578 6.152642450432445 0.6910991600172098 0.9328877581870643 -0.9350809091836413
P 2.3431605069856807 8.476373505835303 10.158857445886209 1.7116504802605297 -0.3421639513658236 1.1591764609491069
