# total energy = -340887.3703790887 ev
CRYSTAL
PRIMVEC
9.17369668430742 0.00000000000000 0.00000000000000

0.00000000000000 9.17369668430742 0.00000000000000

0.00000000000000 0.00000000000000 13.42663238895799

PRIMCOORD
 96 1
Ni 6.705733618057799 2.156396618021325 11.667742933107936 -0.6637166542391989 -0.15714762499000678 0.8432007379428768
Ni 4.827189919324621 0.8028709083662029 6.38714306476665 -0.34127254989980577 -0.3580055463837705 -1.1086810233027165
Ni 2.737036563657354 2.013020915579617 5.298994964542968 0.07195617862332769 -0.8117448334264407 -0.5303237084666286
Ni 3.482023281911158 4.652164963992524 5.1705962389907825 -0.4314671059080311 0.7108089797413113 -0.4717532071215876
Ni 3.071105895036025 2.9395734347628655 3.1247931190042646 2.6203467288030553 1.3138082614957955 0.3697063797604665
Ni 5.21057704303336 4.779596781934668 2.8603429702879595 -0.031651051246377744 -0.012024278154385743 0.5434034244687221
Ni 5.446139221502755 3.0704270414957677 0.5610247478011792 0.4298030879420469 0.061938389376009456 -0.5276595313709042
Ni 5.946958833979574 8.379685537671712 12.602652689793546 -0.84121944584679 -0.0006543457545472601 -0.24682101838743942
Ni 2.400582071191291 5.679004333204101 11.908321288818044 0.44578377964101934 0.22283416855453883 -0.7802434203840499
Ni 0.6772206222824106 7.9740705473677815 11.686916876141618 2.0727058692142175 -0.3307690792653207 -0.4176080885377517
Ni 0.4322728349341286 0.5808105763907419 5.112244190357393 1.5455387040986996 -1.7278630854646502 0.6989459097551382
Ni 8.776347000201435 2.74390766232834 1.833541213231991 0.7724555489085149 0.27645761030694965 -0.4724623173734702
Ni 1.546015548364821 1.2610988827793979 3.006612056602604 -0.3829406190625534 -0.2136656146813933 0.21233481168511176
Ni 1.9700513212206074 6.946011076523038 0.5414756005810576 -0.7739524451690155 -1.1965862690561326 1.0195606741952763
Ni 7.76872652513634 4.499000927396019 3.7188413394300297 -0.05848796893356378 -0.8726905198718777 0.5957621405760966
Ni 7.704859250173183 4.1241912099054 12.641872077027456 0.8115712839630539 0.5286944003933217 0.6318835688890021
Ni 8.203532217671349 0.24914934034068728 6.953559193994984 -0.793482287671827 -0.05813958445520955 0.6763284294659385
Ni 7.067562555015113 0.9994008430100834 0.733414100131709 1.333321906048691 0.08630781935930941 -1.8794296168224534
Ni 1.8082456625305536 7.015822906811694 9.679339632059147 0.6201313134490805 -0.7807000483054941 -0.3763940761932873
Ni 8.795143904309379 5.600092195997397 1.167254719795973 0.4847334214313393 -1.4549965349430685 0.10854760459411629
Ni 6.84832955629786 2.3515670108453928 7.288888991271376 -0.6576257108501127 -0.6728872649948734 0.3488267080979799
Ni 3.6251054260651867 4.606085486523415 0.9303137347441351 -0.4107301304709959 -0.2912568801033113 -0.8119577207681951
Ni 6.370517574617881 6.314071820115109 5.000560857179578 -1.7458998883617027 -1.3483893419047746 -1.6964981980001235
Ni 5.138563525587112 3.1835754140030317 9.810155626636439 0.2286492325744191 -1.1096395305612436 -0.24462581050833357
P 0.2330880325260515 6.004340305524323 12.44680993382197 0.7265667567962003 -0.3589231731020335 1.9322225922537688
P 4.142190002418718 6.335134627256075 13.066784855267683 -0.9483102633897216 0.9967539607134059 -0.43046180457196836
P 2.772740590396309 8.775044335299858 1.605422572094555 -1.1851633719311718 0.8458404895585689 -0.26920118585485253
P 6.656874510552229 8.253684816382002 5.829803390845492 -0.45005103955780557 0.9443685051331542 1.155697501261571
P 4.812530352333653 1.1402629526135406 12.976369820032208 0.7272753528274507 0.5146636333318685 -1.3807567024918865
P 4.495423185764932 6.804635239916143 8.340838602515294 -0.1168818354914245 -2.042350911071444 1.7874075206871862
P 4.490753774251538 1.4827445636735124 3.8822166175895174 1.442737257959741 -0.7043866211547352 0.021132668213557155
P 0.3232351958240191 5.987378140714372 3.784792878235707 0.05540547335349813 0.5218658075072625 -1.0027893682742084
Ni 0.9237820628432779 7.92031268593657 2.806823624965487 0.2721139886262733 -0.42509565516404857 -0.3183120844488905
Ni 2.0804200636914114 6.972807443970234 4.948076304821174 0.18497621716650078 0.20339919975837872 0.32982188486070296
Ni 6.2275546885182225 5.523115708750077 9.170913190452849 -0.7347917158091538 1.503398837505856 0.5347601469714274
Ni 0.028332044239616872 2.3312931416025635 10.67865699443117 0.19004360438707915 0.6863613882219082 -0.36229620333932444
Ni 2.2943414921409726 5.864129528371654 7.453700870301192 1.50571437301291 -0.13321811075760281 -0.11741456806644295
Ni 0.657379751513908 9.104343344503746 9.212576450431687 -0.5388309746066914 1.131906312379244 0.5505927431283099
Ni 2.0517614358567515 1.4308764837192338 12.012713368025635 -0.9029457192119932 -0.06327716279209102 -0.6900699474217471
Ni 4.2416053512805 7.114504359954279 1.914691732382247 0.7105205019666151 -0.24104143559118488 -1.2595271315547276
Ni 5.932491914614894 8.486494885904408 8.002715414657706 0.6245600386443954 -0.06771771506194789 0.6818362466580451
Ni 6.8027179373497395 1.4651769348952237 4.729141451239845 0.3535248849045976 -0.9553625422508127 1.3788047209718384
Ni 0.9040870538489659 7.970804711417353 7.06963214094325 -0.11161030267984004 -1.0061652267249768 0.17622829577054167
Ni 4.992931093808871 5.057165316631626 7.0618711937127365 0.9918302981595435 -0.543528894302993 0.22184455094775987
Ni 8.147719448226383 7.358286170478686 8.831541462502974 -1.3626952170044855 1.9909285907354097 1.4810952889126492
Ni 4.889965524405472 0.6272056290191056 10.70122703990544 -0.4340744616238912 -0.13426249286171715 -0.2027849632131475
Ni 8.554939835416059 7.513009735478484 5.010859248859216 0.39656643737610414 0.7609501193720766 0.26101813582342787
Ni 7.360075041294229 6.128919103858087 7.003506301904263 0.7759859306592765 -0.47053090467871217 0.9761095449901769
Ni 2.5544524824175228 5.55074688257786 2.8341603231359422 -1.1953727083640058 0.416366759931483 0.38710246374972684
Ni 3.779085921649298 4.970161979120771 9.638227711239356 -1.3624815583317826 1.1414376489084472 -0.6814274412554007
Ni 1.1107878657912738 4.015308606265972 4.192653589440382 -0.191950848712121 -1.5740594372462118 -0.661569525989209
Ni 0.9146771690769848 0.6914205870792319 0.86259534199449 -0.6029609723173809 -0.5119981706845634 -1.0891498952483243
Ni 1.4181158719016884 3.751280447588205 8.658109978251185 -0.28063076784803287 -0.17154605980352391 0.041029150027168046
Ni 5.171772306880795 3.0613542556671893 5.401252324577342 -0.19581855919764338 0.132594618240991 -0.37531909796155366
Ni 4.2981153216587025 7.159482993844591 6.275057006312925 -0.3544635946687831 1.499681793665585 -1.8115509507026093
Ni 8.756357515549794 7.8472625407869545 0.35226077151827756 -1.4308183950349682 0.6191383534081917 0.745507045344129
P 0.3188942026449663 5.943537045188815 8.335051834769422 0.5782858381682041 -1.574987605487436 -0.2727865892132657
P 8.914778080235049 1.866994014852308 8.471573868563475 -0.34002427931500145 0.6253789350012648 -0.3312966696340165
P 2.3284217746012037 3.7341531562414354 10.85263890047236 -0.9693729975972919 -0.6911441543225322 -0.8983915241824076
P 4.2296887195400314 6.545982867381498 4.012897758828409 0.5854792705928497 -0.8793149671669308 0.7445235983849372
P 6.915930525732433 4.054627069421974 10.623916630105885 1.4058529833388822 0.24259463901091766 -0.23371070625772652
P 6.617501005217288 8.299819336030051 10.474612884992359 -0.28248376189637153 -0.333708878619935 -0.9757020251391132
P 2.5133359747494866 8.975388692944268 6.062741892118757 0.7054968234997785 0.09663774053040776 -0.5163554192119947
P 7.045894283905809 4.158023802560402 1.6193188875375584 -0.009938599269950625 0.18092081615020453 0.31276107272367426
Ni 3.162631864916435 1.8671958361750873 0.6793727714789571 -0.9127020272678089 -0.021303132353150407 1.5211286506854513
Ni 1.566014206712951 1.4370687288499622 7.353122296724482 0.5935113968687069 -0.42303183065648436 0.44605708790706405
Ni 7.160198542170809 1.0330499617352857 9.539179310237174 -0.3751213801284507 0.19378121705264048 -1.0341856231973028
Ni 2.859532932887895 1.8564350901923548 9.657736494194921 0.19090415261516155 -0.12561304471683526 -0.5029941674137401
Ni 6.300815828687105 2.306010434076212 2.6231744775631705 -0.06168847814873247 0.3287240238108338 0.9706976299459863
Ni 4.296482403683488 7.26828303421561 10.758021394874831 -0.053206923040282565 0.1882212064663597 -0.3991154290502029
Ni 7.618993451027084 6.640435246442208 11.485342325797903 -0.8254853229409848 -0.15549414854698382 -0.313616221635118
Ni 7.961209024888846 4.0890834734382935 8.622247246562953 1.1399551508256496 -0.4222219331606793 -0.13437382162860081
Ni 3.0753808376003504 8.516465352337134 12.773090796880657 1.5246315216323871 0.5832609227852922 -0.8332045459621134
Ni 0.33378586415713113 5.0275251032725405 10.51824940708619 -0.35116461220253714 -0.42885975019217104 -0.24166955609348703
Ni 9.067575168971954 2.749347664346891 6.234522111002352 -0.8074330934249642 0.952627916928469 -0.531732158778381
Ni 3.91855362938628 3.100993798200341 12.16144100499959 0.08427099143493874 0.04568824606573422 -0.8111784194000095
Ni 1.1711232676057926 3.754564630931614 12.851797443285987 -0.2900898563784036 -0.36343108827471604 0.621096248465511
Ni 3.385460952657755 8.581635292201865 8.150771537048596 -0.9556471633707672 1.1814103326466427 0.6849935613401041
Ni 6.0676846797875506 8.480972320617447 3.7486622746099685 -1.063448376717162 0.4890487609772417 -0.43210679637455907
Ni 3.4001939092206435 8.580864701696708 3.6808172848487617 0.07416475623887227 1.2403040216590575 1.0890064276919247
Ni 3.616775709652296 3.1975928222397028 7.428982345108975 0.5649742086609625 -0.7605971069080321 1.0399670057657704
Ni 5.2916633463081855 5.093694976054679 11.622911995731112 0.007563414169554716 0.08340632944179828 0.030564245940102198
Ni 8.202468068878511 0.31143231792002635 2.722236639110089 -0.06896624275706832 -0.49271489697491916 0.2235206530986021
Ni 5.0500923966378615 0.40090246241703437 1.6037171819170701 -1.4561111081634859 -0.7147206560908916 1.0796234438151278
Ni 6.006982330113433 5.702424780342989 0.5149837998573282 0.7258339923952338 1.1353500479534704 0.12342297904405196
Ni 8.178001820339768 0.19843989825309172 11.663392766232391 -0.26831518370547336 0.29607487031724494 0.43227623207288784
Ni 0.4573427127019129 5.454358853557767 5.966782274724745 -1.0245193037521325 -0.2091358451318398 0.9485455193289793
Ni 7.479048711072623 6.804910450810842 2.84723834485204 0.39807053272545634 0.08016828212047483 -1.0498788655628435
P 8.72019480398634 1.9914443814352125 3.9873737830843705 0.01297815742722281 2.0932741802838724 -1.1859753263095059
P 1.740103445003072 3.680312731541814 1.7783036345569472 -0.9871398346624095 0.34738431922449853 -1.4319365677998113
P 5.060706363476754 1.5581523488210485 8.388664751796092 -0.4917592179298692 -0.7356059841803331 0.76811115589689
P 8.840874781311868 1.9596483494009838 12.881497285672259 -0.20209976422066483 0.15959428675828644 0.17293342706935377
P 6.519902048260519 7.945466961712062 1.167911556464655 1.2410974640946304 -0.3515729033845494 1.882999079341267
P 1.8677370842679955 3.7560507697629886 6.393130736465652 -0.48605599689750484 0.20226637170551617 -0.15449501785850814
P 6.935791578633213 4.106862097235852 6.048952908924686 0.669613222229292 1.340334589921098 -0.38589455948455476
P 2.450257637684467 8.955995498564477 10.43022411978635 0.9175698968830713 0.2871243459921765 1.0847502235187318
