# total energy = -340890.0563817282 ev
CRYSTAL
PRIMVEC
9.11608880213896 0.00000000000000 0.00000000000000

0.00000000000000 9.11608880213896 0.00000000000000

0.00000000000000 0.00000000000000 13.34231743030604

PRIMCOORD
 96 1
Ni 6.361853917292742 1.9644897604497593 11.397981495741309 -1.3054406062573907 -0.86444524914395 -0.11273516031290262
Ni 4.7678693487201755 0.6381252953985769 6.252463588060924 -0.2961247497185739 -1.0689435955037783 -0.24814153697107585
Ni 2.7334683042484156 1.8016034880667735 4.796042620759555 0.14345418666331425 -1.0009646563606438 0.43499620210721207
Ni 3.3592057467512437 4.382751066702513 4.732212679490334 -0.3058594605078345 -0.11098501039101531 0.9333814099940313
Ni 5.036228767032822 4.769254994198249 2.9701201429437276 0.3264036032077733 -0.2117084909550225 -0.6217979025182259
Ni 7.102162362219421 6.256016127816222 3.0753243642575767 0.06503682579567507 -1.022407399615452 -1.4058198161081015
Ni 5.081079923296772 4.5142050653460455 11.283518063163783 0.23428071982858362 0.2235381366000989 -0.4563103902039561
Ni 5.716279865840654 7.909209692310407 12.624246749134702 -0.5265421299370093 0.30022000283387007 -0.7487044692355042
Ni 1.8096347621863957 6.328853676301786 0.18352874357080953 0.2108713397657078 -0.634952437622313 0.4619375065827464
Ni 2.8549584179739615 1.5897364712516304 0.2633628901117765 -0.4555295461738735 -0.4426642601754312 0.782169433762169
Ni 0.8579980612850617 9.093918343885742 4.745822088268069 -0.2875938294294273 0.15900344725182292 -0.2270512919596799
Ni 8.61842315877848 2.702054262686306 1.2804995997269562 0.6100466755195687 -1.755266160067951 0.6576884457672479
Ni 6.911608760718327 1.0357791109484684 4.63314632067903 -0.5898344622377518 -1.4293790914852802 0.6617680151532603
Ni 0.7560774551106999 7.362864266047977 2.4502232247440214 0.6427482795176479 -0.4638915449853237 0.4045720812894
Ni 7.36478776075767 3.7887649610426406 3.7659893251056773 0.8369997513384875 1.1356660365319926 1.4999851838386167
Ni 7.498520781569088 3.5541897673467036 12.460590167258971 1.6391353438099383 2.082948887098464 0.8973556267187255
Ni 8.447341522679785 0.061823490152615485 6.728130155635211 -1.4209934385247462 0.004121478367541289 -0.32402610411453225
Ni 7.106483388249728 0.45042138321620434 0.6378572823916338 -0.3512592287988725 0.5127268213204718 -0.5958680700263416
Ni 1.652883617479353 6.3400208849244155 9.232629660720683 1.351543314152724 0.6142915668388518 0.8460888581239492
Ni -0.15458333882095185 4.918111606115744 1.8807593976105783 0.1993584540301018 0.5994575871498127 -1.5937144924729778
Ni 6.717946572980239 1.8529361833761866 7.1442768686641775 0.6508053454941695 1.1000462304458538 -0.8274822987663556
Ni 3.467851291538597 4.132687638353638 0.3493950653405201 0.6253097723262263 0.8187035241324611 0.5844348884887354
Ni 5.943142848520472 5.986034045720044 5.145624565917841 0.5890214794181533 0.058154496853545005 -0.22729786075284725
Ni 5.414227383798016 3.368549737639567 8.710705324400429 0.5371134776949523 -0.3061327687738792 1.006451390506828
P 0.08166465714621123 5.387836307093923 12.498535886354237 0.008171737177514958 0.572059397642518 0.32869497034511136
P 3.973630123212697 5.995150134391579 12.45860194831971 0.24475693676955912 0.5497841311840854 1.4337617939340082
P 2.3766737097332107 8.160002407753005 1.241793598836486 1.09093269818036 0.6267819859963787 1.9625441260554457
P 6.524375546128867 8.238656020811007 5.743333682191168 -0.3435495188594406 -0.29807853101083503 1.1926445107995656
P 4.7809600520524995 0.9396226076411182 12.701485545230884 0.6949419308020677 0.40838656993948375 1.4672419279693245
P 4.038864853746201 6.310256855411855 8.384032110073708 -0.05373939850498487 -0.3552986889755687 -0.9416361938036558
P 4.697876019900131 1.0188869986401143 3.7282304858281803 -0.08338704616808865 0.23142653820924014 0.4037668117792853
P 0.19526479612654354 5.626130864967845 3.790645610135578 -0.0717214369047023 0.271673558654745 0.9201101468064219
Ni 1.8798742254005725 0.9167776894302517 2.421057210648313 -1.352985188805573 0.8990620678868708 -0.03886890915105564
Ni 1.8160798368771711 6.512351425171112 5.0159108286017045 0.19310835935533194 0.006378649832834177 -0.38890300729357535
Ni 6.1876819271343955 5.7180666192202745 9.145224602538008 -0.11004321530303629 0.4155380933826005 0.19124071001897386
Ni 8.592925458764197 2.2165222639516853 10.593332608579804 0.41438881026950564 0.1892697023355321 -0.7602194118536391
Ni 2.3980053572246023 5.355300986625214 7.151975405547289 -0.3532310078132626 -0.06397496019006402 -1.1962052315676301
Ni 0.6903923897968224 9.336880339159489 9.608963679694456 0.04077358237293623 -1.2616418639048852 -0.989411918526038
Ni 1.3325989580936453 1.0906579647511088 11.682225698564103 0.9393183443037564 0.40508064549470235 0.24965514540212486
Ni 4.142378040611479 6.686787781900933 1.379528582574707 -0.35048738362985443 0.6100608165869558 0.0758259459913791
Ni 5.650899277888406 7.997462546739537 8.290716179996409 -0.41387176142377113 0.11146323557901448 -0.885428022043204
Ni 5.1510550199394745 2.8137536971786234 4.9329617145616735 0.1572476409029808 0.16296705988526125 0.06440819107274069
Ni 0.8747981010978335 7.5263339681059405 7.037085340019935 0.628500511349382 0.004071598966212343 0.4589879370361192
Ni 4.8715648573588854 4.746957041307676 6.933242150744746 -0.3412820629815026 0.49565855298427547 -0.1681123515316266
Ni 8.461143280928487 7.154096719381155 9.260622434204366 -0.6921661678291435 0.8838167116920264 0.5239039209832138
Ni 4.601883606188868 0.38956693328937303 10.739257486380533 0.22452698287592943 -1.2907302966304093 -2.161792793980561
Ni 8.332114161871583 7.355325260716617 4.847463742129082 0.4287926443996615 -0.19013282166677575 0.07158054045146384
Ni 7.502148984860359 6.727317912134577 7.0845838084341 -0.40803998523334245 -0.48622209016172385 -0.23684950899702437
Ni 2.3194429050533145 5.375894230934212 2.727636742325235 0.2776837694045669 -0.2801296598418982 -0.7603302263998906
Ni 2.269021818611055 5.070250009954989 11.479903226588059 0.32798586009322866 0.8460819161454138 -1.0406727735835433
Ni 1.0533458138185163 3.428013984043989 3.691125270108431 -0.6451332348100567 -0.27988206260746634 -1.0623957670829318
Ni 3.780852196075748 2.6937039254631805 2.672920154900948 -0.268708305378834 0.42055200165742407 -0.5865827880696737
Ni 1.2256945862425552 3.392725604796478 7.966737681480995 -0.18845003464771415 0.12402513140442512 0.6465861652064993
Ni 3.5732697409362264 2.643410464262322 7.123903322092165 -0.40618159186836506 0.35519018842216243 -0.5498247546140337
Ni 4.097472187815499 7.140003246294962 6.260482099656407 -0.12213382791898321 0.5823504951558809 -0.15615620761101492
Ni 0.7187725970490448 7.340666590132789 11.318114531281124 0.8445983896213519 -0.48063791120572713 0.6413424003090568
P 0.13787810633036413 5.605163861023315 7.985163119903902 1.0457262768470508 0.617529099939543 -0.5642103339117445
P 8.69746876364936 1.5307280292807852 8.336466182603374 -0.378079177205194 1.5406096422281985 -0.8761167719446072
P 1.8166268021974632 3.100308828479652 10.54421968086191 -0.08620703211538702 -0.012109895889656564 -0.4999456103954035
P 3.9592905157323726 6.386868464607434 4.1044040616413335 -0.34069019503377457 -0.07604474687040451 -0.7509539273913132
P 6.890623524596453 3.86929648836698 10.256319014872963 0.8401382969674692 0.26889805279213685 0.4786311651883434
P 6.432421559699094 7.876337076560852 10.281483066041867 -0.25988376510866856 -0.6866442095696498 0.4501947642245215
P 2.5890056470706018 8.794937983725411 6.024843058412502 -0.0442671973484915 0.1252237796982166 0.006630360832324065
P 6.8583161063445335 4.020085711082839 1.65974438581355 -0.5185421424506683 1.5777764810864827 -0.6095090578485438
Ni 5.64119064345322 2.725847254119012 0.3660638334764217 -1.016678724661791 0.1696437005744885 -0.12453858070573391
Ni 1.4849379158836653 1.1298571460387088 7.339181579288196 0.3858228257063549 -0.4391359353071986 -0.8466287897878193
Ni 6.851479039840883 0.7537045372294995 9.307253962585868 0.4733326357935654 -0.20730110591594622 0.6175458121100913
Ni 3.0052553719015576 1.6880534875741346 9.309148285811814 -0.5967157627386175 0.03810529151215373 0.7182541231654469
Ni 6.4763337588298775 2.0695617984778707 2.568890085807993 -0.6182762625182127 -1.3978679082508763 -0.6900961726739921
Ni 4.145896850838692 6.933377980465952 10.460777386424748 -0.058270967826751265 0.44420280830714465 0.14728153082920442
Ni 7.9287272381561635 7.00516717875429 0.28818964599983465 1.057255874753205 0.3575152370109133 0.9142704001961932
Ni 8.046069531536162 3.999875342498046 8.318267734788389 -2.314352799599885 -1.9555916059970126 -0.7558945592260401
Ni 3.149681564724685 8.372844846056001 12.569944032136103 0.5901679343177707 -0.5707352795144558 0.1874987264780384
Ni -0.03100564078962455 4.614427344200901 10.410503069010103 0.5242049971634004 0.3887016899160467 0.0009909031583595837
Ni 8.675161694670114 2.3329620645532008 5.3657598751580675 0.9302593194252817 -0.19632120986567478 0.8741835594776365
Ni 3.775382542872827 2.657002552471581 11.767416458808466 -0.4890122513123514 0.14790245224265497 -1.4675273204202273
Ni 1.3080037508578441 3.406846426148685 12.739711128248365 -1.9053609919762347 -0.5762199567781109 0.8403493845370108
Ni 3.2045330702613106 8.4988656558513 8.218146644517788 -0.3554208163757298 -0.15824754292240487 0.6407965551079158
Ni 5.491586512264662 8.07986287224154 3.730578790269967 -0.14328500807530165 0.054019648749565025 -0.10477373937398085
Ni 2.92366637829132 8.36761221115854 3.65412671262614 1.331123098625159 -0.5987855007834526 0.18049041348100528
Ni 3.2686647540655587 4.379988891835037 9.203530194072277 0.1255107148110161 -0.4569639646275549 0.5783783978820103
Ni 7.3686529823544005 6.189742163174163 11.444892888045029 -0.21685789636644587 -0.3117812253089082 -0.6400581342799945
Ni 0.6664134301552168 -0.4253803992443651 0.21440311268356396 -1.4091594220042958 0.6538801277647514 -0.6424793421269774
Ni 4.631210063445196 0.49020672900538415 1.5593698682778807 0.03100287613941757 -1.340634123439388 0.1232147196879878
Ni 6.011039476946064 5.6102324063246884 0.07196331558196375 -0.5640419266546802 -1.3014196580234554 1.143036360854135
Ni 8.052022337438672 8.858395076967966 11.271776540954844 -0.05002492576787514 0.6415372899286823 1.2803229852541562
Ni -0.20993440601677754 4.704813363379169 5.909499011669305 -0.30722703027932247 0.8711671412488158 -0.23611725881669016
Ni 7.91890921065692 8.42029408759134 2.611678271205576 -0.4824541384788594 1.88935587479723 0.6201691086655513
P 8.757425278842044 1.2520491985919628 3.3693483070071935 0.03966980778579619 0.6995238937457953 -0.48505609487808077
P 1.8846966363078144 3.171286694876223 1.5468015168264355 -0.31969996593535266 0.23797102419597727 0.7370018360865952
P 4.965816098133885 1.3083319300500194 8.454772958164819 -0.686013003743554 -1.073853888321202 -0.767257292537027
P 8.581092775668544 1.4918661432740317 12.79505581418212 0.18221510948159586 0.027900840175326146 -0.8765137502727097
P 6.135929891746093 7.7505806333370275 1.5278956605305394 0.5059720190951416 -0.8664501953891207 -0.285741863822353
P 1.6450984777538622 3.4436298439383286 5.789444681909527 0.7031591765055374 -0.33615862571200816 1.1918271571045926
P 6.662684843453395 3.980047849637457 5.985790646152513 1.3343382631283471 -0.3074877401398769 0.3146636890630258
P 2.5158216872155195 8.643373893472472 10.539349866293575 -0.37294674107463516 -0.36379772758551543 -1.3130991512439127
