# total energy = -340865.27925751364 ev
CRYSTAL
PRIMVEC
9.35250793380052 0.00000000000000 0.00000000000000

0.00000000000000 9.35250793380052 0.00000000000000

0.00000000000000 0.00000000000000 13.68834072710494

PRIMCOORD
 96 1
Ni 8.158632396209113 2.46346934239044 8.091807790479795 -0.36342620317870955 0.8091577894255549 -0.5223118939057456
Ni 5.235880085329028 0.3326425266120578 7.864650332390198 -0.926692942230262 -0.7662183097495513 -1.0612637103610174
Ni 6.14514962924245 6.706917381651408 4.267669164776047 -1.6957610627237827 0.2919235671530327 0.2756502839143059
Ni 2.6175332085615306 6.151846025052473 8.64628152181021 -0.6583769871938403 -1.5133433503130775 0.3502492994771194
Ni 1.2198008708410457 3.8509139211849126 7.947382619171566 -0.5865534774936351 0.8507844638274058 -0.9572749287821771
Ni 6.202798489260577 8.866196397615894 1.9582674295599436 1.0777452529558085 -0.1506339922412051 -0.04585613910216619
Ni 6.785412982256881 6.801265483511054 6.695008833069142 -0.23047677270146114 0.7742882312418794 0.49045078353109073
Ni 2.448084466541994 6.157850335262019 2.3683290830934896 -0.9236528698523576 0.8353519313224195 0.3210320544832148
Ni 5.002974575752225 1.227170647235316 4.656691416055086 0.2171291477499615 -1.3774307234424472 -0.5156707344401441
Ni 5.899580823678537 2.372946416349646 11.556478090546502 0.7355123960252623 0.5683670363925954 0.7383015287346253
Ni 0.6724387866809399 1.0639039130795014 8.814361056641774 -0.8720238328221562 -0.4622349832185072 -1.9161241440300094
Ni 8.323021431338676 8.24562942669072 12.150291276759177 0.22340443923571202 0.4851833644845644 -0.38173657145212325
Ni 5.044639999402574 6.603796627180307 9.381469091184144 0.6145090821662966 0.6290867228701552 1.0699692085548154
Ni 7.345581455778249 4.633400865097406 4.442605958557205 -0.2101257198489349 -0.2875771172588789 -0.083305799308192
Ni 4.620756274126525 0.22520839539852314 13.734333993378932 0.501904019673355 1.5391238017112912 0.03985107055866685
Ni 6.931321461352079 5.679366667613188 2.2234933366790317 1.7489301905475942 2.5525703925890295 -0.9848983469264005
Ni 2.811373291743831 4.7271036438971485 0.2580487923919772 0.06982601965420233 0.17184147955675566 -0.6837005535602935
Ni 6.088389257495206 7.957403831616314 12.999803905325452 1.0776357239611374 -0.8893479259229006 2.2208320074319046
Ni 3.342745392780479 4.987917037687788 6.692435022836016 -0.23864696721707931 -0.2122437946332022 0.666678050860368
Ni 1.4279689964548468 4.796630189220762 10.964128571853758 1.928179532532647 0.17732230016566883 0.3915301605037773
Ni 7.846651430523734 0.6116708652066083 6.672450583496832 -0.06775988115379299 -1.8911397061705302 -0.16472029513094213
Ni 6.018572784420042 2.2815911170866574 1.1536571277024668 0.10235201730636566 -1.7087595318659796 0.47433999401215726
Ni 3.2092009294127255 4.777653950256327 4.369030712470799 -0.12294064009099473 0.06569939908033846 -0.723183185035948
Ni 4.359550074995074 1.9822266848478147 9.87997086720137 0.6744978040151028 0.2729336563140912 -0.9186903836407597
P 6.3675522722066065 1.3201439304021234 9.252880521866294 1.31395738547915 0.6592367640909743 1.0535815112254114
P 2.609677101745303 -0.08833069813874134 13.159532585661529 -2.2950445861895763 2.778288053338951 -0.2630382515772502
P 0.6481830568858373 4.542550601272603 5.708831744428098 -1.057359747320921 1.2979702660222743 0.24157211128367428
P 0.4301031431722293 0.6097461190366327 10.906021438938017 -0.14005313140156528 -1.3932412081121426 1.0283201655554612
P 6.9509991384251055 8.570170810773948 5.050286108551332 0.08854390777867976 0.4095744195999978 0.48034069168028243
P 8.936742366323994 4.414196779908428 9.751615175335573 -0.06551582231462265 -1.1208778224792246 -0.5859875776878359
P 0.30518636854015396 6.558624012986998 3.3723965845068693 0.7285807019024355 0.7047069806086316 -2.105500032926103
P 2.629279958753414 3.9768641479636466 2.422357587220472 -0.316817502181235 -0.12098660168841742 -0.7803686331080044
Ni 5.42767196923424 4.245112785705359 2.6488033194425507 -2.232176743020762 -1.6943991493792496 1.3154740792339927
Ni 7.8696024854368565 4.435492440885273 6.72623218140959 0.8375929048377961 0.17909096203031738 -0.29561001486568445
Ni 5.543979760146866 4.193655286059069 7.639832871830864 -0.36142022849227434 0.6095486528372276 -0.1031410888665643
Ni 3.6124997843286355 2.3082644702293726 1.1350895933426377 0.006515689631330715 0.669721208562066 -0.42081219729734626
Ni 1.0185723062482457 8.86364316290062 5.452024965113734 -1.1127397667531223 0.03652123485448549 -1.1850651557904106
Ni 3.4847258184675627 7.494866190302801 -0.15772350259631698 -0.4602516342398912 -3.404702371583266 0.8942870150957307
Ni 0.7432690716357229 2.403211132608351 12.078852143526136 0.25183518377257913 0.511567510905048 0.8307414291336015
Ni 4.126738090499416 2.7684639845142454 6.11653937166921 1.1328907877797005 1.0427746504178945 -0.6257170350669741
Ni 5.3282361029602745 5.892631910149422 12.36816917629751 -1.3330563110921299 -1.2086887087466216 0.8859874940910999
Ni 6.896642361263304 2.3717586478190973 4.0821097922783744 0.41573503988475496 -0.8774830561645146 -0.9008890937932807
Ni 8.082933195529893 1.3560201515295627 2.1386118435329387 0.5165019720921878 -0.5274242754316465 -0.554541957584045
Ni 3.4187812837518243 1.934444720890545 12.045274768893254 -0.9222099667582441 -1.1688078133912838 0.9391365673102536
Ni 7.43437416781785 5.70042851588717 8.69201435123958 0.5614173445476396 0.27455705085012716 0.7124879101056311
Ni 4.445976602481691 7.025155175265426 7.288070077629406 -0.7100235077255385 0.9858895071950763 -1.6601867651635986
Ni 5.857354249541315 4.56475345553656 10.031528261197762 -0.15813724259678572 -0.6988564353651254 -1.1608785312418781
Ni 4.3593536723246675 7.981879345352108 11.417212697965075 -1.7324149665013908 -0.13905220094087664 -1.7219377211191504
Ni 0.42798573533509365 0.8636105992981572 0.2919385407958845 -0.890552487753963 -1.2159492469637767 -1.2545870139406328
Ni 0.88481460569548 7.96020958405068 9.35678875752064 0.11497510538701487 -0.480737670008385 0.5296369668122491
Ni 1.3301417615765843 7.76183353443282 11.856690795271335 1.599576864791026 1.3698562535292989 -1.2903826834830034
Ni 7.3998447078589065 4.230317117868131 11.539613647914333 1.2923110108539677 -0.18753137948818674 1.271662481365681
Ni 8.030690085201979 2.425582332018371 13.322999463490996 -0.6675144307187343 -0.002985050770252924 -0.030144641904180345
Ni 8.390976755299043 7.6884350507497805 1.6740428374569454 0.046397099207300736 -0.4521878833951502 -0.5098572130821606
Ni 8.446801876234831 6.6837792765759945 5.04186791599742 0.8926592496843208 0.4811464754110294 0.5706195798721979
Ni 8.138711553925107 2.0501165412513815 10.342787213256697 0.10179177392752148 1.3429537727115002 2.056109912528749
P 0.378568017708588 4.440159342434437 13.29285726508859 -0.1855151203891063 -0.05776291784208116 -2.10882086976922
P 0.8183987045707676 1.0611636282019363 2.832076938957025 1.0190888767651805 -0.29634200793570253 -0.317063299643454
P 3.728433474916679 7.096926322536532 4.712785889224574 0.8359080609362056 0.09709102601774247 -0.5289592240189341
P 3.613603380286153 0.6470850724331884 6.320482034116854 0.09580418888551887 -1.413080611435573 -1.070742082165098
P 8.38893790853007 7.692634326893216 8.168257062309804 -0.587335092854666 -0.7715471781616325 -0.977573016909581
P 4.714430995401925 3.3096094565306053 13.12283427907082 -0.11301592477811505 -0.6373070538974186 1.586250837106081
P 2.926016336212066 6.0370252829300615 11.936684667676762 0.12576833934777695 0.6863660162075986 0.36697355421033573
P 7.462160469426197 0.12946676982980712 13.830562884620418 0.4350532805973927 1.1437727247995269 0.6163870159152998
Ni 0.3170247733115597 6.173955354235285 7.326643562097084 0.16867388046205145 0.032403870252002254 0.4486227917517112
Ni 0.3683148630625996 3.4287791149262854 3.410641795939726 0.5135495743320833 -0.08533311415086595 0.47002336891467433
Ni 9.12498964965379 1.5131703453784573 4.768087269705947 -0.02130827455947298 0.7074614034253172 0.3460118643570041
Ni 1.934510188447347 2.928410578289392 5.704506209425116 -1.1047382366048846 -1.1286772639189853 -0.24623583530793075
Ni 6.131205039643647 0.10137090020286763 11.352220248575398 0.6016062580616994 1.0463515691358753 -1.5318228971745038
Ni 3.8209671902021025 8.316409208101684 2.0263667821452764 -0.7256478445263567 -2.6003234916035924 0.15286416712330447
Ni 8.986974687407278 5.993891515505726 11.367428362020478 -1.476610513668418 1.3279889238715517 -0.13911159342390234
Ni 2.0913704545446907 8.445922740472064 7.329093919223097 1.5169824897275617 -0.002672918846472816 0.7924924129547319
Ni 1.4562603335013804 2.8205574547123256 9.90909925372416 1.1954974068673283 -0.32792158251419656 0.9449048372525984
Ni 8.062123864975003 9.16608457030915 9.619071430336076 -0.7849390260875062 0.024841741634028185 0.08870228773341499
Ni 1.8066239924889 6.6194059632235005 5.453256690432421 -0.5434175655361093 -0.7737552415565448 -0.29784404640252576
Ni 2.5503634952827854 0.5773013331364243 9.955831866270975 0.4311801707952316 -1.010806325041414 1.4046517639419294
Ni 1.3453489397708536 8.576193825999722 1.44071178876093 1.6405587065200264 -0.4948581685701671 2.1190392050631184
Ni 6.36443788700446 4.3494306612151235 0.293616380751636 0.2329108360642505 0.6628208818978069 -0.36530670803087406
Ni 8.657177193763667 8.849053250241912 3.6724175628153537 -0.17333323361093375 -0.9916302663335955 -0.031970896479641714
Ni 6.442250754517571 2.3821025217937972 6.262731231760279 0.14284663498630237 0.5927228395291405 0.994082841639146
Ni 2.97391053026671 9.23233773779267 4.185785150480669 0.03667087305847233 -1.2844830301691168 0.6415961681910757
Ni 2.8770185461999036 2.0636215629688013 3.4577438325570675 -0.7469936571919845 0.8545860969616831 0.07080972372371032
Ni 2.947096889502276 1.9233339412504518 7.880131539072224 -1.4915900177963861 0.09876095752099766 0.9886372451435426
Ni 0.734197138764603 6.898363222756381 0.1109665735284027 0.38626685522230897 -1.5641439779047126 0.4225019262949433
Ni 9.212847110881935 4.954435058637675 1.5366806802768298 -0.11566698924771693 0.7405381313746279 1.695873419931931
Ni 4.1012431533791345 4.246375374300824 11.32968912127662 -2.869695398708355 -0.5771699793962061 -0.4973307984803757
Ni 7.875906075906067 6.156279113898773 13.497566833201628 -0.8120507947026337 -0.4111839301789628 -0.15839846667797236
Ni 1.1968124058954654 2.824513565644783 0.9586975492988542 0.25136492900438 1.016034920430205 0.6782516146305804
P 6.660538293911321 6.67966417300559 11.069117957446148 1.8783494963843974 0.7915179648566045 -1.2259755208515273
P 7.701631439699419 3.462541669219835 2.4554561134378874 -0.6518834090496967 1.4137814941573392 -1.0179601624773758
P 5.184965031153382 4.503559994943016 5.201008323573092 1.3900910925189351 -0.11615318485551608 0.24486466599201698
P 3.429948178440605 3.833331205929546 9.114970307710665 -0.4486952968608595 1.0205446353751004 -0.9853061238877805
P 5.173854251513288 6.469017632741431 0.9094893278541146 1.1612793662247227 -0.08995570052454185 1.054849065083925
P 4.529803132712463 0.7623528644434756 2.5258000679707133 0.21919528625037088 2.583283248291854 0.46992643832549386
P 3.2307210505843202 8.033533247668805 9.3187081502306 0.9194475735217584 -0.2021830679630905 0.048885927067425484
P 0.6700838251376946 1.211589368716465 6.737907852539803 0.13316051804679002 0.572225490906737 -0.5882406353880708
