# total energy = -381167.45868758834 ev
CRYSTAL
PRIMVEC
9.23180300810479 0.00000000000000 0.00000000000000

0.00000000000000 9.23180300810479 0.00000000000000

0.00000000000000 0.00000000000000 13.51167686730841

PRIMCOORD
 96 1
Ni 3.6621638500865394 6.138281068102651 11.323285256585647 -1.0228789399352318 -1.68620581493518 -0.36048563249314697
Ni 7.083673064956522 4.69723357927483 8.54821641507365 0.5606172172438474 1.4249323685678363 -0.6486245357927668
Ni 3.7255032490515845 2.464466682890928 2.3119563775648175 0.6944523927601589 0.21176659788646754 0.5966170323772241
Ni 8.220135684223969 4.106084319206662 0.9836947466434022 0.9839655506994861 0.4328539589532287 -0.22835844080687764
Ni 3.8720488865929235 5.557831467471954 0.4580875936867684 -0.7048481341721861 -0.5493807250980796 -1.0536257341997854
Ni 5.8331884493886434 1.4796825835179124 0.05072598680851675 0.5781588256720366 0.19761498897643387 0.49971215422835874
Ni 3.1803099032886193 7.370671350195602 8.672091514495406 -0.9203608293646472 1.1735586978127077 0.6833184876305264
Ni 1.2996808926535413 5.872331293232367 4.557894286993966 0.38542250494414265 -0.9667062493984062 -0.37998976396434564
Ni 2.05775037902793 6.067168491185621 1.9093888458771426 -1.356112421580645 1.1083727480336782 0.1509425246205594
Ni 6.154898313130648 8.155254574192437 5.35308300603978 2.9756623870594883 -0.6290252735046006 -3.111492224408325
Ni 5.012047286330216 4.231212174267473 7.63366510181146 1.1901510549537502 -0.6356785171550601 1.1669923574491
Ni 6.237024430780122 5.588619529787714 0.7842259532287338 -1.1964350881902492 1.0392789785598102 -1.7517733164233442
Ni 2.2283817900570697 0.8263285130479999 3.3310467792981306 -0.09299345890960113 -0.5293050373941272 -0.2415032057189518
Ni 8.534912464068181 9.528882207220562 13.379424686026141 -0.45010477561387646 -1.9698537723429814 1.1019020527076702
Ni 6.503306550550966 8.446804138208629 12.669399347748806 -0.711140394938801 -2.8235669797814085 1.9167458367744088
Ni 2.393640291860491 3.7965142761378883 1.1099811929547758 -1.3789368756743283 0.24788416954463116 -0.8347785753174526
Ni 2.702988771662225 7.493749745036292 3.9808641461179177 3.507581207927378 0.8759956729857107 -0.917377321256291
Ni 5.805299173149989 6.316528716436289 11.762198395870668 -0.42069932586856584 0.24582445880212503 1.5794515547960606
Ni 0.05640539188697408 8.438144707188485 11.353686506364367 -0.2143958079791985 -0.5203038623367814 0.33575470540537017
Ni 1.6636170223722424 8.984722823370449 13.365021227307984 -0.5601827008095901 1.4144677215910866 0.600991507295836
Ni 8.368684622971461 6.067740862958807 5.237274655898837 -0.9704562033591416 -0.3213493286133175 -0.1172171073436562
Ni 5.406328351830597 2.247556244458819 9.028488954053074 -0.9648069754931643 -0.23918844154284616 0.7218256425667892
Ni 4.0270970145069205 4.577921759973818 5.69554965518231 -0.30479502379906215 0.22609432736304932 -0.8198749187327429
Ni 0.12293253235655645 1.235972221576763 6.85387872254604 -0.5423580139233434 0.1056402011393342 0.07163659050037985
P 5.0998048036836225 7.9448156295184535 10.490398470833265 0.07882976581470941 -1.876277187236401 -1.7072819188791886
Ni 9.140804913197298 4.983308684234576 9.863037464308256 -1.0955259739779972 -0.718150250597731 0.33248991861116933
P 3.6746452474631233 1.4006306561986175 6.874376094288074 0.10364991018218277 -0.90955731099124 -0.48072532871321083
Ni 3.3167744121796408 2.781856062925653 4.60051013504854 -0.38838647266847304 -1.2312485963250086 0.36840514445053973
P 6.925153779192232 0.8106824536738623 6.196158009354883 1.6115648903908375 -0.721011631305926 0.3808510835233763
P 2.8276642683861626 8.39731244343358 1.5904051335000091 -0.858718888183134 0.0423812931796883 1.3983132233184112
P 1.488591273213477 2.268337032546607 12.896760186942965 -1.2337356244129205 0.5357201968918516 0.8026354149260048
Ni 2.5747867262712347 4.011421413363844 12.053023263367582 -0.7531635334481223 1.6735279623571953 0.570585641310469
Ni 3.3634504071027234 2.417652210925945 10.819272213542893 1.3765593765810873 0.47226177132688985 -0.8600682031221769
Ni 1.133360733528887 8.763898100553968 8.214505207700316 4.139540367249322 1.8516136230514497 -1.7337120880462593
Ni 7.596582796351209 2.3765429930872415 2.2640977887039093 -0.5701346698159794 -0.8255182330614492 0.48937117731366686
Ni 8.296981210675657 6.338075744155924 0.5761715832162673 0.8886419009948113 1.1575098718799615 -0.25913814519189565
Ni 4.844942423968129 0.39982568625805537 11.486844183494815 -1.5637197458831005 2.4115849791811823 0.6361387446209302
Ni 0.3134353988983417 8.10617831054309 1.7753799965291475 0.9318096946315371 0.5631222430538882 -0.028839292829195493
Ni 4.238736093544038 0.11210639722081699 4.883214708808442 -0.4662451328191647 0.9018514577065501 -0.03758284334978044
Ni 9.003934204983372 0.8135867788326442 3.4595026992659372 -1.001201197851482 0.1970596306935961 1.1678295086384145
Ni 0.5741128911933544 1.5447298659997237 1.5500326135242133 1.2233087726526415 1.3231385377577856 -1.4317213664652118
Ni 2.236468849304028 4.510132632062387 9.769455602572537 0.8079809955086343 -0.023091848822457007 -0.4216336647573771
Ni 2.055719382413397 0.05948604447910869 5.786443215944611 0.25026603951324644 1.8075269171448807 0.9070404581066572
Ni 1.2502076614840796 6.792732799924691 13.267777109404152 0.6787668637041019 -0.3603856165801729 -1.1178524053893393
Ni 6.519979186395721 0.9516696227533363 3.992510988521985 -0.15569520881419635 -0.6483640830425285 -0.5016718490578909
Ni 4.499534522455643 7.001417702067942 2.1688135825331005 1.0466241060709716 0.6976415891214178 0.14766668208276504
Ni 5.122376561513316 4.225017634593147 10.38299383077509 -0.365366614734532 1.0366109448093437 -1.3406531496027816
Ni 8.08750237349218 2.4443782800126392 4.996225822703005 -1.8556096315847204 0.39865031648832633 0.718454412101711
Ni 6.777629570554801 9.114789692925692 9.27817136922123 -1.5521125006614755 -0.4045455989268387 -0.21892326353590683
Ni 7.531212400771631 3.0013975651538614 9.986926411434201 -0.07936892614763105 -0.8119358663913243 0.719522191244593
Ni 1.3208217210502697 6.6400387817229936 9.997086933588541 0.7686276905219923 1.4504875913291213 0.526727506474938
Ni 2.0144439921244137 7.172122967519428 6.6052099593245925 0.2978810702880483 -0.7071261315730853 -1.0390833176092362
Ni 8.98062390293021 4.214927274140036 3.5710551883191544 -0.4368785067315895 -0.1898101482200344 0.13289980818623565
Ni 1.7296521077529403 4.364436320378035 6.340746504704035 -0.4210783064745393 0.754554757368694 -0.2713061480129973
Ni 2.804427820755348 8.178278690359006 11.069765180996303 0.42211574660011814 -0.16082533095191012 -0.7617044810395979
Ni 8.678596242743588 8.018559270231583 6.392482450738142 1.0277920609661333 1.721133222939984 0.3353543846431579
P 3.3399923962048685 5.510463087339372 7.646446532778828 -1.0130724953677714 0.04634747691628792 -0.13647595557326817
Ni 0.2861692693482381 3.4349322561314866 8.20006112904987 0.0471260069535253 -0.7698253103745193 -0.1488041381213179
P 6.309946441044644 8.57916972665941 1.307070950789603 -0.12047855170374734 0.21768527736374765 0.5470289370364514
Ni 8.451078462901942 2.424557599415357 13.053616825024177 -0.31084997174389045 0.9868521282186616 -0.7959253498956809
P 5.072543290034915 3.9476850468786857 1.4042412142710894 -0.22853173315994837 -0.8960798453300954 0.34888764324290233
P 5.476462357651533 6.2934492094529615 4.088647290090618 0.23787049406237096 -0.41191258081487125 0.07972888059021106
P 6.167019670198291 2.9102612079780963 11.650969943095495 1.8498629589089302 -2.657273940846707 -0.13130546711592225
Ni 0.47044990080731813 2.851639260240443 10.971683738579117 1.0012402786195338 0.5356281513986776 -0.47210724802689663
Ni 1.8793088628356318 0.8577895737873931 11.37084565821633 -1.0050200573769401 0.9774658019077553 -1.3424745190822365
Ni 7.191177408484864 2.498135067678206 7.7403127340405815 1.250995697044949 -1.061891316642687 -2.0347700134003923
Ni 8.805736630813344 1.0520100873140528 9.742351029571317 0.9466565298363826 -0.10057127125685905 -0.9685443310484093
Ni 0.5982466700556808 4.608054364291251 12.782667105761025 -1.7821969230205241 -0.042597008734920186 0.41380311296936473
Ni 4.503790383543369 6.822856172439331 5.973985443330575 -1.2985369371590219 -0.16351573329987967 0.8474656838668178
Ni 6.396808473527098 4.493746182104224 5.47386360516521 0.2527211859219583 1.3156936514439663 -0.511795567755454
Ni 5.450465600985512 3.1503434714214666 3.70507696219106 0.6662353068959945 -0.022840394933283246 -0.5157368117913892
Ni 7.430253405423761 4.764145685920894 11.502922291239683 -0.020340511329564968 -1.6124089835586874 1.6432406242275635
Ni 7.598789197218815 7.786961033555285 3.2282100352620975 -1.385670594853736 0.5652799128268393 -0.2601796990825326
Ni 2.8284028126096286 3.1736537734746277 7.905655245249422 0.9941103524429717 -1.1459028837686525 0.5116798681131962
Ni 7.33627365298765 6.638377057220193 10.071698363764245 -0.6447532257628187 0.540553613724753 -0.6149464268140312
Ni 0.7539336387229763 8.217467693216696 4.2802561266070445 -2.8292730290272496 -0.7319593885666814 0.4933306761820472
Ni 5.229908600450037 6.484049009924076 8.762768127892064 0.8867966202559565 -0.5589460001890116 0.6612864475311514
Ni 4.52626982334513 0.2904675967288131 2.502498017678335 0.6855000686628775 -0.3065639427740269 -0.7724624908870503
Ni 0.38291671626179 5.902694692619634 7.631286989411899 -1.424259767980844 0.1643809095136524 0.2397898225722709
Ni 3.359739222379804 1.6299763329933437 13.73137608935854 0.14811328270188037 -0.9003540472254171 -0.9357452822405176
Ni 8.771615887689192 8.000991149515874 9.061944084195826 -2.71089789681975 -2.0336076176611755 0.4744145560038346
Ni 5.470664785497322 2.3542481893413467 5.918573393424163 -1.1881561360109083 -0.15193394199955124 0.6004389772264757
Ni 7.148895751691407 0.797434816665432 11.467035504241165 1.353570886105714 3.0499307587557603 -1.5649731586742273
Ni 3.5931561242063887 0.8020027126875723 9.234960993066762 -0.7543328711658751 -1.4490408315802659 -1.4308358785364648
Ni 4.642849029019316 3.6909486111961463 12.663197422632246 0.30995857027787266 0.1812938832189071 2.336494111583615
Ni 6.903532897050251 4.672196930099316 2.7172925269102124 -1.0055209082727585 1.094429912700341 1.9706605845149932
Ni 5.186703763377248 8.864903254915804 7.12580147382361 -1.2075803061737913 1.6281320507208992 2.815037345043842
Ni 3.464954078815399 5.200311440694619 3.5113198851646255 0.8467594018284127 -1.2078327885042295 -0.10880702890309003
P 1.543031214285751 1.6724333940398737 8.823097959146484 -0.8211638127474954 -0.6237807372762095 0.855605796475449
Ni 6.865608651175247 6.9071517637452375 7.096764684497745 0.03198863709145459 -1.1404220631597393 1.2467307511210077
P 8.86301073534317 6.283506557844544 11.630175307303517 1.4717760683942522 1.3378717302029024 1.0425779610260562
Ni 1.0659870367431563 2.6268356304200364 4.970175521580782 -0.1120245073991232 -1.276009702590783 0.49630929919439687
P 1.4886558958330303 3.2382117704083924 3.0253725570081427 1.929072733770878 -1.134233417850524 -1.238207544141345
P 8.24771107916765 4.17170397346166 6.484820788637599 1.0631791822161756 0.38765602226035173 0.7549201111279128
P 9.046418961438281 6.264895243413188 2.89205240014853 0.5004174078254994 -0.13083881189214885 -0.5435960000955026
Ni 3.664822609291019 7.761028899508816 13.239686579864603 1.4671833068172475 0.25889157639872834 -0.23491603941973738
