# total energy = -340892.32471125846 ev
CRYSTAL
PRIMVEC
9.07161955089586 0.00000000000000 0.00000000000000
0.00000000000000 9.07161955089586 0.00000000000000
0.00000000000000 0.00000000000000 13.27723218609654
PRIMCOORD
 96 1
Ni 6.500096423448567 1.655280224015169 11.514307876576078 -0.35879667482649824 0.4064145338147775 0.2886734356468513
Ni 4.699116922420948 0.30355724532555184 6.015622060800639 -0.5714042805570223 -0.17996770820831584 -0.39926326748197694
Ni 2.96331700581114 1.98840822665829 4.795948293615679 -0.1705618415133837 -0.8993004091499223 0.33365282857101897
Ni 3.0220375973123903 4.504712121575621 4.473563809667898 -0.02420410805002928 -1.0123379311945921 1.1537933422603226
Ni 5.114424723984173 4.577176216263091 3.1435038577826973 0.361485534512571 0.13742597819136332 -2.0587080122732284
Ni 7.353917228654453 6.1072499511850635 2.588502191160341 0.17094339322251847 -0.7309178346760444 0.7388046936232888
Ni 4.910540081007098 4.511080398299533 11.587332597334115 1.639492470039041 -0.22717933289711195 -0.7688362069883727
Ni 5.866434746180862 7.9857917969269865 12.48881659731935 -1.1927378418443202 -0.4111764739797951 -0.7998761070133127
Ni 1.6304058439910025 6.631045247536401 0.31203376636660984 0.9184659263347795 -0.44476562278915016 0.25259674452895203
Ni 2.526582039544385 1.559184561142815 0.40825008177518607 0.45457695245261714 -0.17680268021677292 -0.4373364202046145
Ni 0.7883590934289402 9.28961027576481 4.776072375806436 0.019306670748411914 -1.242334421825525 0.4744626356329506
Ni 8.469517750985565 2.4800174178580074 1.3272441212653974 1.002114453694371 -0.67471583356318 0.4462558341814315
Ni 6.8786188088929014 0.8058246819995191 4.80602595545698 -0.6328202217706586 -0.24980555493706008 0.3686738247308941
Ni 0.6262864508053974 7.3403642294727955 2.29222129164711 -0.1573304304247742 0.5692000738168519 0.6000394277952117
Ni 7.627154400911161 3.9725709355006398 3.955566185188714 -0.9691747655435566 -0.37254179232673257 -0.4850928616532871
Ni 7.519764572054092 3.9853982051411103 12.737432487729379 -1.025180334374899 -1.5674316475170489 -0.3223335469034578
Ni 8.004161825938269 9.034942708143213 6.845912899957407 0.4533201972273806 -0.1233784989593617 0.5915727850850974
Ni 7.0569668436394775 0.4612138236909749 0.5265521614459197 0.4676965205537106 0.7473525831932999 0.09446155881469538
Ni 1.8497938842916737 6.523346983624328 9.055749374089029 0.5713680280024482 -0.21476656105505593 -0.04550621196191518
Ni -0.14276097953257072 4.856845166578563 1.122605626727415 1.227790719683395 0.5498111277672789 1.6182996380115096
Ni 6.340345208194894 1.8773897500952892 6.987860155241922 0.6892248258126324 0.9343543154302618 0.34916249417084383
Ni 3.879024397641703 4.3490884930874465 0.5517313478773843 -1.3505015031517709 -1.1615868701628125 0.8530771165163245
Ni 6.217551769826143 5.699108728841055 4.918470490568413 0.07691815061429333 0.30767105979527654 0.9533344560771904
Ni 5.360909691028893 2.9008407639342493 9.242413362215675 -0.20939398388923292 -0.042613978015784676 0.21363527566409013
P 0.11332357501819439 5.558208338419702 12.346975479980232 0.6731975971464407 -0.255785683779895 0.2599917514414426
P 3.9544367685902424 6.146003908684421 12.679609986535347 0.04060594644682039 1.5743150049004433 0.3308490405736366
P 2.2359545731569965 8.796449837670806 1.5675368009999449 -0.15699027347653607 -1.3308793580454692 -1.4348390861585871
P 6.463882519343362 7.808995009074697 5.835396200866242 -0.626567041772095 -0.19406455262101416 -0.1684684493194647
P 4.635053147172711 0.9677149850758389 12.618681362905036 0.22679572430544812 -0.7549319382024547 0.2897815811093654
P 4.070843786996553 6.200968849810032 8.097943318736164 -0.6052901346711899 0.17163656263480118 1.3662510526765437
P 4.751696027679908 1.1576746924813983 3.819302299373615 1.0438712259161829 -0.10318351206872552 0.5415866829749576
P 0.2953338224619826 5.610079857376005 3.5969750544311387 -0.25256152041564245 -0.36721498079718046 0.21827585975989505
Ni 1.6113010138192687 1.4364183376318582 2.747670101295285 0.23014047240796495 -0.027425186090488253 -0.9843460739673565
Ni 1.794148571721201 6.947771762548708 4.740422726419502 0.6352450291620673 -1.7604513038133165 -1.0197488789466824
Ni 5.98219767961937 5.635453176459737 9.388848347550502 -0.09522929021865534 -0.8786598500814351 -0.9487098128209854
Ni 8.600947370894435 2.234357968166386 10.227677394759327 0.5891685465189789 1.0282245205178613 1.430416017390227
Ni 2.523769837572287 5.264079226996088 6.767271939712513 -1.6451578958549344 -0.157975777318257 0.5229518414825898
Ni 0.6922752236616304 0.201819035270473 9.206432598725575 -0.5224795298318615 -1.1388207801108903 -0.2793328749722157
Ni 1.5002553223984734 0.9511955663945817 11.331812297501621 0.23053693651543525 1.1388194945593095 0.8731196369894964
Ni 4.1364225226620155 7.044339149622833 1.5321529500574718 -0.6279078720707058 0.30067765919657896 -0.29191868205702626
Ni 5.698392070919134 7.7794033870328185 8.054326973310857 -0.3197364756002429 0.5382087676416601 -0.2574260475967954
Ni 5.222848717437432 3.2246885000694485 5.001082098565522 -0.780805720645423 -1.4124820586196256 -0.2784867249218365
Ni 0.8548295692681357 7.548612321316254 6.772901786628268 -0.4143862391663444 -0.29230640441374817 1.4803578965259923
Ni 4.889911218798872 4.530139870374943 7.113210883081429 1.267837708302952 0.18059402893840512 -0.28216057422899793
Ni 8.45022241680927 7.2426175318942425 8.951881147830568 -0.7741856442257441 0.7816477569307442 1.3048489954199785
Ni 4.584333723863042 9.050564036517251 10.434204600428249 0.34127769210612835 0.290238466141126 -0.20533369777693025
Ni 8.351740918070266 7.2335459126294115 4.807022019252258 -0.1911679477995095 -0.1559572042263314 0.15645599823962086
Ni 7.330757384671339 6.163947571590256 7.149471052444885 -0.37202628614289474 -0.45333356696381927 -0.9525153026100047
Ni 2.295908904878264 5.343963906242189 2.2930313872474595 -1.0389462778107397 -0.08931446739611715 0.18147283199893263
Ni 2.3180980856000404 4.9756017343744645 11.877745066344927 0.16190030918364376 0.48206255946739557 -1.5397776332452062
Ni 0.8311354069103238 3.3961965338903415 3.698691492599982 0.6507415821357696 0.8568188429469438 -0.2865481617737323
Ni 3.8687281097761197 2.5625600815487037 2.4136548942880633 -0.21999412800258242 0.8728936370216193 0.039827416409583025
Ni 1.244825738758629 3.4080712835080056 8.332419276198102 -0.7661512039570417 1.0212655727015252 0.06813474799470846
Ni 3.443350810828933 2.78892419706403 7.262486192408074 -0.24506186960448764 -0.46935308232052714 -0.9679293231722297
Ni 4.171157752827053 6.915485869585175 6.0382593795140975 0.2442540289912116 0.4146505485713246 -1.095585366461023
Ni 1.0154226307895846 7.274731064091744 11.384243535366565 -0.28278663784877106 0.2800651251525499 -1.373802125550924
P 0.26706574967084296 5.604936249252845 7.875456413294628 0.6601412781831146 -0.3708286662903678 -0.12395082652306394
P 8.47414427681063 1.690423677047124 8.24136380498929 -0.4685732667317092 0.03830583755873403 -2.449904700696987
P 1.7721045369076616 3.2670076039398843 10.527198676673958 0.18252132786810502 -0.5816784087895208 -0.4394742924832238
P 3.7654114379689605 6.253602384784581 3.593880725099905 0.557387140342324 1.445464684193233 0.7992922094853847
P 6.911839078640712 3.6896724887268872 10.530703950357887 -0.1592865257098805 1.1569789390771559 -0.13121804960843853
P 6.482932919799507 7.6348108475706775 10.185721155659486 0.32946912950697455 0.5726276114411623 0.7457366448564318
P 2.513473549706704 8.691699850019804 5.90892621081733 0.48989593946888527 0.5351075030085171 0.16951720229895323
P 6.829142197422514 3.980735392838987 1.751319642848081 0.17850835005396998 0.5295642045927847 0.036875789980426815
Ni 5.582057625466942 2.602366346882782 0.5654866441686475 -0.33035718853888263 -0.2109782976572173 -1.0162583492949206
Ni 1.378214828428703 1.376164642474851 7.227514192980225 0.7188992129486135 -1.5577229048697172 -1.132133597898702
Ni 6.744340700534874 0.7030822436918235 9.183795280012118 -0.08825337312145447 -0.6057652745353955 0.41140555927146566
Ni 2.788017035137547 1.6386247310449393 9.306091593645156 0.49937765370707543 -0.204779367935357 0.5666595667831854
Ni 6.557193195101413 1.9601229177905473 2.6985572617574167 -0.25685834801878343 0.26545817387265247 0.44653351332285035
Ni 3.982794650412104 6.5012485190952 10.445782708095953 -0.38015148635319046 1.082873061100677 0.2822639325760816
Ni 7.950866062757387 7.084227059530295 0.29052858573740165 0.49724620918636947 -0.1933973513506605 -0.25586281687473356
Ni 7.823092305412243 3.961095337130628 8.229055431970766 -0.7922404448449258 -1.1413147501773375 -0.2632405973960434
Ni 2.9750284662820365 8.390141082418294 12.593095767930507 1.2270101327636287 -0.1247614953498174 -0.05246001757192901
Ni 9.135574180647982 4.816068237983148 10.075281448405581 0.5757877543366987 0.20086666314451213 0.9655631369328984
Ni 8.85797355952489 2.176317748109998 5.707071796231724 -2.374596060661659 0.2943931117394478 -0.17099044441037003
Ni 3.6235948140018586 2.5972045955210934 11.624893636900147 -0.25900290516561203 -0.1574967807993094 -0.16794908648088494
Ni 0.8359188717486691 3.360354566174995 12.592299279759056 -0.2215661004753926 -1.2484652173136113 0.22561635928536627
Ni 3.177271146172177 8.487588416561108 8.076380986905589 0.18792501538217957 -0.260308511350913 -0.8867212869333309
Ni 5.5037514079729215 7.681384540876319 3.6826791774356287 -0.6042454954567594 0.6279783202973249 0.6205056660693636
Ni 3.0450613670065314 8.629786048537333 3.5364038525998627 1.287580438147518 -0.09841128749106277 0.5005341359090218
Ni 3.4084160050400687 4.271081639029166 9.232840989567425 -0.05152207913869191 0.7854221363715118 0.6712605280247278
Ni 7.309076214628393 5.845461162440573 11.404849718526629 -0.9142488029296384 1.5400733101087543 -0.5770383389143482
Ni 0.4622398238298273 8.772518906050184 0.02873435402135195 1.2117501212807646 0.21557440166833194 1.2231509069185387
Ni 4.909496844791643 0.33745879368015147 1.7420520766071297 -0.8454589378494344 0.1326838355206876 -0.6518286445523612
Ni 5.869709600735465 5.580261444852505 0.4961059928692941 0.8343103774317825 0.6543179866331184 0.06560992469032571
Ni 8.2723370346452 8.976920631325354 11.262783625029744 -1.1364741342555849 -1.5156923101612283 -1.0007502263569925
Ni -0.05506926474715612 4.657813839908173 5.812054924497833 -0.12055568479858593 1.2277873772492855 0.44737040740184886
Ni 7.705351758974003 8.666934329426816 2.9024827270211837 0.7537286619229728 -0.1307303113387426 -0.19759107771703388
P 8.68339024677322 1.406164487383647 3.522290227347639 -1.5174460596275414 1.971927881263191 -0.5541989724223294
P 1.9234735759606303 3.40597573945783 1.3975482634059107 -0.5286902866282637 -0.4402646495950031 0.38034740441408044
P 4.609507467322948 1.1039707064335993 8.134388549132622 1.0870367055600634 -0.15212471785411866 0.5600253492961194
P 8.642468172269567 1.4900860372025977 12.604195801262955 -0.5505156100334713 1.1437315871489464 -0.07208601933297264
P 6.338621600534576 7.706422210047252 1.606558371267615 -1.160888044323575 -0.3637877002831864 -1.4076650968469564
P 1.5769195768055595 3.2402826135856926 5.925389385459145 2.154858785864889 0.5970145249259589 0.3754311980593857
P 6.7801282385346315 3.918667373829014 6.200891741046281 1.6904915867947274 0.6616831687489378 -0.10790097214905289
P 2.484081503288652 8.437839656512775 10.113334169735767 -0.15173262462202253 -0.33191142039988003 1.45458798665074
