# total energy = -340889.3773284467 ev
CRYSTAL
PRIMVEC
9.08368691615575 0.00000000000000 0.00000000000000

0.00000000000000 9.08368691615575 0.00000000000000

0.00000000000000 0.00000000000000 13.29489399493859

PRIMCOORD
 96 1
Ni 6.35300325173731 2.0492797018984326 11.613714079671553 -0.2697524303726322 0.19737741904433104 -1.0846023850869577
Ni 4.429705199597874 0.49688855864134107 6.347421326308159 0.6592362498703421 0.3468292180519769 -1.110365867204307
Ni 2.6914600113195832 1.5577432514147094 4.888119803552199 0.48432950112470136 -0.4113438527955948 -0.29888662873442723
Ni 3.4570603708723566 4.290234275205371 4.837852498523982 0.03153535160411988 0.15416591665386353 0.028457998230376796
Ni 5.406655695782166 4.174935040913718 2.9101588504282123 -2.085526418017653 1.0416297381801738 0.15482334773220433
Ni 7.25395962564287 6.173109921877397 2.6479173594975527 -0.3995211491290539 0.1253703325784099 -0.9773583297956135
Ni 5.294326827015872 4.224359379823423 11.867939217158394 -0.28960263232933997 0.9542772796064339 -0.2717157247465901
Ni 5.534008982221067 7.837813583264863 12.325509946625546 0.02976231886409713 0.2902778040194936 0.9686245494670415
Ni 1.9465068714583669 6.710164726023412 0.244303934958413 -0.19115894893844498 -1.5611974936818789 -0.7602782901160325
Ni 2.6676970871167187 1.5412381928227348 0.2526972613970396 0.41394606630513225 -0.6734187120183113 0.6742928870931484
Ni 0.5328681329819861 0.4288490207373968 4.788993164922159 0.44989214538243805 -1.4229297363155107 0.7598674278308591
Ni 8.808550837799784 2.3353522446816215 1.5201776653898822 -0.5018153166142906 -0.7491551836196776 0.06377030037842565
Ni 6.594810989612029 0.6952726409887747 4.975015258145863 0.7732808730232876 -1.2152331947333588 0.22101357040603228
Ni 0.720787808341002 7.144037933831376 2.1310383317074177 -0.5124715107765562 0.7131304287856364 1.126639664663666
Ni 7.494368475777816 3.8737563272783264 3.751273713606083 1.0247599590080287 -0.5365516916542115 -0.10996119711219125
Ni 7.56089739659654 3.954855481438562 12.643909513358718 1.6000113812252832 -0.30142507888556475 1.2215969321678575
Ni 8.033221849874964 8.858211352561657 7.257243378356683 -1.252231883444895 -0.31096387161393546 -1.2590517345802057
Ni 7.023415659179297 0.9354925504419858 0.32220199795309473 -0.2814398940128895 -0.5534793206474856 0.5887363440775668
Ni 1.8554974151936487 6.23891214776637 9.081595557229857 1.514130107880431 1.7696797643901199 0.4397175188422814
Ni 0.31909810223439483 4.614349297561036 1.3779889019601106 -1.0915639040064555 1.9773817052889104 1.2543759263710914
Ni 6.5084977993308275 1.8150840934128591 7.118550925907677 0.20221777785576786 1.2044669573557902 -0.18560665166164808
Ni 3.301647576458437 4.351503741470021 0.4395968387484173 0.4866465792936521 -0.4152056497438462 0.2333162990327853
Ni 5.958035473730901 5.506676169175799 4.995290046685922 -0.14333463036631444 1.0586087892366736 -0.914546022455083
Ni 5.474474500101198 3.225017596116171 9.447471012092336 0.1040440602968079 -0.8444999163702746 -0.3321890995412989
P 0.22755089172166085 5.56126912577336 12.536605740031654 -0.3901096260071668 -0.38324503767684964 -0.3986248625670296
P 3.8730568834084407 5.984814181892235 12.452302769599875 0.569493950908187 1.263414896644908 -0.7824792516931041
P 2.427369990161369 8.52063430663235 1.3216636863237559 -0.18267122318240797 0.40350944435284053 -0.04830974284898132
P 6.489249467379042 7.738646976413688 5.569204634406242 -1.1886778128423336 -0.6935167683197669 1.5431501492618651
P 4.868002162790698 0.9999867254574063 12.849754027528709 -0.9065581191536 0.9301114809935078 -1.659131841536523
P 4.018386785672062 6.240538127671687 8.132486560541658 -0.5840332821749425 0.5236558095281497 0.4917605034814499
P 4.572818682325754 0.7171579671668947 3.910825944013598 0.13616999429707516 0.6497164833053649 -0.009395068061654787
P 0.01372090864236517 5.654286076781514 3.5171771173046884 1.7448051126356272 -0.20130092246845332 0.7771910067109712
Ni 1.5368144374378743 0.7904088160858174 2.689011957774984 0.05114952629062159 0.9841234164335889 -0.7435874597239129
Ni 1.6466180413232832 6.435900975848681 5.087370469603361 0.47014421076325474 0.01674559488945503 -0.3085174669559719
Ni 5.905204752337989 5.801196540517346 9.018963537971922 2.2024046539646522 0.20068540037164148 2.347478121398944
Ni 8.61184360400275 2.696365202095404 10.167203296047877 0.30418952900457935 -1.1797887378828198 0.21670980082435579
Ni 2.5629985151128123 4.969130845952202 7.170228927468273 -0.4839610620416891 0.972480175767706 -1.2119241849647837
Ni 0.5389305854334355 9.150179207962452 9.143509965244661 -0.41568798869690343 -0.6092573468490539 1.9413014146265857
Ni 1.355949153109418 1.0671333369664189 11.32392540069135 -0.18363770086073536 0.7618878006949975 0.24582214480927989
Ni 4.217691953842955 7.16390395647345 1.3512801381857666 -1.1952315548004513 0.051687915292594845 0.595213210051162
Ni 5.713384541943532 7.8518297117224405 7.832686750535468 0.3050943002070359 1.0685250199091212 0.04461532471652961
Ni 5.218441708976601 2.593774045387776 5.033885722773671 -0.46087435542555466 1.1507818091275084 0.24983872216784073
Ni 0.9202682916636977 7.756332914266508 7.295692807089821 0.7439690114330478 -2.2023416619372007 -1.1096086773233085
Ni 5.170924944257493 4.58457297281448 7.271056940602591 -0.00541731436082938 -1.3683519010696303 -1.5325577184579993
Ni 8.278581309218842 6.9400001649304786 9.042175990765502 -0.5365810022302502 1.191018288050052 0.6099816266095882
Ni 4.728749246877121 0.39148690929290014 10.683617239082968 -0.28621597524529413 0.524126321406665 -0.7986838864774245
Ni 8.426463727423215 7.429229359012241 4.87846838651644 0.41682647317672084 -0.33743594976253494 -0.6127607320166221
Ni 7.359412143636393 6.18263870914376 6.92206624243288 -0.05527820374701448 -0.11164475546220129 -0.11653422234401865
Ni 2.4267613831577024 5.554992298317634 2.431861873195894 0.5403690085177726 -0.7362508168531836 1.3359570296786927
Ni 2.0361083562966917 5.1870121532648605 11.518230907745554 1.0277771485677978 0.33807049802274036 -1.2140998524598638
Ni 0.7583924542183031 3.157480386082417 3.814716906079351 1.3012769617980042 0.18817132706503076 -0.7748680150047493
Ni 3.8343603783991886 2.396194777675042 2.6092689980273964 -1.235805876678388 0.32776963031736456 0.44736706496773926
Ni 1.084991864865055 3.3538878582209275 8.035127607328238 -0.23087297969861528 -0.709588734180965 0.17234387311447094
Ni 3.4722392112175346 2.8474450779906824 7.316805111536418 0.682148121471509 -1.0656564401120743 -0.613722067488627
Ni 4.183019522007201 6.881501223085505 6.0757128171801655 -0.36623924714747247 0.26737904504444915 -1.1987295406513807
Ni 0.6228075309626454 7.292792385951451 11.077438655837696 0.33975174237990524 0.1441023617702744 0.4192510234578135
P 0.3100562005709653 5.5490697346401605 7.705002817903531 0.2372516295314495 0.3943599166430886 -0.6574953559198354
P 8.609990531931885 1.6558924853642332 8.09129840029202 -0.5362673276445732 1.1351533585616322 0.15966087833016374
P 2.1108489298216044 3.381229754952817 10.03412183682521 -0.9981685816727456 0.6454268547910755 0.27995713881977596
P 4.258922807419715 6.009185713098766 3.678750467985574 -0.9957856832628655 0.09612763366320864 -0.5548070383199736
P 7.08931780562111 4.2920328451565055 10.546586192917108 -0.620602339548228 0.2555519705025341 -1.5879577924948587
P 6.38961959251015 7.899800660772643 10.09366903610635 0.1441329578978937 -0.5914899955633038 0.5269977294171893
P 2.5390175824310215 8.488169210645715 5.914818017889935 -1.1516603550777198 -0.2696228467733034 -0.6419718063629396
P 7.027312560740087 4.186144310205131 1.529431216951602 0.4551734483860354 -0.38903207667227196 -0.2303736714646936
Ni 5.310604793442299 2.955913379942673 0.784121088206145 0.3551490507715819 -0.6183888768366769 -0.9423414474007965
Ni 1.4415719832073555 0.9681120691011936 7.1969776594637525 0.9236940075029383 1.5182204758997206 -1.4865025759711497
Ni 6.929154243103941 0.8865296628126731 9.325091952447584 -0.6258934127438383 -0.3983243006074753 0.39158055412573856
Ni 2.8855965618026214 1.5154223554433228 9.262220123862832 -0.3019374997456091 -0.3610960123836362 0.5465206299414652
Ni 6.336607197384799 1.7623442088861645 2.834099325605801 0.3615428701130676 0.3616284878483385 -0.7737349298415707
Ni 4.1079246847040345 7.127596461045755 10.2465874501739 0.1832453505183231 0.8394798374478638 0.5337684724821194
Ni 8.173800984035339 6.978733004686219 0.28185317034732055 -0.4751648039062978 0.9951953579770345 1.2596235479232758
Ni 7.848259822880037 3.9823154660965363 8.153865017006277 -1.6164587281480287 -0.3900983131532572 -0.6688789151664286
Ni 3.0020403406086316 8.397177921754242 12.350743519692495 0.7937378553260589 0.499752777658307 -0.5957336013310063
Ni 0.16543119238920242 4.93918193115983 9.89665204859551 -0.2830370632966803 -0.22726855017680858 1.4795222879985745
Ni 8.63668748691362 2.331582514733537 5.902786674959242 0.19047683526975584 0.5493177330706283 0.7646028856333155
Ni 3.4871909593971666 2.7859394358738636 11.543637070858319 0.061239049316139695 -0.6108401179551415 0.3366077974342848
Ni 1.2356902259222136 3.4975826968926085 12.875732462898654 -1.180946762746663 -2.0268245333010704 -1.1545903842403213
Ni 3.2573373531168563 8.48818737801896 8.050709763359428 -0.09642176786485974 -1.0810252092586607 1.1328007991690554
Ni 5.584250852926742 7.799871024245228 3.41140303680475 0.019982613769513973 0.36326370945891634 0.7545588711337521
Ni 3.004774530281821 7.992499682749032 3.657996969160541 0.18510168700077154 0.10386716839931144 -0.014551672561929777
Ni 3.8497299761634265 4.873279784718017 9.953687608525698 -0.8196808004440658 -1.295840107053149 -0.30425149259076634
Ni 7.164839576195504 6.232553567131046 11.650820031153312 0.2389346736608272 -0.4173797745770295 -2.0539928661857467
Ni 0.38759818305006893 9.005648670121557 13.41122396457704 1.0392630377202103 0.5629944592267724 -0.12729711728747753
Ni 4.827461669397202 0.40237552444656 1.5580947900869766 -0.626572955309366 -0.0674084113516452 0.44120593046234985
Ni 5.649862321396654 5.662570398980679 0.48653860610435934 1.5772445198424125 -0.656654862296411 -0.05669179626508947
Ni 7.975749364618266 8.963109765671245 11.377158529401612 -0.28580228474664326 -0.3605748497728435 -0.00393713027087709
Ni 8.868939186462109 4.809303379840044 5.511637678808676 0.8824702249664609 0.39634172295980774 1.1327655750557457
Ni 8.272840419273807 8.893419721908103 2.176866439083516 -1.0418264275720122 0.7157534682307801 1.2875192458922793
P 8.206284247395219 1.6568553561461536 3.856090373536074 0.14838170587191865 -0.22368700347313733 -2.1075147493632866
P 1.9071381736390947 3.0635459827254503 1.6909373483514858 -0.2131395669745942 -0.1252212085950553 0.5690604629151941
P 4.874033730707633 1.2430843468324322 8.35613328375323 -0.3230043477182373 -0.12889814322601026 0.8057541630606445
P 8.44383173624427 1.889579407398981 12.22518607809874 1.6362870757278656 -0.7895487569453757 1.0807030500325516
P 6.416561807030676 7.999394200895047 1.2605395590450565 0.45365983995498643 -1.1301759599516987 0.071566913604709
P 1.7229573436936487 3.252959016165105 5.811303958621523 0.2974576095973845 0.29512921857452395 0.7568736353098579
P 6.917772383766713 3.900008181615589 6.004173334820807 -0.586599500240222 -0.9789860952070237 0.6121737491649005
P 2.3741759213035802 8.48987694373063 10.1839281798561 -0.2885446233784708 0.21344732802300015 0.30368353590243824
