# total energy = -381163.86202578316 ev
CRYSTAL
PRIMVEC
9.36425469395510 0.00000000000000 0.00000000000000
0.00000000000000 9.36425469395510 0.00000000000000
0.00000000000000 0.00000000000000 13.70553329797865
PRIMCOORD
 96 1
Ni 5.841965264921835 8.979758488540892 8.449927079658854 1.1941923149026594 0.03614148291756356 1.4204064556730247
Ni 0.3320602205633882 4.077299542467807 5.484282570401425 -0.14206142008084569 -0.09845216803132721 0.4035860632270468
Ni 2.8753506188681377 4.355605194833372 13.583375971493442 -1.0864371243028514 0.32563947134823923 -1.2364489095790254
Ni 4.117303638931658 7.347859170502711 9.215436180250382 1.775706173089858 -0.7408173531779434 -1.6701076238217365
Ni 5.119522372110562 3.5311574745921503 6.824725076646644 -0.5817753393787012 -0.5888672132284761 0.24154614314174527
Ni 6.449845864629461 2.8129472249460608 1.6956764481379838 -0.7255578559157116 0.4724337781283799 1.47279499657707
Ni 1.4490622432589857 2.2401544879374167 0.2065782699488588 0.44846158358349864 0.07032712766033694 0.14683287332756
Ni 9.017028222605997 2.1940729901147065 9.470756332807856 0.06965426996302843 0.14856502552731835 1.0315504995673008
Ni 0.8941205851569525 5.944148013192797 7.574965759802708 -0.9777378246222194 -0.3900564041717282 -0.30805595393852103
Ni 9.119641726597312 4.518693056259976 1.0810048908564835 0.12198753214910604 0.015478298141257214 -2.0503460134617786
Ni 8.533486198003013 8.24870048132261 3.8489250330692135 0.5150768096098871 -2.275687264708887 -2.588163973422923
Ni -0.009865242421504817 9.064036781652941 11.067012487837992 -0.11930767132409775 0.47634262626448287 1.162794003097036
Ni 4.743341528677537 9.297141176146077 10.757624064547224 0.22570017724842423 -0.7319475614921395 -0.5110332356681327
Ni 5.378856044271126 0.4109615585748882 5.933262066999158 -0.4883525062411654 0.872223093317156 -0.6276952418392674
Ni 8.393743423768447 6.726494043897156 1.1856935137093125 0.3811501028210339 0.08842975079831868 0.3356642025740929
Ni 3.5011824950086314 5.12356773017994 7.936778090685606 0.7786254251646526 0.406499637329416 -0.41334905615108164
Ni 8.088965023110907 5.304719239096895 12.44851631491288 -0.6290396716823038 0.5018009184365874 0.3655170242694673
Ni 2.2987372659050807 2.4705900698153385 5.574506228879789 0.8306866646362663 -0.8512809438478501 1.801766617622336
Ni 4.00008189746759 7.489418610166584 6.131101614377777 -0.9263000776672176 0.8012549896387104 -0.16678257697660953
Ni 3.158422676921929 1.0855980578310902 1.790504510696703 -1.2384224883656285 0.9774984549179037 -2.477906328116236
Ni 4.446906679038091 2.6540170926463174 0.12136916991066139 0.9021257944138592 -1.3433021571898545 -1.086362048090542
Ni 6.685178951762672 8.042490226587008 6.648567524809319 -0.004370361153553764 -0.687178741916881 -2.204410885761403
Ni 6.254750980329859 8.987849204679648 3.794582389670565 -0.17045694050440321 -0.12300671744223976 1.4033646696993896
Ni 2.2299006289421173 7.894712921742425 1.8078836311618864 0.5303962135757768 -0.25559079416026953 0.5005788731040283
P 0.6690142006801493 4.0011868795328365 8.8336957787484 -0.34971939511557837 0.6976027654636824 -0.18056060459730838
Ni 2.6176182342767023 2.910681952191667 8.677123565804836 0.4344855810193807 0.48661058384939426 0.5495239355441632
P 2.2216038991979756 7.623477281743482 8.051027617679258 0.2627657146421539 -0.07455273570591031 0.4769740892008947
Ni 9.041946504602794 3.917255063848026 3.222759789458188 0.5166729504524135 -0.37131589033943146 0.7303136254331423
P 3.7132079519689656 6.337961748395822 11.246623576841955 -0.10763100631711786 -0.6457135327935589 -0.3385906321922685
P 5.891876742953747 4.865947716645988 1.2058650549529417 0.26077079569931216 0.544222577935908 -0.15022390128697996
P 5.333448772793313 7.096794135321918 4.3593602610042534 -0.4470271651298172 -0.5783940816112942 1.20658220392658
Ni 3.9324438851177748 4.024428959922181 1.790217028074643 0.6559784050546767 -0.7005585056578967 2.3897912803448587
Ni 2.371975102619451 7.8949282996026 10.423249936625172 -1.2758502941947834 1.3135948599334086 1.7414217979856912
Ni 6.280371581435922 6.909349847185932 2.45275584656735 -2.2855754703568762 2.89540668743153 -3.691639027044668
Ni 2.1630585782494727 3.0452275650176577 11.707143581043164 1.749407130184013 -1.07371324897828 0.017453676700073167
Ni 7.8947784715259575 4.478604681503012 8.03159304328762 0.3650028036372101 -0.2893005277078889 -1.1654993178433413
Ni 5.788195713916347 2.712206571912792 4.747309163432157 1.9543757313120407 -0.2248149464299935 0.04459655566345223
Ni 8.564013668619156 0.15896571646794636 7.966601369341524 -1.7583540549646557 0.933610752396018 0.8552211594425206
Ni 1.9010280007093228 5.183779888481104 2.131279106767877 -2.3441408294955948 0.1056502284416632 -1.498751568541832
Ni 3.410527144384438 0.8941533600487183 12.447475009780208 -0.4538105066002378 0.21844323857569475 0.8746057346167194
Ni 7.353871022078038 3.275663146895579 13.40832902027424 -0.47883325389682047 0.18538862211357104 -1.2261518985283915
Ni 3.3044207733563686 6.333654191192317 3.356416734504586 0.32656172605219247 2.792532993293739 1.2235499421291702
Ni 7.0471261279145505 0.365498101568333 11.419724635915747 1.0412229896600582 -0.7050941887447212 -0.5671917851375715
Ni 0.56620404733824 1.537760464632022 4.3674603413978 0.26409111832179677 -0.16012933332615 -0.032053171780802865
Ni 7.194463312783993 3.64879124326699 10.460789361228237 1.047542504120183 0.8028287618837335 0.17509341083515004
Ni 1.595978036662867 0.8894122378484259 7.855134898871529 2.0689551439225338 -2.262894740929909 0.1581056180279019
Ni 1.6713883804885703 6.124690845548387 5.273793787652167 0.4082171342411551 0.2860131152058687 0.16190827960344373
Ni 2.408673617142353 4.1572515498667695 4.002536268648108 -0.5464812920630975 -0.8759136547948657 0.43580070028637846
Ni 1.5605811535558067 6.2548071658586 13.878771388851172 -0.9147748506364375 0.7623007198627001 -1.1355518795516313
Ni 8.094724039806897 7.721801957040872 12.683621850654689 0.49631701250388066 1.085956328011691 -0.3811269628925823
Ni 7.10957634311058 1.9966557706271273 6.888250308292591 -0.09331073303970382 0.3347031242124042 -0.9912546281617316
Ni 0.5853914054034164 8.420103801002936 6.640385975399097 0.9871784012098288 -1.4679919187614718 -1.110176119791004
Ni 1.4922782791158864 8.281746936477324 4.192413390178595 -0.03810529151215373 0.023168724806979454 0.22501754935910281
Ni 5.933894154197499 5.468500055377976 8.95884155261596 -0.04990562658119147 0.26615931370473517 0.7947580690604571
Ni 3.510097265568928 9.362119740135467 3.6016356654198405 1.0663629792607958 -1.4661864901216168 2.216504069480512
Ni 1.5075794714431183 1.3098345030378813 10.364152124644045 0.8623397727651729 -1.3303445685879216 0.013914810308879262
P 3.3906842884839454 4.766621066086043 5.851604828802895 0.38038288563770617 -0.3561564089901737 -0.3202095585819195
Ni 5.516960073917404 5.7801611833063316 6.637918494261872 1.0881309670655066 0.40004513995332397 -1.155705214571055
P 7.909405437508292 6.939839860782913 7.818060877731538 1.3479900495838268 -1.2239047543654276 1.7777342592634804
Ni 3.7620799977191637 7.666084641039017 13.0190915963872 -1.0592340815254984 1.0212660869221575 -2.16224247992347
P 3.6242662599713835 1.763766753994166 10.452854091718997 0.48246622266371747 0.9812939174045938 -0.76030502958891
P 7.086736925677213 1.6877009123331468 8.973355211115335 -0.8930050630595137 -1.3632472328532135 0.9030182243211415
P 1.312999621156978 2.4797202182358107 2.51814550134203 0.4052431392144956 -0.08632118909574811 -0.35510765601068517
Ni 6.048437718791564 7.710714679369243 13.688058975793398 -0.04412835777778207 -0.9654294395685117 0.675374035972469
Ni 8.981022662937573 2.0962820773403594 11.925239884384004 0.0767937092212871 -0.1225688585738728 0.753872900810321
Ni 6.537804309874069 0.59862122457105 13.704300339301568 0.4647855175545028 1.567669474559468 -1.5593933505936048
Ni 5.514825023825232 0.6688250427333867 1.9448012097262417 -1.4525064215313628 0.6484275892906123 1.0245334448195194
Ni 0.5950028765201061 0.19546102666190052 2.1096102211832903 0.7471996025552035 0.3419412938320563 0.29334898674564963
Ni 0.24030269715038458 2.4095819498570057 7.278049587467043 -0.9697560919683235 1.8197278300864466 -1.9148270224851411
Ni 5.215815004118474 5.0574279985965624 12.783685468066624 0.17868755594431163 -0.17466043706278953 0.06085106984910165
Ni 8.118827631636943 0.1610370896275447 5.3361260132378385 -0.7036453721133367 2.605291120021513 3.3822486705654393
Ni 0.29468747969558967 7.764868164821129 9.261363167869055 0.5239694841138266 -0.5836134210287045 -1.3585104894991764
Ni 2.0499477446383128 5.4620012625535574 9.662154209316276 -0.4954243254862822 0.4604768628768199 1.5207674106912905
Ni 7.743264829020073 1.7282013143008814 3.509918408302435 -0.9199785063245641 -0.40333049557281503 0.17894518048107244
Ni 7.177364183537037 5.479474961992122 3.510000813744589 2.1871641828658137 -3.473597394782766 2.8493934539262087
Ni 3.8639630898368407 2.3800939115225783 3.6902290071392256 -0.00022702840914154448 -0.5305373671393314 -0.586513625394635
Ni 4.7709660803087095 4.822947058649262 3.938120496371611 1.4973950545139374 -0.8593066423658039 1.0792097533164766
Ni 7.6830433064641195 9.01746834258114 1.876150921433604 -0.13278308010271325 0.05885255136183412 -1.0348821350436952
Ni 4.141566423093138 4.370990665453716 10.388259462176006 -0.06786503927308958 -0.05032111685205528 0.7062928370385125
Ni 8.712942776802937 2.098211113827146 1.3767758148313025 -0.4588352135083388 0.7120284539707091 -0.039240947778493705
Ni 0.7497827710968208 4.634556980779463 11.6828845425836 -0.5295359224580106 -1.190920071909291 0.4278068834476245
Ni 4.308512357493317 1.0229980145584183 7.988557737548171 -2.3979753588175474 0.9847901034833105 -0.6111401656940636
Ni 4.031189951880726 6.272234044023214 1.045478781033318 0.34891669670862485 -1.4740643502077968 0.6023081692247304
Ni 8.514991794792314 6.374856912269318 5.580454403522541 -0.2710387532842235 -0.3738584542556271 0.5251843303575342
Ni 7.3940904964020655 7.858154871041377 9.890022112530717 -0.06367105579640002 -0.38557240025844564 -0.1687147610023159
Ni 5.743537582821752 2.1637983543779002 11.26087784548364 -1.707355966650234 0.09388948836130927 2.078087445241105
Ni 1.6646835740587675 8.902952870751445 13.51521824300277 -1.34958773308825 0.394708815342075 -0.725916267696395
Ni 5.7452980627223145 7.018583879313937 11.324251376201984 0.5197137941612662 0.14574246847685868 0.07052330283154305
P 4.342673158968068 8.338719062621069 1.3216653025398548 0.11801003555859677 1.2428992931900595 0.5580849377402969
Ni 5.323962782690812 2.7945839213024244 9.097458743424742 -0.6679252930039077 0.8714268226681056 -0.9535092910921579
P 3.1716262761761502 0.26873819324638987 6.0233761636964775 -0.5576833314265041 0.7395899085287457 -0.17782546505433247
Ni 8.65469711200772 5.621652442472148 10.020266723131556 -0.009552676685441614 0.057267980483533626 -0.2218602346770437
P 7.520301922464753 4.057775071230182 5.810680226093163 -0.7746767249295496 -0.28444551360843273 -0.5043681649431313
P 0.2456543687629997 6.378134401445898 3.4995709067592333 0.2055098183434783 -0.8199517947172652 -0.38436089644884774
P 8.747562426762407 0.44130642622262084 13.72869609588107 0.998207662440797 -0.7621539098721907 -1.2427051749013824
Ni 0.7018153123593587 6.771161539246543 11.691792758165544 -0.3528476563319149 1.7229029132458973 0.0016457631335391012
