# total energy = -340885.6983357424 ev
CRYSTAL
PRIMVEC
9.11676255668679 0.00000000000000 0.00000000000000

0.00000000000000 9.11676255668679 0.00000000000000

0.00000000000000 0.00000000000000 13.34330353819763

PRIMCOORD
 96 1
Ni 6.798287606779311 2.0020865879925744 11.59826570019279 0.7382760748133285 -0.3184964325455547 -0.6679851997075656
Ni 4.566987380685103 0.6291878810516824 6.0598207425731845 1.6063830890795818 1.0823500987176713 -1.2098248792335937
Ni 2.7198219346963897 1.872993233624619 4.565851432100764 1.33238088229166 0.15634235547989203 0.310151145904653
Ni 4.135153700152127 4.65603991496944 5.3201085286349485 -1.411917958586039 1.155479471713494 -0.2288261244719156
Ni 3.9620172670446525 2.455919015989525 2.3224951995223617 0.7973947353523558 0.527429160527653 2.305159820246707
Ni 5.105332195333958 4.716247013291895 2.612632513464342 0.5604734925771315 0.9050216279044155 0.5554433863523919
Ni 5.842577413389992 3.1292739637481986 0.1973742573957972 -1.660762949382043 -0.2733149509129099 -0.6876711081722673
Ni 5.801314947156279 8.37595244200029 12.317763317051925 3.0417878179336517 -0.5151616560142096 -0.9568111017718811
Ni 2.231072307036355 6.805736001589948 -0.041725597759269664 0.4702619672880417 -1.0788878512006839 0.39670424850554903
Ni 1.305948851210912 9.0805778844964 13.27762710735156 -1.6108303262176582 -1.2158248055707706 -0.40285561281892557
Ni 8.174043507029449 0.08555807928933272 6.608350804079374 0.6234570353882037 0.16357821110669893 1.532433019954677
Ni 8.684554846333292 2.7058368213065283 1.1625886754975883 0.06424852556642482 -1.4837188425784253 0.40802944371038113
Ni 7.27501222494702 0.9644075846369914 4.754245678617152 -0.6906453603092427 0.5270766622842407 -0.8903650543335052
Ni 0.8493494858516254 7.592321137290008 2.1853398922400293 0.22021832819824655 -0.76510399363945 -0.6061005463876271
Ni 7.591600913067191 3.9578873737163556 3.7706436626040096 2.538380731352209 0.24348578336661938 -1.1256809002948225
Ni 7.861657646336089 4.443938439731411 12.71293849631982 -0.33035744564919883 -0.600253857798863 0.7839365529649208
Ni 8.651652451141628 7.458222680411599 9.138241406133217 -0.6800889249496351 0.15354216702693554 -0.9437172447024006
Ni 7.0177827762540925 0.8537136799713951 0.5107264948944551 1.686274463389586 -0.11628842488179972 -1.67412934338662
Ni 1.9130887542821238 7.404825803537792 8.890389459156593 0.1283299294273661 -2.5834873938828604 -1.076740722950694
Ni 0.34995877321854857 4.92699009094512 1.258867155592096 -0.08303120549056668 0.7120611069808576 0.3638830882104701
Ni 6.803939999414067 2.2454767914926665 6.992744500234591 -1.156541594429421 -0.6617353621431119 -0.9358879784659689
Ni 3.941048713722174 4.633840598734554 0.7020153134455763 0.26109655446984714 0.8660426755380568 -2.237452646707721
Ni 6.318900894015879 5.897861460062822 4.7023001903037525 -0.7734022290925003 -0.5983610116515243 0.06018386857874797
Ni 5.343553194601943 3.055546706913901 9.705811825732447 0.43015044397913654 -0.2915610416072914 -0.8388321765615361
P 0.41142033803542766 5.688595297904486 12.461631296426145 1.4941060993500204 1.5076244455514292 -0.38222148150834173
P 4.471316076960716 6.274338159824456 12.302738892758253 -2.2720147009533065 0.4719882059505291 -0.8163571353874715
P 2.880650738679801 8.745226899533767 1.3548119621859072 -0.8226411686239704 -0.8828931714364925 0.392949152338491
P 6.824434481096211 7.746166501340801 5.658908384781013 -1.3928496291006789 2.161443895281574 -0.05505914575767292
P 4.927409462011569 1.3061403032195085 12.60760707124739 0.582004938891004 0.1180660856075128 -0.34171837918797277
P 4.322667267428971 6.443481451038345 8.083519527307615 -0.11839210148836382 -0.9524127155938695 1.1465376891391739
P 5.29083095813938 1.0566236354443268 3.9092412416844367 -1.5887967434563863 -0.3015587762499516 -0.41274407557723103
P 0.266883188307351 5.749887290942322 3.5444084707503993 0.7342409855120066 -0.14888204254710488 -0.961007656351732
Ni 0.7273699411173787 0.7345475680872864 4.503471809318853 -0.4336594855736596 -1.7347605839154319 0.7329999140160537
Ni 1.965245751481211 7.126664268571641 4.566211544212172 -0.30685370610030377 -1.0087877519494886 -0.5005346501296541
Ni 6.203902054185556 5.515595616231723 9.184782477746804 -0.43271666204441606 0.8176570851458176 0.8750721327301768
Ni 8.99717774284682 2.4232810069049715 10.001886886969615 0.3584511185616214 1.276375313460318 1.2890770772977025
Ni 2.4621184143631276 5.6714102009423675 6.893457488576423 -0.9545819553310464 -0.17772210670724875 0.2181753296262888
Ni 0.7233494489368514 0.5009123002633037 9.168396920839633 -0.5798603817441755 -1.3294307985244007 -0.465397697217205
Ni 1.9732958526045798 1.3786094468544574 11.61946855430674 -0.2549755291737738 0.14479707384445387 -1.7777214037476738
Ni 4.276062378479184 7.146794079761221 1.7701224227007701 0.18960985928377022 -1.4277014466725413 0.03994208761057637
Ni 6.154935923796411 8.400868553404784 7.810516256458794 -1.1508154905789212 0.06927966023242907 0.39755451232098626
Ni 5.492821943971048 3.2180803454500526 4.340963697717181 -0.531110466033982 -2.1177976193465335 0.7008778366705284
Ni 0.8185913531562435 7.716774059640075 6.533975345444543 -0.07743082858465374 -0.4789854632039686 1.038553156137379
Ni 5.390449819945782 4.382427644398035 7.277384406501155 0.4175391829730293 0.08425890725008069 0.15442354119062437
Ni 1.1172501048332324 7.438767509633265 11.116786690478268 -0.3325297707101692 -0.0882122354708739 0.9255652563837221
Ni 4.795489911326237 0.5762112869205558 10.255942790700997 0.14200614136287804 0.6771434691680661 -0.07577452392815337
Ni 8.45050020744286 7.5087842442057156 4.372960798411052 1.1878221497102577 0.19560747162810183 0.05213580146329085
Ni 7.220630737743288 6.401444060007932 7.101959666052836 1.2568853230565062 -2.2522161781701406 0.9034553118585602
Ni 2.3442295608792265 5.708679525282495 2.2821854349504753 0.6354172930738735 -0.5921217156100319 1.161215859976639
Ni 2.849052040499057 5.57469958631417 10.819376935238312 -0.019048017770386554 -0.31650999824314524 0.9101054701852261
Ni 1.3390518151734858 3.592113752911501 3.5216183883175596 -0.9531789043359326 0.12285013725971747 -0.647941136572497
Ni 1.2511115258914731 0.8329046699894137 2.1475645875914684 0.896486850960527 1.691594332940603 0.6309052641361328
Ni 1.1300682726468867 3.650771001640557 8.112875501959085 1.218654561710082 -0.0821644866148972 -0.9357018305970918
Ni 3.506151801051653 2.782235289498863 6.998162592077873 0.1951647276637284 -0.09420727671204421 -0.6587410554014784
Ni 4.065720438367781 7.357710375898414 6.182298974206014 1.2502302796338338 -1.2512137265930259 -0.9180830890740641
Ni 8.273625901786595 7.492109685933188 13.06103927337875 1.0000434300979553 -0.0015058951215651485 0.5214382330515407
P 0.2968709545871897 5.813294372837035 7.887013185684122 0.37891812816672166 0.5755733243330475 0.0012629258728236313
P 8.77270482114853 1.9926689725220872 7.758530654391212 0.22063458980005873 -0.7558431371628144 0.8883500807860056
P 1.9594383738871157 3.538361322307443 10.432501656381193 0.9557227538037089 -0.7145499348409824 -0.512945107978865
P 3.973896408339953 6.267783207720602 3.8205077940810956 0.3434749568677633 0.3930003172914006 0.05686277462531497
P 7.531083844826055 3.8932312953846084 10.619000528012476 -0.9304940611439072 0.5831308249653312 -1.7102705691938673
P 6.730039524095801 8.04270742913222 10.095783157071443 -0.5933558451274491 0.6916061815606155 0.06354738573434218
P 2.6008299529724805 8.914871612674935 5.856629079144747 -1.0830782351329475 -0.5356284085089937 -1.0567848486540574
P 7.040410580317741 4.056922762734653 1.566757540788364 0.14370152678742992 2.439754242526547 0.34024822240034946
Ni 3.0718292444069215 1.6922716542717955 0.4925558759261802 -0.7668186623377117 -0.2578662204580075 -1.9417091915879656
Ni 1.5603976873980332 1.2556790238108477 6.904492417681435 -0.49016461974923975 0.5497041698757695 0.2688880254898079
Ni 7.150249332678273 1.1196204630349038 9.205211318740286 -0.42828459441499145 -0.6717043004303658 -0.0977109189899285
Ni 2.7241159297463406 1.8221672837233935 9.177097047116 0.579235603675983 1.1260804497260863 0.46266410033612576
Ni 6.434647308355961 2.085887867183976 2.376682499688804 0.7243707775861461 -0.23089020608979594 0.6914370029726028
Ni 4.52968158929572 7.278932432742093 10.237636331974242 0.14164850091314315 -0.3046759817226946 -0.6298405703170443
Ni 7.782268880104721 6.285570010995452 10.993814330328012 -0.942862610011589 -0.10897826437363166 1.0227280161796644
Ni 7.89561758595619 4.083425190781804 8.122869296807824 -0.3580515691303575 0.4619578182977205 0.051868406734517127
Ni 3.661328212400309 8.618686238613765 12.401265566439422 -2.9879077800857443 -0.11515199728451136 -0.44295428061202424
Ni 0.36962180617764506 4.97563713465327 10.017898656621906 0.21620200795000186 0.34506646972459926 0.6662072818715365
Ni 9.153594033870196 2.8238715429874546 5.677055300167271 -0.6720269738771071 -0.473375573216359 -0.3532027256784885
Ni 3.7429779356855777 2.976732296708324 11.64858384643312 0.5760986007088982 0.8899181966040739 0.2128073804461561
Ni 1.0530042808056206 3.3976167457020408 12.721745288715262 1.5447411478980686 1.3613901250398166 -0.6309592573025197
Ni 3.381480076406046 8.943434429005075 8.001671970280128 0.9889848582909484 -0.05901915884668545 -0.002610955260285826
Ni 6.1425735940984625 7.97983823621404 3.478705788104991 -0.6723483617722679 0.9154752191375717 -0.014631890980561897
Ni 3.7549573613663334 8.552826747656555 3.993103603183343 0.27019568855763787 0.6930783952307678 -1.2477123983079867
Ni 3.4303915062213064 4.285717029769838 8.723411398992308 0.20562886041984588 1.0177467609149893 1.2766702189929173
Ni 5.761438228794314 4.599825958540569 11.55447333241691 -1.4508197778575593 0.44666026870870174 0.11679673197678596
Ni 8.24286594573875 9.10163760544202 2.540004738165127 -0.5649464407468205 0.18335385107172938 0.4270244967556452
Ni 4.939817375521088 0.20463758193145748 1.3025546806013646 0.3453122671868182 0.6594470803295676 0.7535353149652443
Ni 6.146721720951388 6.279853801024499 0.10487741030918685 1.0243215859190293 -1.4061373473485204 1.4371816182488344
Ni 8.384075477222172 9.098392038058192 11.333361760983834 -0.19571391529897908 0.1615012739730122 -0.8623690833412115
Ni 0.02545308870479483 5.184885063286979 5.768696994948817 0.1421622073247681 0.7244034305962943 -0.5166827206444263
Ni 7.3584306001212285 6.132490454979044 2.3974978914044054 0.6544822801251244 -1.0717833789454188 0.09693033207016209
P 8.599167250499233 1.9785471076975134 3.285708488296203 0.6458387455175135 0.6422579701447906 0.14183619144391701
P 2.291416156793523 3.552164100451022 1.3705976361328078 -1.44716572604474 0.40008576338327223 0.6137588342638333
P 5.013480815019187 1.4263448143311959 8.015549505874684 0.21988382767696324 0.1994263311535598 1.82320499000177
P 9.09272141189881 1.6047598528185467 12.52810708051579 -1.603258170297355 -0.7011295476700183 0.7313634068538952
P 6.946389410572209 7.929559292051663 1.3406281033775973 -1.6992335946534156 0.7679998271300064 -0.6979403513087593
P 2.097274703314313 3.791734380541498 5.6428966151287225 -0.21381293889253503 -0.12694744725754267 0.15253532302897602
P 6.945359216430714 4.051370654485353 5.780492262030827 0.43917835850935977 0.7677979955318455 1.5674640434168812
P 2.5897804370477657 8.922392941584084 10.12870105075904 0.9008631256513517 0.4474470262760552 1.4781264360923125
