# total energy = -340895.0335079219 ev
CRYSTAL
PRIMVEC
9.04234857348882 0.00000000000000 0.00000000000000
0.00000000000000 9.04234857348882 0.00000000000000
0.00000000000000 0.00000000000000 13.23439115190780
PRIMCOORD
 96 1
Ni 6.158662084632267 2.0492854927819923 11.42924620163553 1.76929589868814 -0.6854859275954903 0.30271474423126576
Ni 4.766999460790037 0.3342115249085186 6.1491215028810835 -0.570663802846572 0.2525823463512489 -0.517742015146876
Ni 2.6484947913372903 1.717123868245944 4.6758688655812595 0.6667379575640259 -0.46912348280822425 0.6670950837931285
Ni 3.4922544012002987 4.21335455560429 4.8390886788292145 -0.40341405642555683 0.8318277202192448 -1.0749108688308069
Ni 4.885345716082893 4.612592320250547 2.5377739484136623 -0.4753992885146071 -0.6798073891534744 0.8345379200615562
Ni 6.913815722947696 5.957216647941079 2.585841263808357 0.5197834710569371 1.0156731662154121 -0.1046194731843037
Ni 5.126396638576549 4.517647662504903 11.62286548582397 0.30459833440722384 -0.8216685202980558 -0.8708863767836034
Ni 5.83492792876469 7.723006435042934 12.570818267331884 -1.1110250980548608 0.21516791025853266 0.026134235193206606
Ni 1.753428896898207 6.323865789109688 0.40011758514136664 0.5231122783198539 0.4291965647062996 0.0771660049590413
Ni 2.6521207730283383 1.4004065747031873 0.20213446363597026 -0.2857724599499723 -0.3233308778197206 0.9446287007730765
Ni 0.7491712206426188 -0.1318012696476681 4.671395615849186 -0.8732875300259283 0.5197878419323113 -0.33652037992680106
Ni 8.619482935825667 2.3354486912273646 1.3919140011265483 -0.5052317984950073 0.06201269425737062 0.5349851184980399
Ni 6.91640183457772 0.6966577825609205 4.85561899586015 -0.11074281247322218 0.09350845087280671 -0.5137159247066185
Ni 0.6298474874923996 7.385970984742609 2.4421556357154413 0.40254065268166805 -0.058769504729724587 0.12889351524031997
Ni 7.7029052946459275 4.061226086850698 3.852769213243703 -0.5504801288098454 -1.2882355552330136 0.35789267495499005
Ni 7.439619237543076 3.8267489516123825 12.668210688777695 1.042675920056501 0.14587436606903265 -0.2636674005208169
Ni 8.02805909920551 8.87148414217932 6.7682926896686935 0.16443001758403297 0.28035900224388494 0.9685718418522351
Ni 6.864625347887096 0.7163167521232829 0.5686986067300261 -0.2508404239594777 -0.050101544642081455 -1.088329713339874
Ni 2.000646700971152 6.661823558942399 9.003409291999477 1.112817156958277 0.03358169261018733 0.2787332937150038
Ni -0.03141673513061595 4.891910460989878 1.5324764020970503 -0.09968604043842832 -0.6438911348728396 -0.5456649668093894
Ni 6.558397178438144 1.892418833489474 6.927211057803354 -0.31783360215057516 0.22812806996362647 0.9153109256455656
Ni 3.33196069188058 4.048205105217009 0.47176372811106576 0.13017315328369194 0.597114797949249 -0.4411632501498725
Ni 5.916905858966786 5.60681660676951 4.945175318220019 -0.2474617372952319 0.616219379989184 -1.1890817331489714
Ni 5.176491248472822 3.0475336243196995 9.537323793070842 -0.013725577116208622 0.4699081834930488 -1.2136455385312646
P 0.03470543722795794 5.616283945499005 12.505149116625983 0.33818414078246917 -0.3766352456698159 -0.4144790559904668
P 3.979881121033572 6.031327735072822 12.697868687152926 -0.526039479268978 0.4398702423700617 0.7146404376722596
P 2.3579641386356176 8.4182002614049 1.4126390635601689 -0.2792223175362804 -0.06007922468008363 -0.5373189088375391
P 6.345296154715134 7.761951829415362 5.786353337627181 -0.9482331302948831 -0.20520180018475626 0.5857829178761976
P 4.641708681959211 0.9526566111230842 12.69328964194508 0.8195383613289305 -0.7546282909191069 -0.24950447875687348
P 4.154886731129687 6.082299452759698 8.37464326937054 0.2891920271544826 0.8065895144777463 -1.236556124580851
P 4.614590679237384 1.1265048006295377 3.814256947357563 0.36104896119578467 -0.667813964237024 0.06491804082962367
P 0.16621011784952539 5.592484484624097 3.6145241314451395 0.5788609939453837 0.36141714316848084 0.30090263072319146
Ni 1.453412820770327 1.0650620435455707 2.582373523213552 -0.5098451288973026 0.14619498263324499 -0.529418680153856
Ni 1.7721375156482773 6.676255146919737 4.730235985076086 1.0736551420468348 -0.8297410128935453 -0.557905217629323
Ni 6.313042098126685 5.481335938623195 8.864871472826046 -1.1617313661604767 0.6597725819897864 0.8267549336820278
Ni 8.573855246017617 2.3711117131463 10.23374376186998 0.13665747545645496 0.41220285836178044 0.9290424162990452
Ni 2.5429615436659168 5.284330294975161 6.896215696106162 -1.3562180939205741 -0.404366135926181 0.709090711498624
Ni 0.9061970252662154 -0.04366369174496843 8.933015514277184 -0.14995085013125142 -0.37885745013211525 0.07368036040328602
Ni 1.2119278655555477 0.8395106103701816 11.338511661284777 0.6387934086349579 0.7397680859778227 -0.6587299996578848
Ni 3.965160177908819 6.859281320008271 1.6750235985318538 0.49246087198258415 0.2805394936858072 -0.6623136032440852
Ni 5.608896346891558 7.733567897923592 7.927638395295032 0.2884248099711548 0.0803459453489197 0.6818663285650322
Ni 5.267267383626016 2.751984468280043 4.991893515239891 0.5112492083336809 0.4305625918158907 0.5446020727625136
Ni 0.8644078123355967 7.534383048321587 6.737337114304271 0.4812464913240034 -0.03051462364908938 0.5725931586588009
Ni 4.895418892152287 4.623497392368762 6.811132623478365 1.1438215757595913 -0.22721789944453127 1.178891165769215
Ni 8.396326820729975 7.084969292643845 8.97925627530382 -1.2128114726657437 1.475441947281614 0.2605792485137964
Ni 4.537359981922569 0.4290069839062771 10.513599018101699 0.19660403121341624 -1.2166483299133306 -0.355917039285858
Ni 7.941406274902986 7.225107607476417 4.495523748780496 0.9658480151631689 0.07843330170723911 -0.03663307784200143
Ni 7.445976008437856 6.19389107383008 6.887838864588489 0.24554755099165448 -0.46257642571832597 -0.3984040048054751
Ni 2.282813181442851 5.10400778404529 2.6619525183966086 0.0046184726086178525 0.16681394443517722 -0.4034227981763052
Ni 2.40789598626147 5.397486242311256 11.39244113111914 -0.7217320544117184 -0.630205924076263 0.16195147413655334
Ni 1.0438034825589029 3.4002485066705903 3.8503603316414705 -0.015400650825786379 -0.3295105242678712 -0.4723031660877866
Ni 3.563951181320795 2.5444264040997067 2.525598426351328 0.01869834774045167 0.5820913279572234 -0.2588239563855865
Ni 1.0442827270218094 3.3231715292778405 8.379738632669557 1.0852379617884278 0.23603909728058703 -0.7896084065387176
Ni 3.528541345155848 2.790450618189564 7.343008979230123 0.38653707816456007 -0.042448141861881734 -0.7093365089608429
Ni 4.0119724153516 6.8640195105471955 6.11430213206383 0.7623390292998031 1.40740850075146 -0.6783652573903092
Ni 0.7321860734893407 7.253780894115602 11.030229070289177 0.08956874949876832 0.6547766714370917 0.9801235512455765
P 0.48876605572622145 5.697818800631621 7.803433602501851 -0.5601539044541837 -1.1686010966971163 0.5350807635356397
P 8.742070052497828 1.4866253662845892 8.192802548151576 -1.4250033310150876 1.1470642510666051 -0.9701078188807873
P 1.8000512450254968 3.3218061346759744 10.568269960501311 -0.5511203334970056 -0.22268453035055197 -0.29111598365007285
P 3.9236105872096534 6.206975351902265 3.8031538478103366 -0.2524933861818684 -0.1895962324370154 0.5649358992238593
P 7.025036607735452 4.026313579845371 10.307816871138623 -0.16700343473816398 -0.3972192404687546 0.5281755517753742
P 6.377360321988092 7.856091718157257 10.159366829696546 0.1837613709227932 -0.8757771292170013 0.16565463401975344
P 2.606113304589306 8.691640875712357 5.849005056686444 -0.0039615557509093055 -0.6238018203221322 0.11840367145258962
P 6.839984948615012 3.8576737829923924 1.7268498181384406 0.3117012640005922 0.4144790559904668 -0.08003278498387506
Ni 5.45255414380373 2.730897711912153 0.4170340104471335 -0.8486977565017061 0.694620800017223 0.808214451675679
Ni 1.394565217664741 1.2416681493008261 6.711556474904404 0.56527322795862 -0.40042746299340715 1.6814878406342202
Ni 6.7906679806774175 0.6374358262333658 9.126687244086092 0.6918735762893891 0.48964242869718255 0.33184148639389305
Ni 2.858855983508212 1.8183077463577308 9.337087318354946 -0.8679368072369762 -0.5468373898509356 0.7269948454725544
Ni 6.376058223824723 1.9868028656370014 2.868647038308877 0.5534294412461566 0.4639717634039558 -1.1550637243323139
Ni 4.497790665513528 6.6909941747412045 10.611704880832855 -0.06611668912341516 0.821802731883075 -1.0881438225813131
Ni 8.093299642599304 7.151710865864855 0.47975716405841334 -0.4301782118932785 -0.019085298766225195 0.1066825263609195
Ni 7.768182007433147 3.6704067485245546 8.171032190247917 -0.3571169731312301 0.10039875023473675 -0.3560203976329417
Ni 3.112240669160445 8.159634310144261 12.376061455720167 0.29307105049391463 0.021546615822524182 0.42043861600801136
Ni 0.18245107973304464 5.136524068736084 10.015906356077716 0.5140226573137598 -1.8948377238474077 0.012912337186293891
Ni 8.721905615662326 2.5348957689317153 5.851784674571301 -0.752525128533175 -0.6339803035170308 -0.4967458725111832
Ni 3.661301103729329 2.5350766158988502 11.529801636536526 -0.33354664201045786 0.9838249113565636 0.015135312979541677
Ni 1.0038724722155918 3.329627766004544 12.62780585938049 -0.45892031702297736 0.2676019596885327 -0.6304355235885659
Ni 3.2881595564405894 8.774993242864676 8.17590239907285 0.0914471974684038 -0.6479493641026131 -0.8918976889279477
Ni 5.5090688210332805 8.049362871933962 3.6037248548026994 -0.037608297271077167 -0.6416460475924046 1.0867024621490962
Ni 3.1149624160158207 8.520053273295085 3.539220358565144 -0.2561610648414427 -0.7033054722754146 0.539682009753077
Ni 3.1918042923512955 4.479082046763458 9.28352858480321 0.2297059559737076 -1.0796036463207856 0.1632676218448156
Ni 7.358762558537213 6.0691970899908 11.175318070847057 -0.9424579183740027 0.1209223241093853 0.7748227635891107
Ni 0.5966539309096865 -0.026209246711976265 0.19412203875707354 -0.4139185555013066 -0.5714983829327255 0.8893073024929524
Ni 4.621164466492726 0.3288864859612414 1.639502541482119 -0.5885057161239994 0.15200644710869948 -0.4317537839105145
Ni 5.782301461328531 5.427868532789862 0.4547876233061445 0.6511627288335882 0.5455906619280281 0.1254595498581065
Ni 7.830203474811945 8.697699249111364 11.550817862587232 0.518455753384449 0.6042704351574238 -0.2360825489240128
Ni 0.22229437929729545 4.855759152259679 5.839212193416107 -0.0907375729958889 0.33829675510093354 -0.39694824619555513
Ni 7.799115881161514 -0.17731683433609446 2.596971490400654 0.924987272393065 0.09101242392383035 0.3008884896558044
P 8.599580727092508 1.5609625121252506 3.6883847455274013 -0.18422854036719885 0.7018725964836299 0.41842389957082776
P 1.6597049561807207 3.01334450518291 1.4493247750782503 0.5714032521157578 0.8719628976772338 1.219280882440171
P 4.867441866336572 1.2647261376104826 8.327806617587196 0.004409956142237567 -0.25007140700393704 -0.8521957423526355
P 8.420533187280936 1.631773142106788 12.472527036459415 -0.4534014440872772 -0.028328671741364112 -0.4357945296387914
P 6.217582026524707 7.8394899665743045 1.5717952454566109 0.2538712403660015 -1.25951967535556 -1.0737744412335184
P 1.9182437803962893 3.3491411537583633 6.036298313964515 -0.9098779275554524 -0.5322165546139672 -0.3671375905920258
P 6.955039789106021 3.9594544560957234 6.053251812898545 -0.11228238904620017 0.3584552323266794 0.08200584954984586
P 2.551452308772885 8.410197783109195 10.23977862516326 -0.14217146329614871 0.3852926642344977 0.6243564072740215
