# total energy = -340896.73903446784 ev
CRYSTAL
PRIMVEC
8.98244509500205 0.00000000000000 0.00000000000000
0.00000000000000 8.98244509500205 0.00000000000000
0.00000000000000 0.00000000000000 13.14671635600716
PRIMCOORD
 96 1
Ni 6.299532374872974 2.0976254610506695 11.295711086707737 0.3301692408977927 -0.5065245491645018 0.2513744420860768
Ni 4.5247539508465335 0.3472658136685554 6.137110906724962 -0.3223366322272513 -0.6466147044515896 -0.593407781411307
Ni 2.6215085988939757 1.3497381106062212 4.672592419589702 0.3824006873986834 1.17774985307592 0.8393939626022769
Ni 3.5516138279504523 4.061358597414811 4.675090437535183 -1.525156798008238 0.3694402705832734 0.6203573134169574
Ni 4.870712818772308 4.3740285242907895 2.499085958186533 0.7072323181336465 -0.031671877181984165 -0.2923670824483545
Ni 7.0006211870364075 6.026798398322791 2.5455063355344127 0.6711314586460312 0.2201962167110595 -0.6626697010319234
Ni 5.040076818635751 4.528391841058397 11.259228886471972 0.18235986258957626 0.01642523543555881 0.7362325620207385
Ni 5.718889167279622 7.88997306327504 12.441763275229448 -0.7996583345755518 -0.19034468056726572 -0.15555739768475146
Ni 1.8525035203307818 6.5966896192899664 0.23501309715338953 -0.16944058342474688 -0.39682997545013593 0.7976073655837941
Ni 2.8940808914347427 1.6770045105544924 0.3101746036639883 -0.3899034235336318 -0.919448601963023 0.9019897830566272
Ni 0.5134257754120672 8.88882992611326 4.717725612573731 -0.02452472461424163 1.015325553068006 -0.6197849858532551
Ni 8.692922801370663 2.5336333397762854 1.4627956541904807 -0.3878779084631707 -0.13359169204693766 -0.36377073100232193
Ni 6.956481452465791 0.6417543736856846 4.920592335677198 -0.3748077055427739 0.7471957459004616 -1.0071836406871622
Ni 0.8387825075602342 7.572075353427939 2.474540529068164 0.5817673689589012 -1.0049511518122176 -0.05745901344841717
Ni 7.674565050507859 3.9427274467281777 3.72589751292263 0.4202606956692504 -0.6110632897095412 -0.07283163924974553
Ni 7.551002537534032 3.806697300139369 12.531278728798217 0.864747353765401 -0.6960109954965303 0.6056629446295764
Ni 7.623167500403451 8.726759671563482 6.989688653266383 1.10607675291065 -0.1370436551512801 0.8857995464500099
Ni 6.8294427332895165 0.8550326487510566 0.525173016940649 -0.2246434538491357 -0.8815073468325593 -1.1190425690426984
Ni 1.7846142012659238 6.4500062929696265 9.15486030398415 1.0977301807181676 0.16530804931361207 -0.04288702917151324
Ni 0.020792563610919985 4.966986663934672 1.3534280989988967 0.0769870561790158 -0.383295688409127 0.7635145376651431
Ni 6.240652448110583 1.9179047021396243 7.006122036334544 0.5200421240349624 0.5392189540737293 0.09446490124880506
Ni 3.498410806407563 4.154892796862068 0.29696052887220314 -0.2079863049084289 0.5954402384603036 0.2594101679063597
Ni 5.990706934443113 5.508178973230477 4.563725186582812 -1.1816833838023715 0.7438193732290609 1.0768775056388744
Ni 5.4588204381337055 3.04483326532539 9.172161391236177 -0.022411277815664626 -0.7361978521280611 -0.35958188973195493
P 0.17434027437547345 5.443729930588197 12.419755386814415 0.576440043208717 0.236646906067915 -0.9931335903519992
P 3.995544223137461 6.157834305509632 12.619309384213846 -0.07571333167291477 -0.4290587535768547 -1.3505601243038483
P 2.486619222816049 8.557512443484617 1.2904234335074007 -0.38471339469226007 -0.08060691231979021 0.2572347575215957
P 6.1580678490787895 7.624802305387547 5.822904083515034 -0.9852516165007612 0.02558890421269787 0.23989729468441265
P 4.720068234221272 1.0795012537570212 12.424527759825684 0.24793662004912137 -1.2508789689614264 0.35302969043573396
P 3.8331595830138165 6.251009207158186 8.189483708273535 0.19496443872746422 -0.45082648427124933 -0.2755926912034931
P 4.724891807168854 1.0127257578681412 3.939334777263928 0.24167598385139025 -0.1469783977664888 -0.25213188907739154
P 0.17224017874205672 5.732111326271879 3.468288177208833 -0.12896370635662308 -0.605408405416609 0.49659212054213825
Ni 1.480845877352803 1.212719895070981 2.537618850608394 -0.49638874628208063 -0.6930040903494065 -0.32548880470298786
Ni 1.782090134230038 6.426678883388859 4.811593060729285 0.878271613504081 -0.3624257869386533 -1.1940894707762082
Ni 5.88358229575993 5.489899697721482 9.105139776355188 0.6683384692819264 0.5545049336985224 0.2073396724633655
Ni 8.53411317434411 2.180254972307302 10.120486611664862 0.6663016413575558 1.057439965739553 0.005257648854513525
Ni 2.324450161371626 5.093046296609482 6.958294109860246 -0.37058518282099406 0.36051160063507587 -0.18332274072347784
Ni 0.48633202665640024 8.896518899005496 8.964692961575826 -0.05174396534151088 -0.05105568102523466 0.2846082644385421
Ni 1.4912655135151787 1.1163741903488764 11.366163995566339 -0.778828285204078 -0.18940159992770608 0.31194269058743695
Ni 4.150159048364161 6.679696393235237 1.5687058663140487 0.6324664379756657 1.1631837823362872 0.17538445971300762
Ni 5.518472855163306 7.80744235891305 8.026504430293038 -0.7603592798656131 0.04686478287233864 -0.2146917419530625
Ni 5.4516254997146865 2.882134239627881 4.902292400544777 -0.042680569587661976 -1.0390102982794558 -0.8822995037165514
Ni 0.6825858737747459 7.3241508898781715 6.732249085762474 -0.42773206434563105 0.0048994941841464 1.0662943308063895
Ni 4.9639685624255705 4.551422829955235 7.033467293549303 0.5614047461421493 0.2394103277456651 -0.43577524636508175
Ni 8.046671815734216 6.982108367958255 9.173003046329637 -0.5119421206356474 0.4330161955627059 0.028022710465171092
Ni 4.5342663600671855 0.38020713409810736 10.344493518999494 -0.2657641351488455 -0.5723982690391756 0.059823657025851816
Ni 7.963997392252745 7.1792640525513445 4.791031345954031 0.44043768483775764 -0.7270611799341156 -0.6405407303433678
Ni 7.091676231672616 6.028981132449909 6.954323869184583 0.44374129528969386 -0.0358306365453641 0.29195699149412946
Ni 2.35287959969397 5.333856663744939 2.48409874875815 -1.3390477527888747 -0.6633533573625092 -0.20602918118205807
Ni 2.408606688272745 5.150929171980473 11.332469048004006 -0.29565166673689725 0.19184337659997927 0.3638964579469088
Ni 1.160325293575173 3.3588325940565675 3.754399709049211 -0.2104522499504182 0.29861897689533734 0.31813802076487147
Ni 3.6084727045951404 2.4643158119615842 2.6653123900228044 0.10205222667775972 -0.15481100643703016 -0.12613780687205373
Ni 1.2625006050812277 3.324852004744268 8.14219472849729 -1.3547325105139831 -0.2927985135588183 0.5847544766116832
Ni 3.5406552450900226 2.786758638962273 7.2472854135572256 0.4153334335709621 -0.6709064871194187 -0.04016937313003405
Ni 3.9886367229574033 6.570164459300746 6.002212548202068 0.8019748985238704 1.4418743957388136 -0.824234224142703
Ni 0.5785979048742367 7.291275141296883 11.220498380260821 -0.0714463288664447 -0.41813516468581535 0.5597836655989584
P 0.23096740393999815 5.543210508603981 7.980162200216376 -0.42469096352646213 -0.6982576254388619 -1.407810621285885
P 8.50846829396171 1.559648867053253 7.957470747739312 -0.4765254316992503 0.3486143349768577 -0.12023378268279294
P 1.7926175597320244 3.204550119293667 10.315163141446904 -0.6834804671296875 0.33489878516297805 -0.3080256149212179
P 3.9852323763146957 5.9080414934066106 3.690296490538182 -0.032029003411086776 1.8558400024279715 1.0811509362032474
P 7.108141053298162 3.9645637704443284 10.342377254965136 -0.7132463855382103 0.483807052962328 -0.755416591148357
P 6.193970681614147 7.756493931057021 10.114373159619937 0.9396952680272008 -0.3019112744933639 1.0621535691651385
P 2.3791352863341637 8.297497609008506 5.717730431878807 0.760844704142464 0.17229116549966458 0.23225751875096776
P 6.776338518641271 3.870571466303726 1.6129183586889018 1.5130780124668328 0.6908883295579844 0.41878308268245945
Ni 5.4431011594404675 2.7034105321082356 0.4417404751039162 -1.5370273241935788 1.0525710676830262 -0.005815578240512565
Ni 1.5653796669425595 0.9643642741627702 6.858037448599264 -0.6117670006447851 0.8751137846013896 0.6619068547239697
Ni 6.690026204947937 0.7871936313780169 9.210983518385994 0.29755274041435203 -0.31852008669463855 -0.5922824095576122
Ni 2.5901329186222704 1.4368947741265063 9.264017669963492 -0.09572448468751901 0.5669909819806751 -0.6304571208551206
Ni 6.416843106149376 1.9574903371116843 2.657043151185664 -0.7086657081460634 -0.0905964194323343 0.587899192888252
Ni 4.202023685606883 6.805342833441539 10.353420272808261 -0.49412411861761996 0.5105503824944433 0.47173572362009075
Ni 8.115414467070993 7.132402637155557 0.20496502224789034 -0.3484988924449159 0.6130805772498862 0.6837638026980611
Ni 7.68068209553077 3.771809483885346 7.955616771098006 0.4830871440771681 -0.08766998981415869 0.7099263200260418
Ni 3.0749154735217656 8.30431528473889 12.27507604396634 1.0549416247977317 0.3110320058477095 0.0032830416266459586
Ni 0.2417157975881867 4.983954502478403 10.127507290651513 -0.9229751270590427 -1.8142506090219592 0.5041390796514608
Ni 8.653849165761754 2.3325074145075324 5.908699906622734 -0.020664213217570865 0.4980190827966519 -0.752833146691897
Ni 3.519286008512185 2.631362341023395 11.343591111362846 1.181670785396881 0.3895013029992066 -0.06364971564016135
Ni 1.1210809915118807 3.322875866851404 12.545227567588348 -0.4126484305396313 0.2649714640442211 -0.010320665199717709
Ni 2.903036389067405 8.371836323560077 8.132479316020373 1.2642679886738226 -0.8044506137578726 -0.8046285340966337
Ni 5.662883622906853 7.949050603826716 3.723820771646129 -0.764418023316019 -0.49604164735530704 -0.7153814296033422
Ni 3.0586213183506024 8.366051629000966 3.4440319828184203 0.009484028231035278 -1.4016944810858183 0.712018169558064
Ni 3.6002088552249805 4.4009848416384525 9.290705412206625 -1.4400972492337327 -0.10280735967622939 -0.3425568159288681
Ni 7.150196860636304 5.956429924446885 11.408496462209477 0.11292182240241198 0.47430708389169285 -1.0196344648560052
Ni 0.5692256217950791 0.10648868157947926 0.32948057263277625 0.39854978635472005 -0.4430586674003724 0.13244703691953316
Ni 4.547254975490285 0.19745480001050905 1.7964728251121034 1.165724803590586 0.7770274845499134 -1.347924486453214
Ni 5.9393363316736085 5.378849730587473 0.3215814105282994 -0.415335233343175 1.0273346617137404 -0.011870526185340846
Ni 7.831452434311353 8.890294064642973 11.302468580056836 -0.20644287168070896 -0.126516273257395 -0.07752827339446647
Ni 0.04231001053072248 4.911133821126352 5.67708037717809 -0.08122140597533753 -0.40772708197861396 0.38383844828647445
Ni 8.029712959635452 8.922379358067117 2.3350674113232883 -0.15385301339913504 0.14925382406422683 1.1101786908941655
P 8.418895352745151 1.7248719597866475 3.531970119050884 0.8450979549655897 -0.23271877465810242 1.647992279979936
P 1.8745644051711219 3.3221572712539986 1.557439185591232 -0.22122388664462547 -0.09176755692230001 0.0750489586160385
P 4.555779315764505 1.1579269807688333 8.211228411051017 0.4620619479757526 -0.7400848458872932 0.5643630574395249
P 8.47357149526272 1.639601609709551 12.462745368429182 0.02248018338038709 0.873227109101638 -0.7878549141827206
P 6.392824048306106 7.804109871830084 1.4747198498849234 -0.8775362779999532 -0.25534216848457314 -0.23595630775879362
P 1.8978558849720186 3.1167826495155873 5.976536229262282 -1.090474784707335 0.00798173265389593 -1.4669917596317317
P 6.817684712826974 4.0640263835701775 5.933954050649043 1.5562391212353393 -0.4806733924293528 0.6158182878960233
P 2.186839104468527 8.29678799585607 10.26377277729847 1.035156214640688 1.0813106017095635 -0.3474326559639307
