# total energy = -340861.1041086267 ev
CRYSTAL
PRIMVEC
9.34247270438433 0.00000000000000 0.00000000000000
0.00000000000000 9.34247270438433 0.00000000000000
0.00000000000000 0.00000000000000 13.67365315448197
PRIMCOORD
 96 1
Ni 5.961786906355696 8.974995972941748 10.877432670459559 0.4060121561700363 0.1965793486230679 0.44150880641474927
Ni -0.020696379989359314 5.394035491949812 10.61104233534531 0.8720446587577626 1.5200472446958144 -0.6760813464521389
Ni 7.35967308369866 5.433881138433186 8.21441965697473 -0.556353556871487 -1.5454332888690867 1.882993680024628
Ni 4.874238990415947 0.2603336099993188 8.492282548684894 0.5910981594415239 2.537749268415797 -1.13413340193755
Ni 6.999903798721349 7.613863083586028 4.287756852297398 -2.9137373674199174 -1.937267096656212 -2.2205982941545432
Ni 8.351273804003183 6.3638121957982605 6.037136752213224 0.12376776397798041 -1.6628134041531684 -0.5059915594791673
Ni 8.721702850442986 3.6635479405260565 9.288854478095239 1.3671478534592003 -0.9151124364815143 0.013746403051815036
Ni 1.505446066666077 3.9871338283568014 3.0643208010165064 0.10971077166428204 1.8601142043232932 1.3235897663625915
Ni 1.526821644427849 3.809458680684867 5.610464151035037 0.7524857906548073 1.5430485906869942 -0.26223478183934834
Ni 2.8386636473014404 8.220908938580205 6.222168162966286 0.1826509114674338 -0.1705081054573128 0.2878257429345753
Ni 1.0403684283099643 1.8045266483477271 9.230714401378867 0.12091049703484338 -0.2643448862038157 0.9916068692948276
Ni 3.787111485752105 5.453462961417747 10.248868297869802 0.7313225263136308 0.4497448211712964 1.6428158779853193
Ni 7.973324066961007 2.3177367065590193 0.15130695244692266 2.4321044392907725 0.08484023367484743 -1.7200775279819602
Ni 6.060817118014257 1.2827495425806898 12.813129505385449 -0.21529080898964215 -0.1678830091296399 -0.3916126929152546
Ni 5.274171565951763 3.1861942929134015 11.433197692265638 0.9433930285937624 -0.03418384497056048 -0.08004641183062988
Ni 2.007921623632493 8.39142775208889 4.0132852782129 -0.3481847036386068 -0.05174062290740122 -1.406288528214404
Ni 8.585050500826972 0.30705625070928355 3.25858164064669 -1.064109921560561 -1.2266077551188874 0.3094433212043509
Ni 0.647734192523928 7.8360364291947295 2.166959472319742 0.8119741758284275 0.11575903474089096 -0.7804110563101656
Ni 3.8158769594970776 4.982013756613414 6.629930664954086 -1.4127291416334251 0.5774792831065086 -0.06336226630672959
Ni 5.258625691215928 2.1486099214972345 5.494894025534937 -0.6161725859116485 -0.28607585012300407 2.6859198867181746
Ni 7.660201748663997 1.3494361134126525 5.427032171624989 0.7138351681621449 0.39753162950285087 -0.38997258620867037
Ni 8.816865278363183 3.771631008325857 4.659639587504566 0.9512706315696263 0.43716004252775026 0.7734258832415841
Ni 2.9484190177320793 1.0819237473153678 4.590299754397979 1.4413956563301822 -0.05197330774349759 0.7232562043657286
Ni -0.044299203266169394 6.127718565720573 3.50551440766459 0.470524476920809 -1.1315653841000575 1.072509715588482
P 3.491777235662444 4.396278082071423 4.457364774708278 -1.0935328548073684 0.018651296552600134 -0.5162479470998528
P 6.684698108990389 5.911253470991437 0.8264248669890022 -0.8779682233310493 -0.20827041180775102 0.9477911576614579
P 0.9755503520375972 5.422389896891674 1.3116019013226834 1.1303276550382146 -0.22746523956864698 1.115074585533886
P 3.667752053285146 6.985609815340443 7.795978708578842 0.6724409214860742 -0.07320136388433844 0.6151731981128565
P 8.832140221387876 4.224470007316619 7.104953365603646 0.43371604984320794 -0.42654035803037504 -0.46410108989296844
P 3.704626793418763 6.6064642417801265 12.479464957900246 -0.021086131246337878 -2.0729920329960687 -0.8678342202208409
P 7.181773716679575 0.5544888400218754 8.560130388885645 -0.6683004169551393 -0.27655454089613013 -0.6418730760015462
P 1.4326214912058433 3.6014672087834967 10.421033255085488 0.46787726910594907 0.4353672122933857 0.8408947155175196
Ni 7.890559100443725 3.9106937159237503 11.65795142886114 -1.231429601987563 0.3568225818192629 -0.4346069370885934
Ni 8.941194906358668 9.150868023363673 9.57513960903278 0.17344353393655293 -0.01330237353586096 1.1348258000188842
Ni 1.5767104491690485 6.983937512709605 13.634600993296964 -0.11403845250535843 -0.6730088781744021 -0.016965681320061102
Ni 8.970997394584215 1.859964881930925 7.373175759633577 -0.1948327982456064 1.0334297188678847 0.3600922537094702
Ni 7.8072522705041605 7.314100501390127 2.1936228896851695 -0.3824968466569154 -0.38805917123604133 -1.712963028424366
Ni 0.6919315628365996 2.4912170839446612 1.356879261490801 -0.9032866474911798 -0.7163044556382437 -0.7569263429246642
Ni -0.003656643853128351 2.249947723936895 11.73463351133966 1.3712755024743288 -1.2437073909136518 -0.4184634945595116
Ni 4.338074476540024 7.9204269859788585 4.459429461196631 0.45582188060331175 -0.24262600646948537 1.3485132690771486
Ni 1.861104663612278 6.928172292578478 10.7711882013064 -0.7526187166882458 0.09248849424872457 -0.011441151957406102
Ni 5.861131104430289 9.246394807722993 5.985341148773958 -0.6268094968002044 -0.8972520112613257 0.7978097114025873
Ni 5.997129480950445 6.556734259076493 6.67000800476285 -0.967614105924656 1.2915605058411885 0.9785047846952308
Ni 8.631361138486545 9.429357794998582 0.8738808918136082 -0.2650077165987952 -0.021749732972265765 0.5747192038628682
Ni 2.864869283499767 8.442148036909108 12.30415532434076 0.4457812085378581 3.148815386338816 -0.27947659963893157
Ni 6.448623163858298 2.3529951988985855 1.6380493885714489 -1.1557157560940161 -2.2953978557639374 1.6150536202703862
Ni 1.3807801096498666 5.950099472885427 6.880746163666825 -0.5283197906627224 0.8979714059258536 -1.4658399054154756
Ni 7.523437289374405 7.1449270039643515 10.626506930567803 0.76501966145576 -0.018058914384239868 -1.1313326992639612
Ni 7.827646888622146 7.579323961651906 7.914201162106287 0.5479396217761788 3.0836296936701024 -0.06016998462167701
Ni 5.152682049686865 8.135780326445035 13.167181197010397 1.1409046592231125 -1.1609718622866327 0.1867577345469558
Ni 6.208839257025411 4.153962365110284 6.404820980144981 0.5599281615966228 -0.007014740754936306 -0.8220300174025328
Ni 3.6232445128755817 2.7882796915019483 9.993006929598874 -1.6922422509372466 -0.8831309984789114 -0.6410446665629799
Ni 2.4010435364985834 2.9865830191118166 7.7782298787572435 2.0242248908946947 1.7911731583772057 1.3870849587027594
Ni 3.132054663049123 3.9466996060871553 12.348895492322992 -0.2530292040806803 0.573341092568419 -0.35301503514771465
Ni 4.585967649761556 0.10138918604004964 2.9557519246312114 0.8965596131799914 0.5179063086388822 -0.4523827730147757
Ni 6.352825447787838 3.8867022457785443 -0.33539570769466814 0.13193024518411473 0.7749130093100719 1.546649163554059
P 8.94580074544807 6.714472569797543 12.392035294714933 0.22953986270948856 -0.3055349872888803 -0.5191689774013898
P 0.2651262985446812 7.111835965313916 8.97258281221803 1.1371459635116286 -1.0689258548919656 0.5714621303781513
P 4.66960146624905 2.8602073895735765 0.3480809172597618 -2.072185220824057 0.036170536383286093 -0.12940979275510617
P 4.708363385887858 2.268230943202537 7.712993259703528 -0.5627147232028243 0.7406139789178858 -0.29180812462109096
P 1.7378307350429667 0.26969009650649317 10.513507853581707 -2.0569941149059154 -0.15557436696561594 1.309536887813951
P 0.8072130059272415 7.270069427093259 5.310546483790687 1.0766497058987843 0.7788084877097362 -0.3700953876687691
P 7.309718881647874 5.350144554744915 4.332674527262793 -0.8217816488371524 -0.15753766133957384 -0.1532014958580652
P 1.8069183213840092 0.6368231185431703 0.5882291805317708 -1.4855900914592093 -2.09774121491629 3.0022082558688163
Ni 2.4220454153484368 1.5626687125536884 12.676351966633941 1.0064686168980086 1.7988268182677214 -3.055813185678466
Ni 5.430835492301045 6.982732333718666 2.4400362152155015 0.09204395051213826 -0.010343290907537026 -1.073631745008067
Ni 0.6291725675689066 9.650400701398727 6.030765185765003 -1.1500202483711357 -2.8012436336938595 -2.1190345770774277
Ni 6.791043476849766 3.1500576081308247 4.0712067410658 -1.9819572404747352 0.9873038710440997 -0.43329001804938283
Ni 3.2922500441160407 8.620832171643224 9.695754669843787 1.5366002639584893 -1.8632244678175007 0.10176194913085056
Ni 5.115685857406874 5.782560908199298 4.835017421115477 0.38246367942613485 -0.934000788745585 -2.6644684017126177
Ni 2.798892740600451 1.7623360411920612 2.3331359044719253 1.0087671831241982 -1.0652908292425396 0.16032190895293036
Ni 4.2515164660667635 0.5255748209594151 0.711906703925955 0.35191820253911005 2.1178459560859655 -0.8229335030534084
Ni 0.7019597731379486 4.7632504135759755 12.822072120347674 -0.20897283719141427 -0.9312381383987832 0.7007096865237803
Ni 4.865382326203465 4.308449495297638 8.508649626779672 1.1328391086061587 -0.24298390402953637 0.7493631858654255
Ni 6.663528065630172 5.9868434183998716 12.39630200204177 -0.0580555093818355 0.7333200163596338 -0.2792410865893578
Ni 7.171833325622527 1.7325055255481194 10.335996199183738 0.5524151410490292 0.19903989434841848 1.4140234349648162
Ni 0.9046979725850164 1.8119258868037253 3.65664945861203 -0.21088676638467552 -0.3275207475313521 1.9142981465648643
Ni 8.37391995806548 4.647235586370692 1.4801317023726774 -0.861744048162703 -1.0860913109276584 0.31467525902725163
Ni 1.517712733449821 8.811876397889064 8.003722604951065 -0.25232677869701703 -0.2637267930038426 1.666157638035053
Ni 1.9117502086501137 5.171021323789295 8.799583572181485 0.5101814291907988 -0.5580913654982002 2.379715127055779
Ni 4.355358051216283 5.432320945475924 0.5309999949132006 -0.2818116755300114 1.0504324240734684 -1.0420588552977923
Ni 2.6423409239247437 3.6639496668563694 1.1858671654183843 1.958233928715866 2.023857994473579 -2.705600138755921
Ni 6.970858050792437 2.8610201847070007 8.257779007477422 -1.951777374457245 -0.8703395031411978 -1.1208282001882115
Ni 5.7993119619260725 7.711389157124115 8.903777368555488 -0.8708416395885971 -2.382166931030381 0.07598818260085623
Ni 5.48121010562774 4.306104534625345 2.1440564002555003 -0.34886424620413464 0.8459795862395947 1.3561769562699932
Ni 3.344156822981603 6.266276779787376 3.0835317278309877 -1.4242592537602117 -1.0025638825269636 -0.1253675043649325
Ni 2.8339176711200684 8.314202871940807 1.588467951185303 0.1442869669772547 -0.7781829383105953 0.2136419605323095
Ni 0.499847519368345 8.964588458244801 12.543388959525846 1.477574163133268 0.10326193071514474 -1.1989887078500383
P 7.911682431439952 8.514066392507937 5.681484694997981 2.1031173916265393 3.2299827991477663 3.2750817483689336
P 4.944410303601555 2.1671547300012195 3.512419429309575 -1.4806646291331338 0.12346334536368415 -2.2758875536451515
P 6.170628543281683 4.9056950963267365 10.393385141087153 0.2668360280567856 0.6634826838515219 -0.7567234828852387
P 7.83963328122195 -0.04131615170177522 12.494259697823123 -2.318479677284065 1.5163759664918142 -0.978796604904037
P 4.345258838121669 0.9633303976178428 11.356092395769371 -0.26142539856417557 0.2179742693590762 -0.04898028655344468
P 1.8831809268338988 1.8734927825423962 6.2381120270433135 -0.03181303074553876 -1.1843287918450185 -0.7496071835554317
P 6.473474141500918 8.90474057750096 1.7140606815030728 -0.8306172448509114 0.9327723156551225 -0.30029430771523125
P 8.313754433246505 2.458742648498892 2.8390195955150435 1.1727693691421932 -0.45786642183716636 -0.9099550606502909
