# total energy = -340873.9249351315 ev
CRYSTAL
PRIMVEC
9.18940871406898 0.00000000000000 0.00000000000000

0.00000000000000 9.18940871406898 0.00000000000000

0.00000000000000 0.00000000000000 13.44962853270594

PRIMCOORD
 96 1
Ni 2.5781254019848143 7.260064869728811 9.228919601799255 -0.24123735365207488 0.5779094286653919 0.4114950336614784
Ni 7.2953889572315 9.012099176463417 12.474060080839282 2.1736568924079984 1.0274686161884434 0.43280176555905464
Ni -0.0228145452765161 3.1540164633027294 0.8531419579925774 1.9761699443689966 0.44150932063538156 -1.220178454553776
Ni 5.608149172084164 2.3430143773343675 2.6935572419318197 0.4106709950982863 -0.7466756117309334 -0.17715492134986907
Ni 1.7810268915605654 3.1441746064568967 3.0717877953028414 0.6186416162774313 -0.7996128260495972 -1.0520077389803884
Ni 7.885652253943329 8.231219972605828 3.1316788483439524 -0.471728267420923 -0.11320927173584373 -0.47516377546503324
Ni 7.947478596481855 3.027184242774081 6.036287404754641 1.4426806936901928 -1.8375414612290997 0.004546995940734104
Ni 4.948588543463441 4.75703531661808 11.457510217334132 0.6460832574281519 -0.23772137007901636 -0.43871633127127674
Ni 8.299699447129774 5.529248907958748 2.023483010680549 -1.5018767444343748 -1.8441170575640884 0.17732384282756558
Ni 7.311957461333308 1.1219716804249231 4.565610741496194 -0.7381606322813867 -0.5108530013365267 -0.46540669607826946
Ni 0.5799968891785294 7.644310810113167 7.528859672407641 1.588026440949265 0.12700015487234903 -1.0126487775667914
Ni 0.12747364126425909 0.7448493697575493 5.996288664985402 1.6207948936295378 0.08338447506492735 -0.4717431798192585
Ni 3.8520255784248185 4.1436422779072215 6.927163832183299 1.1948985969410646 0.018046058868433437 -0.388836158611382
Ni 1.3483068196526153 2.4231644010592532 12.212908109475745 0.3511211605591114 0.3900746590041734 1.6666800861974265
Ni 4.747946991295458 1.2981234580885705 4.724356859914564 0.5576907876256718 0.10193009927759863 -1.2269371134338483
Ni 4.439660704214231 8.566008514722894 5.943323669371653 1.1721839289523683 -1.3064929587813046 0.04324235562840295
Ni 2.0394054993423363 2.572749597825326 6.380463846921847 -1.5108483518053657 -0.89749215229659 1.3053645016038162
Ni -0.016083303316131017 4.323671986092756 7.578583563530704 0.6322507224204337 -0.08597460438960677 -0.325323225659401
Ni 4.335737679872941 6.929769948524549 3.023516749714163 -0.5044625244291506 1.8831916549680472 2.0187432989548326
Ni 5.967905337964185 3.3693610695821343 4.803736811180364 -0.22117632123614167 0.45409332794797924 -0.5025992459681667
Ni 2.4238444173119063 4.2861516298821725 11.073980131896823 -0.6368805078829612 -0.004750884421424076 -1.618672447969896
Ni 2.9955910552521643 1.1721458525801485 0.2694830893994221 -0.39014896388553455 0.7589683130553574 0.4540943563892438
Ni 7.630627780380726 0.9299497937297605 9.983376498477735 -0.25286131104424836 -0.012092926608792076 -1.0619568797733003
Ni 6.254954901263227 8.833273280833254 1.2667480595556793 -0.4529885249195747 -0.10877051923819976 -0.21971053532389256
P 7.999885794980253 5.86460719342263 8.553116693089823 -0.9543811521741501 0.038260329032779275 1.1325082076293012
P 8.976499406696137 0.9962605677722707 13.430435857511677 0.8007219999533759 -0.35727920974070726 0.6768390505537698
P 2.580606542366117 8.071701024905726 2.5746894820271513 -3.0145521221461506 -0.954395036131221 1.3675841696656705
P 2.2656487444818323 1.6235939396625212 10.569135146986179 -0.29058016575126083 0.6223961982238572 -2.243452830155214
P 7.288175271308083 3.4720435237327725 1.5502045640062436 -1.2484287076487208 1.3334288639402003 1.2398597350327873
P 5.989224766425746 7.038370381955035 6.263774895848316 0.15010305943839955 -0.09311352942723318 0.8042783498460665
P 5.89637497971212 0.1083890770276342 8.72193624145628 1.3195490206343146 0.6352311452049964 0.5481021154959722
P 3.196967760125719 3.7472755072897606 4.748418407967906 1.2130670403199753 0.5175376124455539 0.28474401868545796
Ni 8.46596342090349 3.2852779788824433 3.597977020078861 -0.620500266752725 0.6567926734258559 -0.35060205483084783
Ni 6.711824739549186 6.918889688482098 10.304016107835205 0.8618489491716835 0.16373633395111803 -0.7944996731927478
Ni 8.763819728974427 6.550210606638207 11.977338533325197 0.304516830437011 1.74511107391182 0.661015710368268
Ni 5.696762641331936 6.223747668911736 1.4146047285227783 1.7506528296656558 1.5801200416179948 -1.3946190622962755
Ni 2.5704798138468754 0.42316676249905366 5.182719977133714 -1.0909360406144697 0.4002767963481558 -0.14153614370499495
Ni 0.8858976057301782 8.200361937789484 4.20537580741667 0.5251439640379021 1.2777395407976961 -0.19464973570052282
Ni 3.121513524307668 9.246750730672881 11.727444506706599 0.017688932639330825 -1.3642011121260504 -0.21198411321391233
Ni 1.2377030950994485 8.395646064615619 13.491726457516018 0.03983512971906688 0.3095785612306346 -1.7937437473178592
Ni 9.171930564063386 7.829615238961174 9.788599627018447 -0.7466239325573916 -0.019053159976709123 0.10360697275938931
Ni 2.274029485325342 6.215155571665374 4.643887963703637 2.2790479536510038 -0.3439665517922012 -1.0840704238428878
Ni 5.302196994843125 3.9699900194425157 0.8568838852639341 -1.061402807042043 0.7378364161727486 -0.7685837246579343
Ni 0.15659855357722083 6.0601210554692555 4.197857952061324 -3.79697455245939 -1.0946811094791986 -1.11888573174986
Ni 2.2628643536094817 5.702643862976505 13.04304622037012 -2.238066883252952 1.903041856924755 -1.218660989467985
Ni 3.211119449707962 3.5711145402172937 13.055204727179385 1.029861541900652 -0.38717959684456543 1.7292411967590995
Ni 0.4600907260772425 0.3829015298740444 11.050053668153133 1.0044014499563347 0.49236471272435206 2.095362687381785
Ni 5.061471241403879 7.354329825400661 8.420341681877513 -0.5275692856499431 0.005705535025209528 -0.7605613685740902
Ni 5.317102215948578 2.3822255847677645 8.914454356227703 -1.3886918981785632 -1.3214914890726661 0.24156619774640328
Ni 1.0331928018183973 3.8893989040942873 5.1165213138788035 -2.0439948744327703 2.5874715753415893 -0.1557648857098672
Ni 2.121972337586787 5.1454073015624555 8.14179967326369 0.5979074690538734 -1.365807794491538 -1.6890800511591815
Ni 7.323618821125429 0.8804446105366048 7.129984193182419 -1.455701531429893 1.492771182588681 0.48742870887531536
Ni 5.130272345236511 4.806639745426487 3.038338347199358 0.9917282253640404 -1.3800542771082234 1.94142996978465
Ni 7.692591964051548 4.626922477140821 11.060866845511201 0.17896394953414987 -0.24499013582628773 -2.354124165960552
Ni 1.3055485004148384 0.7198900164625297 1.9501156896054384 -0.40851898175229 0.2690487194373883 0.02883492195382131
Ni 3.8670043148008286 0.4690053715731737 2.4027354263123146 1.2853446068384637 1.640300310652317 0.8591523761761268
P 0.22648860235498022 1.1150520555837355 3.7861513013012407 -0.08439954659300304 0.6108185206885868 0.5905006350668411
P 3.6255434086560117 2.7263505662455807 1.7354731541598538 -0.28064722290826505 0.2047099481500023 -0.05074097799829325
P 0.35225485146055047 4.57942242295211 12.389501897703616 0.2111431053698557 -1.5809458799533997 0.005314213124061815
P 1.6537076323644762 7.55760873789988 11.371472539378503 -0.28601800030187513 -0.22288867594155806 -0.2947358397908472
P 5.835476767464376 2.8768455144847973 6.890943777320695 0.11799563738089357 -0.4040398629350138 0.13760724096423396
P 7.701753804644726 7.259467558155533 0.612936325092523 0.7856784753566921 -0.4447378548750082 0.40048042771852965
P 4.90695133210166 0.39363475937538195 13.059253580705317 0.49825433873590963 -0.655595053573329 -0.16985915901940424
P 6.466926994505824 2.7929554013703193 10.908038706372677 -0.7060598950921002 0.05691419668854069 -0.7128270386126047
Ni 6.776701965815833 4.870662356672908 6.526970591733342 -0.6681518071924171 2.2103061681999163 0.460249320247046
Ni 5.808276117358247 5.060138777125031 8.740590741360146 -1.3084282281308046 0.8345320065242854 0.653609390601868
Ni 3.8738412349626397 1.6150937365043556 6.847112135132784 2.63015420181178 -1.6572665061930105 0.7212047211533386
Ni 1.3879131716652566 0.5104486864088605 8.723697851127005 0.04628191378567513 0.4633999500608858 -0.0828568846962315
Ni 4.308628923855007 7.157814317792694 10.898032359108972 -0.7807653543257908 -0.8398243652714763 0.2312578738418598
Ni 0.569514530537968 7.200912645156798 1.8603388412010997 0.956242887973237 1.2034935376989275 0.24302272768727176
Ni 0.728648442008527 5.710307829932082 9.620801940912731 -1.9019810197604081 -1.0481767952700722 2.087765334650501
Ni 2.9405281176048916 2.714790289950476 8.651674940562208 -1.286215182368875 0.8369745545275069 1.9823045965118247
Ni 7.256352348565676 3.384321427140505 8.763616643039514 3.2929917958801354 -0.501008247331963 -0.04723476461724768
Ni 3.0093292214375236 6.777602527880158 6.750677560038618 0.05267470468589638 -0.08021584752895863 0.3472596207211761
Ni 7.1797861942804495 5.001023310188298 13.196842923198234 0.7201071172137857 -0.32194531032610363 1.3316905410928548
Ni 4.609545305062885 5.734034883504388 5.132163525571592 0.31872808894038657 -0.15253043793296958 0.4577694912479859
Ni 8.33814793363114 2.360336412959386 11.875376528826019 -1.8557500138173266 0.4940891516146265 0.3893871460188455
Ni 3.688545995523452 7.905795438075976 0.8061859168059894 0.6409688190197219 -0.5696266198313092 -2.0245959010808683
Ni 7.975138717028967 1.4565121085038568 2.1180475410799193 0.09292609600677544 -1.614001524856788 -0.6648214572676033
Ni 7.868137240733098 8.032195756390102 5.64221339163768 0.02620236942698068 -0.6492220601674497 -0.4034557082967697
Ni 3.341949063073153 5.25378718918127 1.5847163077692772 -0.33377495597118 -0.6656575800156537 0.7935974730934526
Ni 5.614113098408108 9.179052355898605 10.980263783931507 -0.4557807429527312 0.29948980953606485 -0.19631452499745547
Ni 4.205698355666239 2.400760622356975 11.112607811870173 0.6813749907509103 -0.3491802347826567 0.6626601879502264
Ni 6.085180573320409 7.054856181377466 12.553170782426665 -0.3455230976460436 0.05991595962934197 -0.15083299562588864
Ni 7.599126486947005 7.9755981874699495 7.983901737279375 -1.7946983979216447 -1.0800571889184367 1.096451056895428
Ni 3.866857284259714 0.3983002222331123 9.444342318053627 -0.7287786768458545 -0.44619669880872187 -0.8103392113281657
Ni 0.46196904123997656 2.9631064950747428 9.735890096969882 0.2764532394315755 -0.34145792643773454 0.028169777565996645
Ni 6.239755619075545 1.9897551234898303 0.3156332194325278 0.7571693121734056 -1.416440014826109 -1.6327186416503168
P 3.032238417624882 8.757387142800681 7.584258942417712 -0.5128659180014973 0.26406515017986776 -0.7020119502749715
P 0.7166139922183287 5.95632668285144 6.242080539506914 0.895097169701852 -0.3428527499027321 0.16211988139361755
P 0.07826711385774168 1.967250261290536 7.796749318317738 -0.9367405562742512 1.1143662466129518 -0.21691008976061998
P 7.0975317959358675 5.424572352094248 4.34175490476804 -0.2455390663512223 -0.8743337119022555 -0.6450815556365148
P 3.693370435153762 5.119217486426486 9.499190223534521 1.3345912596794178 0.6382714746932169 0.3356541752717639
P 5.74492433295566 8.789963597066299 3.347276163365897 -0.02329445175156633 0.8675591121825832 1.4887885437918489
P 4.337226364101722 5.990860481195641 13.123958965027036 0.22849136684031615 -0.5699544354843733 0.1307573079219361
P 1.3795416202305664 5.234994848145109 2.4801387357410105 -0.9540749337876407 -0.17155814398838196 0.28374205978350486
