# total energy = -381171.9200022726 ev
CRYSTAL
PRIMVEC
9.23569443910427 0.00000000000000 0.00000000000000

0.00000000000000 9.23569443910427 0.00000000000000

0.00000000000000 0.00000000000000 13.51737236992818

PRIMCOORD
 96 1
Ni 7.759654925197591 7.59456688846752 13.08461365036658 1.0722284369026374 -0.3129603332186739 2.640389506386543
Ni 7.199934904051344 3.2089142991749724 10.445428094318517 -1.0974797552702584 0.2731228895067619 0.26140354418730466
Ni 8.337338371878943 6.0691072506098624 4.006413736670386 0.237334676163559 -1.6666044957644848 -3.10280112439223
Ni 0.2523930555389848 3.0957678075397226 10.698296788117174 0.8428613523255871 -1.703953368726588 2.1733727855086764
Ni 3.6305883966846118 2.3937719147388337 7.3906501454985385 -0.4509329279421266 -1.1015490402436254 0.11476684603095073
Ni 6.520437162717557 6.836953644215528 7.630177878790531 -0.4450857251327302 -0.07596941354777885 -2.0262398644421946
Ni 1.0661685572094701 8.674413509027886 -0.033080410067679145 -0.2945782311670604 0.24812328213863072 -0.17813656853684806
Ni 0.2709124698747127 5.72833783571591 7.290946207007938 -1.3048477098683977 -0.24870975076972004 -1.8762388777992978
Ni 8.894195327772808 4.4551327179817966 9.010505044727221 0.10662570498105509 0.2905655104632415 0.44872023656152393
Ni 3.601172710139981 0.7486887927894884 13.196307367278605 -1.2310081981794283 0.09667707840877543 -0.6520147924212384
Ni 6.735176292340542 8.129978562051612 11.198156579822173 0.8748916412882546 1.1937200032519315 -1.6862194417819347
Ni 5.753985358960632 5.575477858321818 4.268583698261536 0.5254766647869724 -1.1272240764122263 -0.0954869147554162
Ni 2.383141630527571 6.575518843895635 6.536785265308656 -0.6049229811397583 1.9257842928275932 -0.3837829124581907
Ni 1.1257110787646456 4.61696979029626 4.519938661754174 -0.7432984677285844 1.3184812414914326 -0.9157603544781584
Ni 1.3639550505402478 6.529765214023704 9.156992393011173 0.40702722769811184 0.551170984229283 -0.48116318758157783
Ni 0.7679729226184331 1.4117774759493835 1.74101058501511 1.6997593852498982 0.36533216195217083 -0.3787803170372767
Ni 4.5907127112236115 4.406128123694258 6.615740292844416 0.584381923763613 0.8779769650817975 0.05849748201526054
Ni 0.49308079204290994 7.704323880271725 5.2302226666759895 1.457810864463412 -1.0488506814086451 0.08039556763993251
Ni 5.196195597936152 8.889208052817045 9.07430706852239 1.5140344628428313 -0.13523359852573483 -0.3784843830634127
Ni 1.3692840461874225 1.040567212436561 7.892672013253806 0.3304662033129212 0.06801262059454738 0.23617433730687065
Ni 5.7349228857963865 3.0003261419974265 3.6546649283182684 -0.11945345287334265 -0.12534693553964218 -2.79682647846277
Ni 5.6423627568951975 2.334774299151047 5.5973138105031275 0.08156567668863372 -0.9716520234394556 3.6489129489310517
Ni -0.3620198240526775 0.5628666222155578 5.936695100534393 1.2906161396500482 -1.0924488777145702 0.6292173349107486
Ni 4.138292987181138 6.849403360216208 8.342083671642406 0.11638021326465764 -0.2995481735778261 -1.7875527880157989
P 7.608180301957877 5.515621323158317 0.38084955771898615 -0.16702657466661558 0.6048792723860164 -0.18491451069062995
Ni 4.483855727449239 8.25971236076195 11.404606673754797 -1.9855691261957094 0.28730689431662776 0.2250103502702512
P 7.553024735224899 8.686262904894999 2.3254471714143365 0.6229574700439658 1.9614359805929316 0.5838011115594784
Ni 5.264789099966598 4.709483740725636 11.277868010726225 0.17625786345689642 -1.256607129694455 -0.9436768783827683
P 4.384599720135221 0.575211051300504 4.893559441495614 1.1519244073723838 0.05062065037034508 0.600581673451927
P 7.067338040088624 0.9498449867135133 10.269688531280151 0.5913215883062397 -0.10931482177744399 -0.3861421567189866
P 2.3730839593667854 7.248708605979819 11.420570571460415 0.08405321899717783 -1.0708354132098523 0.060586760444121465
Ni 5.838039413353939 4.159673619630375 13.43314566637223 1.3989122903549907 -0.3325300278204854 0.5018626249124583
Ni 4.539399193345442 5.345582954249935 1.2740612666015183 -0.8510839973456954 0.19876504342047704 1.024698509642474
Ni 6.734151130266302 4.60392898985638 8.477825289535563 -1.6448169675757478 0.255605706558605 1.0472905360103768
Ni 6.96648425764989 4.608232823429314 2.2773929300767017 -1.0449184362337747 0.24313611333668447 -0.7757591593604511
Ni 8.363235258871452 0.3776235296781574 12.053184233932297 0.8641030353131828 0.4101372340820033 -2.043898972284854
Ni 3.5550865952709994 9.057657882295073 7.302206365574725 0.26889136792391755 -0.07932316051136015 -1.3170357672941575
Ni 3.3262722674395313 5.576770855532571 10.210942126579026 -0.2631819762439661 0.8128298389605032 0.18503612387015875
Ni 8.128740979007034 1.0076881405059848 0.6079478935378974 -0.770784331853679 -2.5375309817574037 1.5138781397706251
Ni 6.230029989182435 7.961778096321372 4.3234908248161625 0.33766966303989593 -1.2244670546268006 0.7138811909087318
Ni 0.08779358704069215 4.98681317104343 2.0299853023546057 0.8137091562416633 -1.0146863768221106 0.12139540709106189
Ni 2.7909252437159786 3.4749115325099513 11.308282075831443 -0.08113784512259574 -1.4811346267910168 -0.3357094539897315
Ni 1.953229293646563 6.522524429643488 0.7580824175256089 2.8774084510818962 0.8277831178362259 1.7272725030685028
Ni 1.870579064796359 3.401238398580118 8.959774299163326 0.3695379725034023 0.25748286897665973 -0.4553634529096544
Ni 2.888158633964604 8.442994715386186 9.392113776522807 -0.6288419538492008 0.20796136520776443 0.31633542033849393
Ni 7.6210363885105075 4.178218893910318 6.457005490266324 0.19715116196613788 1.2207410119254654 -0.8391185974537033
Ni 0.44975430264944954 9.195657627459868 3.5251684869530475 -0.4935057683073307 -0.367725858995328 -0.6960205085782272
Ni 1.2956386193406768 3.6651945434609794 6.479173927444685 0.11857387848186675 -0.9597321320734181 1.862027362185606
Ni 7.1823686133738285 0.7946576143400661 4.359461083649874 0.9676706701942044 1.2247290500389358 -0.1801613122763607
Ni 8.53337522041782 2.0549512313553735 8.766610675140628 0.06967355323673807 -0.3952569745360612 -1.0145315964118011
Ni 2.2535556029270336 0.8468900838073059 5.543447546703158 -0.477864719335964 -0.08874625359747296 1.340676032420917
Ni 1.0892485574214112 5.225112556985207 10.943474919220156 -0.36447521326851423 -0.8562110341596157 1.048174224166911
Ni 4.476199336822709 3.8885413402298346 9.14243416798753 0.42268010374402043 -0.5292032217089403 -0.6059573359415436
Ni 3.6758802418384167 2.4981352610353253 1.26138712322783 0.7074812009196589 0.97487207303865 0.34071282074159387
Ni 5.660159939931776 6.664421637829266 12.755411942661686 -1.05008763913954 -0.7896749981105948 0.9653461358260859
Ni 8.043818769343648 3.442678959184751 4.111673868889478 0.22188208905391463 0.06762078447276743 0.11705358518259841
P 2.927585813198208 5.173143304807298 7.873017532080923 -0.28033200566069144 -2.8595665378044686 1.453546432760103
Ni 2.9228663733789597 8.135529214363487 4.452284429840396 -0.6854705009765227 0.5442704004547079 1.7702297233563193
P 1.496718157001493 7.093354991107847 3.1905057131715946 -0.1829350183667559 -0.949112704686359 -0.172841895796812
Ni 0.6109707363027506 7.955220753323982 7.521011971425528 -0.20987118063596757 2.2753530212979203 0.6793859853453396
P 4.304489307234711 7.595795235817737 0.7535356851909396 -0.9087679823207253 0.06843325307173376 0.7280623675051203
P 8.300534129844294 2.7988494694790225 1.998327189218755 0.3588077305700917 0.5152040792163708 0.5619665321828903
P 2.773146532068125 1.4542431986282567 9.642563641967916 0.48686383751078083 0.4791633835427295 -0.5821124110031458
Ni 0.7264704828615707 2.0729423639735653 4.405392962423002 -0.37220934868797834 0.8704798853738042 0.22564284164792753
Ni 4.056852634292424 6.866147674095458 3.1412342073169794 0.8949125644948717 -0.2894753627228563 -2.294126959471314
Ni 6.548569087745797 1.9027562239553837 12.530469217906987 -0.06368211153999355 0.40457285262034837 -1.4010373071177935
Ni 6.041584881409547 1.9246725266776468 8.524717680522393 0.06592179950378971 0.3545039609884153 -1.113818858749914
Ni 5.615394529356636 0.2783241146006361 2.7056908675831415 -1.9153780098926045 0.8351758107558712 -0.8657043183620315
Ni 6.30330598825468 2.1503097756484073 1.301478348886099 -0.9685363606286095 0.8630571105471717 1.0830170428777088
Ni 1.8831857876012006 0.11616471655292164 11.206658960052312 1.5943791226401702 1.4115405206419627 2.903060604432362
Ni 4.747460915944324 6.9808919408554235 5.886639484228399 -0.010333777825840267 0.7677530012265229 0.8106143193664233
Ni 2.5151104672736397 8.689606226254233 2.018454537942998 0.43438967887146485 -0.7921851661269583 -1.466936995134396
Ni 3.093070984785866 1.2204046530635777 3.2826807136178666 0.09577230720631892 0.6656714639727246 0.009391725627545117
Ni 9.359452666979186 7.273949758672591 11.404917916654812 0.4537362017188767 0.8177375606747659 -0.1341179968640529
Ni 5.579532328146964 6.6058026857103425 9.998908131834824 0.9157618971400551 -0.886089309776287 -0.11457349907322202
Ni 7.4813095684999205 5.597569639236968 11.538482681386725 0.7991271446624302 -0.5733238661772384 -0.1951932669088187
Ni 1.7969059308665258 3.2232850396030557 2.7543398876377228 1.4065332972353584 1.0693657706428614 -0.05341106863128866
Ni 8.631476765936524 3.0632858704667347 13.217570706409438 0.2323426222656063 1.2422230930586415 -0.4161165915938898
Ni 5.915249818224617 9.139827855038426 6.516157341949964 -0.8456911084648984 0.42814344085143685 -0.5896359730737006
Ni 3.1238904968736003 2.9990423804810358 4.990411397567067 0.5698006835153283 0.7234009574737089 -0.5607779111914277
Ni 3.4576315483576736 5.317044658669745 12.647840116143653 -1.0002159511200774 0.9280491991478405 0.39850016406370725
Ni 6.21056114546624 7.099284306888586 1.9963267378198328 0.2747154308048624 -0.8779787648540106 -0.60742595006727
Ni 0.427939592565174 5.540493048076587 13.241144816269774 -2.2219802621037346 -0.39714827802150315 -2.0083056485612767
Ni 5.686306190672075 9.230614730622012 13.599558101673887 0.9890002849099161 -1.1859537290429512 0.40181251626639186
Ni 3.326881823267458 5.53120193954789 4.808656626790391 -0.1593927122704416 -1.8151810912560287 -0.907329964322618
Ni 9.477392483988584 9.205567527510853 9.92491451931061 -2.5304229099577134 -0.34153763063573445 -2.828032985972562
Ni 9.118613465087714 7.387216314334553 1.7703699338241292 -0.15926544266395795 -0.0518987457518203 -0.40943403736739165
Ni 7.622347857109985 -0.3557173862196929 8.009867433297584 0.795174073551953 1.32550652376933 1.1128045585527868
P 7.816740752052335 2.1512425807790216 6.558237012604485 -1.4837322123148642 0.050280750532423084 0.502335965004451
Ni 4.943784071008442 1.3749824696090982 10.748743997864137 -1.4578836266828763 0.6127424771841771 0.03976416727181539
P 0.9801288285282208 1.5337902341726537 12.71699514839134 0.16985915901940424 0.7731757149039911 0.4187069780288853
Ni 1.680249875373518 3.747974072032259 0.4916806607775517 0.5340700628829383 -0.6744574376954707 -0.9478065842804256
P 7.907666163051359 6.834940262844498 5.707480867137028 -2.547943949560612 0.7459654730377863 4.320966148060403
P 4.532112230493413 2.81422690059262 12.420302161273087 -0.5860269155662036 -0.7160640574926636 0.75934935054386
P 4.1045365242861225 4.185505856762347 3.1049942662078815 -1.090862764174373 0.4733367495586235 0.005700392818886956
Ni 8.029586564331003 6.929015045621141 9.240556955603267 1.3213477644059501 -0.6469767157766987 1.4141879855671387
