# total energy = -340887.13615764625 ev
CRYSTAL
PRIMVEC
9.11430133423108 0.00000000000000 0.00000000000000

0.00000000000000 9.11430133423108 0.00000000000000

0.00000000000000 0.00000000000000 13.33970129034776

PRIMCOORD
 96 1
Ni 6.71907189327509 1.870682960114043 11.183284831739646 -0.14300270094819242 0.1870176730765618 1.2517552009187927
Ni 4.873526175624979 0.4592924187322928 5.953014884901837 -0.8096545265563152 -0.1080236137698462 -0.4169324026269658
Ni 2.897591266281973 1.9942546545759652 4.681475091196232 -0.07146406947825756 -1.5519101548426821 0.3931532979294971
Ni 3.3488129713805415 4.397158113761368 4.763019831805567 -0.4005783867489746 0.7610406222033538 -0.08088613412310587
Ni 3.65559123247317 2.8497958712562816 2.589849623561921 0.229714697724456 0.21892686308033266 -0.40802378728342636
Ni 5.335785299368878 4.585523374820857 2.817904931669155 -0.23906348592920762 -0.5524490796107582 -1.5856517700695014
Ni 5.343924370260934 4.549795314466031 11.419664231051488 0.11568524408016206 0.7485311768824335 0.6009326290334425
Ni 5.653673893515723 7.85060326189533 12.357805624409785 0.5133762819790126 0.9341604542519009 0.7706226094648341
Ni 2.1959450238596268 6.775270673925054 0.5776853673029876 -0.9500537284433895 0.5613497245344977 -1.2148950946676496
Ni 3.044969515245632 1.7515863874975846 0.3105133016878849 -0.8210578832972505 -0.1199967269713224 -0.036076691117899164
Ni 8.145551160145978 -0.09225677870500598 6.4490917114877115 0.42670825106680704 0.32567392413060037 0.9484203066050246
Ni 8.864578374786857 2.201340690117294 0.9732268954848038 0.21855071068783655 0.8989013739392906 0.3528494561041278
Ni 6.936666717997316 1.1869736622779967 4.73260540899841 0.23426297921677075 -0.3841202411929514 -0.9631380724311734
Ni 0.8091867926602628 7.7392811881264905 2.5966662093627813 0.7967473315763439 -0.9777964457742967 -0.07719557264539607
Ni 7.691285278476359 3.808255776081165 3.759354816330718 0.1812925976673265 -0.10810923150511703 -0.33938150352468
Ni 7.71435357458811 3.6888037457213807 12.51832213842484 0.3608581853412172 0.3653275339664805 1.351060975199667
Ni 8.277662954748836 7.199687219456393 8.637696077232599 -0.42971721309645994 0.36760424581579915 0.2411913309054878
Ni 7.201473622474134 0.6678987196989242 0.03179706228568437 -1.7225159622201238 0.10758318379831795 -0.9576515953953055
Ni 1.6122834093182055 7.025585839635502 8.992145778855809 1.1117100399370274 0.5641072326749769 -0.1274362139685031
Ni 9.268515085721948 4.796282473709889 1.2672651864845805 -0.012405315642888314 0.00531704133753923 -0.30583477791748626
Ni 6.414061806597982 2.217181345448082 7.031876530262262 1.2194117515910805 -1.026640206749877 -0.6236141297913582
Ni 3.558341639619599 4.619036660005728 0.6075192091293786 -1.4422821727001935 2.137927043106557 -0.5488050551002678
Ni 6.219580849493062 5.654749381046813 4.656995901272509 -0.29268821323319916 0.8749389495864222 -0.8001450444039833
Ni 5.36516069184939 2.788921454136413 9.320596025129994 0.7920602105133197 0.45450161912999143 0.4890611022724158
P 0.14144210465011325 5.686986664076155 12.431760886484055 1.1947407312069618 -0.49673764498106704 0.17127557975095664
P 4.0385559365520205 6.451767670293879 12.729983553123855 -0.3419842312548497 -0.9539409793129376 -0.2767057217620138
P 2.471443003539559 8.884994409275329 1.475037528899562 1.7195921037051096 -0.9200610387360413 0.6455410117714366
P 6.511220256440444 7.9930689025602 5.528225564455061 -0.9503643177052731 0.1719929175329554 0.002365414908383023
P 4.967166505238623 1.3909517211405005 12.573761697792266 0.4902844331565557 -1.5030715360734241 -1.0050609379172044
P 4.1064665941295235 6.275670258529696 8.081511346250284 -0.5053122740239555 0.1653489298538765 -0.2629120104120311
P 4.732035765178978 1.1467157942710409 3.611897272947395 0.8470219114611799 -0.17381197301956516 0.020262092683145747
P 0.2703347281005937 5.69806965422704 3.407119889877463 0.18401462458417986 -0.6895176744627028 -0.32276523512423766
Ni 0.7533616983558465 0.011103953043440043 4.601329395807424 -0.5192602515636153 0.15029846327865726 0.08239691434067745
Ni 1.9482730054713482 6.617748207824936 4.618110647012859 -0.03944483625918368 -0.327864504024016 0.7017653814818043
Ni 5.911918501192676 5.639419126578236 9.30031943944852 0.02965510386227151 1.7190747977490588 0.12098377347494003
Ni 8.89780911663729 2.6214643998253866 10.097326791534254 0.20133768924365972 0.6297490390445025 0.6358680074580467
Ni 2.2353643761643776 5.4711782423716695 7.133938474102401 1.8245820728549544 -0.5284401182906706 -1.222859858040681
Ni 0.35313541940301496 0.4842482866041168 9.204300277244924 2.0346160043210313 -1.6463853405041322 0.1405706944679321
Ni 1.918350754924181 1.4213661439476575 11.329528350214995 -1.1874462544280775 -0.8620263552898122 -0.090341880219367
Ni 4.22121564511607 7.15700494735393 1.7865060093438718 0.7737012483901579 -0.2107826367066434 -0.10538129105099273
Ni 5.570305381254091 7.8939326493766675 7.608458155700717 0.4931082757585959 0.21906133177566792 1.853239074470015
Ni 5.271711762559074 2.9998628390476636 4.79841066301929 0.41984520539838666 -0.3095991300559249 -0.3465474251454999
Ni 0.7658938623833685 7.3745906577750455 6.626109667664099 -1.1877013078616772 -0.2530888536740222 0.6361104624861561
Ni 4.995730724920263 4.6087648426537156 6.650227931263828 -0.31466497461460646 1.4704023279751772 0.979738657102332
Ni 1.2281703032993785 7.577165114266466 11.369079859885852 -0.06453880311333401 -0.8035669256013388 0.3951471884310743
Ni 4.878201812094883 0.1317517797089777 10.573380410009538 0.09703369041724579 0.9352755416929506 -1.2185015810719853
Ni 8.24805059043944 7.160131152634977 4.518583390311668 0.4391102242755857 0.47677431448526275 0.04732963832389913
Ni 6.983559797213026 6.176315262119501 6.722355775965356 1.4532181028864068 0.17709218643273372 1.1420467432473558
Ni 2.4611073860797705 5.517606492230723 2.5422000573540044 -0.15089650187397236 -0.5890605601862049 0.4624720389299778
Ni 2.5766767241663007 5.274418709989019 11.313853575164424 -0.4981309257841679 0.09078488129405654 0.977163183065672
Ni 1.1442822758744238 3.6144583915595643 3.5218142550573446 -0.028651345188105495 0.7528395744498002 -0.12487410966828172
Ni 1.5198552817523139 1.4081412930357051 2.6841744371889957 1.8054255545311617 -0.7175586397603191 -1.4630821401646803
Ni 1.2927177837669497 3.463789879894862 8.19512566674852 -1.1336695749272538 -0.31719802544910536 0.5313030416607624
Ni 4.052983875210614 2.631727102876288 7.016949127902788 -1.3938706141660253 -1.0437629824730927 -0.23642784807857348
Ni 4.253899528899847 7.004613832779263 5.794138945086745 -0.38832296642038927 0.34771239198787857 0.2749244614918749
Ni 1.1501518857898594 0.15155259887246247 -0.027712943957878843 -1.5276319990216076 -0.22889477292632193 -0.4588418983765581
P 0.273726159543969 5.361870429148346 7.88991324258675 -1.4906780475050778 1.706876455910654 0.8339000293672412
P 8.618957074148538 1.7163231564994155 7.683467942413519 0.1535614503006452 0.8826404319957379 -0.5313686047913752
P 1.9174848963186433 3.4041914649305225 10.45457731788885 -0.8928793361149268 0.9010973531493448 -1.4853383804597193
P 4.2480937190921875 6.215935129048693 3.8055634115329977 -0.9529541899196362 0.4607943941172386 -0.9714489062897141
P 7.255703714084138 4.092421456117587 10.516206399140705 -0.8206336512756383 0.2870739523702153 -1.7732044897139267
P 6.580525402087917 7.714016345447006 9.953151307980974 -0.36549079901722215 0.35403987686780314 0.9151371190718626
P 2.34553804799324 8.520048678492778 5.865466554150735 1.909341059669905 0.13879946150012223 -0.02990115843480657
P 6.888078378774974 3.8764398626919956 1.3413598973658458 1.0238181639200497 0.856713427717331 0.29429978069469315
Ni 5.046251295978121 3.2011339504802225 0.35845087981090645 2.770978921272047 -1.6774013292696726 -0.12795763368961188
Ni 1.691678086295474 1.2489600241333982 6.909085019975434 -0.9506720787536789 0.16652572377079708 -0.012362892440727096
Ni 7.200261420426381 0.9556891572871618 9.145338951928238 -0.2735458359767934 -1.1975180368417826 -0.2889279748598185
Ni 3.062131744237504 2.136155208571958 9.018945469842373 -0.3663752585047045 -1.5128869795019493 1.1746177352048417
Ni 6.608779735531786 1.8505038974544545 2.2172852484807466 -0.14090776609237665 0.8844224635968252 0.8610755613407687
Ni 4.120384131925905 6.836655491907136 10.49207537551942 0.10890653059543179 0.6757969824425006 -0.7481208288178923
Ni 8.842758737927303 7.341350801623501 0.3471400321322484 -1.1216936335123007 -0.17657822291079267 -0.17925679818422033
Ni 7.098254162392908 4.145211488152066 8.177717351626654 2.0017506210515785 -0.595621244122858 0.20261578462513494
Ni 3.284055861987419 8.558720658106433 12.324856514463681 0.13984821447961077 0.5614669668386524 0.19768775119589824
Ni 0.3002843215510936 5.462145969970743 10.171775137298622 -0.6831161418117333 -1.162797859751778 0.436501583008145
Ni 9.243359614655793 2.346649992728773 5.331105105748417 -0.522884478579764 0.09372365220740632 1.1018092358835476
Ni 3.7200749128329647 2.9381772491289224 11.398174531892147 1.3396409062881833 -0.2543456088992588 0.8537448320073103
Ni 1.1591385866852317 3.515914567948242 12.588196016461639 -0.23700711762081114 0.2306770616377253 -0.20625492403961895
Ni 3.143285481329181 8.995313909921967 8.074373937050318 1.763173844950802 -1.1466973546454897 -0.6915092509714349
Ni 6.1901325426036635 8.142306468950487 3.3376598011111027 -1.0210611700002028 0.25038688136182685 -0.09621762227385364
Ni 3.089137418429175 8.517341731062833 3.573172430387296 0.9837287520983315 0.6541542073617443 0.6297683223182121
Ni 3.7210957145573884 4.4551250688268516 9.1957364799211 -0.6448249595410185 0.48175942640468006 0.03904322994539083
Ni 7.297574813387728 6.341703370078347 11.667596007021428 0.48328640457216765 -1.690170970230515 -0.831985843063664
Ni 8.230159217358695 -0.018271439437071536 1.950477754910081 0.3828750559319406 0.23700248963512083 1.1857626960780674
Ni 4.856856118893097 0.43970851993524807 1.3057284486027956 -0.24552466817351906 -0.5927225824188244 0.2624713233301867
Ni 6.01364321589171 5.790798553729591 0.3832226388002898 -0.7420954485594187 -0.3709189120113289 -0.5563682121595063
Ni 8.190147435481734 8.553188277332103 11.297032221034101 -0.3680714152602048 1.0144068979084788 -0.33932211104165433
Ni 0.057725426086044085 5.029070838384026 5.755693911570752 -0.3287800738597499 -0.6332046016932708 -0.6926461927893555
Ni 7.435273674571584 6.105460685283169 2.205039273508108 0.4076597190757882 0.31882784774304446 1.3528761740315345
P 8.717929269912073 1.7047571083896516 3.2842345022891934 -2.403614816491512 0.31741965454160814 0.9791892123567651
P 1.898900836353467 3.3959339081240243 1.3283793097236665 -0.2321842423108711 -0.07887193190655449 0.8174588530920824
P 5.253774817972775 0.8591049084146885 8.425555250295151 -2.256271322076121 0.17360242811192036 -1.5371509942556365
P 8.861771170044692 1.4335063930274097 12.193273349325255 -0.2780015577553019 0.8056014395328641 -0.9453051580148106
P 6.5528999554207035 7.95681221274094 1.1241068589352798 -0.12555750888855152 -1.066285331945325 -0.2202358116997433
P 2.018398438218806 3.311471679729082 6.1593799792252915 0.19583681403008854 0.8168749555641545 -0.7349742641336051
P 6.970936490174394 4.036040389445405 5.919759534438404 1.0074602913873165 -0.11295678940540546 -0.5215904423586888
P 2.411233930400788 8.866638206837926 10.041739580488832 0.15166860415330655 -0.4166074151873793 0.7839082708301467
