# total energy = -340872.2476530496 ev
CRYSTAL
PRIMVEC
9.28427991994373 0.00000000000000 0.00000000000000

0.00000000000000 9.28427991994373 0.00000000000000

0.00000000000000 0.00000000000000 13.58848213223113

PRIMCOORD
 96 1
Ni 7.946767806034486 7.680076871377605 12.479471070590064 1.547974824344018 1.933494259877341 -0.8804855904362643
Ni 7.259953930240671 8.314629536686354 3.061838466285896 0.676661387325325 -0.9948474877193124 -1.5799156389166726
Ni 0.30569790742859165 7.661870398867174 8.25937785970684 0.0232492003359277 1.0797545700763533 1.4760453851935675
Ni 3.708466265784887 5.634777904202437 9.075094674988074 0.520209245740446 -1.4303357989715946 -2.511105954796656
Ni 3.46844906673355 1.8671057867097374 6.860525648576326 -0.058337816508944686 0.32402044768757743 0.6805072434339764
Ni 8.42681148841687 9.31640331734701 0.8803094060765302 -1.2290803850290961 0.4867270548226004 0.4425691293584636
Ni 1.7179724017352043 7.294834969109456 12.511893632191763 0.9188467067129659 0.32605290473657395 0.11653756477812834
Ni 1.3663674448547618 5.667356441703255 7.852008733606914 1.3153357538839154 -0.604368651298185 -0.8199255694650202
Ni 8.343717185016379 5.87158274247427 7.265896797682753 -0.1528366563194787 1.605969398580931 -0.9437789511782714
Ni 1.0752495702820506 4.199799632294086 1.2379881387429612 0.9944867619457839 1.084854096086448 0.12420202330192158
Ni 9.041755754979043 4.12865419687979 9.551139618099555 -0.7027760821345058 -0.6004346063511014 -1.2950392084184084
Ni 4.029442383903517 5.3392499967676885 11.268969041927232 1.5182680413082046 1.7840087794182824 0.6615348160965316
Ni 8.139917961112005 0.008098677190642174 7.305847053272957 -0.8841285865054903 -0.38494942196246607 -0.39882669416519057
Ni 2.6942794031525596 9.433570927281556 8.774137320779179 0.47730524728806834 -0.843274785713922 -0.31507686534104445
Ni 7.91664031837699 0.3840590850331521 9.871651522232707 0.05350465678635946 0.2207847422246778 0.19132427087171566
Ni 6.334162694722987 1.7973251404127448 11.319409605161255 0.4176661954691968 0.5556629585623656 -0.06323319692803304
Ni 7.961436967975578 3.6603829811691173 12.617965599445421 -1.636477337361801 0.6549867305653687 -0.5612425095326721
Ni 2.8954326073397123 5.983634714288852 5.5951934492327915 -0.14725170603253349 1.04784820828606 0.2532395203192735
Ni 3.7961377190821866 3.870170565486154 5.465994341222637 -0.9187286930778629 -0.4420250839295355 1.5437201628327222
Ni 5.546725795437046 0.3685134870874783 7.073633291317496 -0.09161483339451965 -0.48108168361136505 -0.022215359754774643
Ni 4.065279703582388 3.1060836296697367 11.87898242753566 -0.09237510859931188 -1.1219093490675325 -0.3537786527866165
Ni 4.733627147033905 8.21005141003796 1.1649626366874803 -1.6327752059198655 0.09812460948857939 0.9359579124719558
Ni 6.022322307838555 7.5537363930900225 11.05129446199693 0.35002921304651324 0.007447200306664594 -1.2232498943902481
Ni 2.2591066446064403 4.872510687209092 12.692634419009494 -0.3719653509979723 -0.16122308061096105 1.5859916699074232
P 5.680465844653142 0.9406089459341281 9.429699382642672 -0.6484067633550059 -1.0204145375551392 -0.3814118411228528
P 2.3914447675863935 1.4916402309757466 11.693880814538353 0.13119259568714178 0.044823069851961515 -0.22844920074847108
P 0.8816389149309379 8.338889359567412 1.6589903011683915 0.9948724274199768 0.10421555287766568 0.0273015160284304
P 4.313104981869459 3.8680630339920854 7.6260330791883035 0.3236828618425006 -0.15086410597414018 0.29838629205924094
P 0.3264937655500171 4.7138887683713975 11.5737310939611 -0.7671189671869498 0.32707440402255283 1.5680127168314995
P 8.076329929381284 7.51438961568094 10.23705941775734 1.3692875255100223 0.11306888950323754 -1.2471562686942004
P 3.2144683109990466 4.643114704145483 1.34336842715826 0.4171951693700493 -0.9919524255597044 -0.034878299934423804
P 7.303580760595855 4.200319551957821 7.968149502205584 -0.8744483831032488 -0.9589078363999097 2.6821750749637614
Ni 1.3678622138879997 3.4771577211011095 6.196089672166442 -0.048532657493064804 1.535060173164879 -0.24896968929932606
Ni 5.905498216253262 2.5785415722932847 13.597858189686606 0.3762423811067714 0.4919512793360173 0.41356965680232
Ni 1.6549507110667654 9.264903417798125 4.18576830036904 -0.8246078054320379 0.16849313190981305 -0.6681726331280234
Ni 5.606423713969466 3.9123769010457767 9.769398179223584 0.05827662425370609 -0.9475808414228648 -0.2290804065745668
Ni 4.963691598236603 7.886067185293435 8.604009394097437 -0.4005735016529682 0.5424917112877302 0.4357225387502754
Ni 6.369433673339574 5.950870491193844 8.909152101599396 0.7363060955711512 0.9561498140387985 -0.27904722541099686
Ni 0.7326345814443677 2.739150326988824 12.460760461691404 1.1586642971993788 -0.8170420772696381 0.031955469860674
Ni 8.487902048905722 2.9692519153103603 1.15713784574827 -0.8899230817000802 -1.1501940549448384 0.4147438796160793
Ni 7.562482184576421 5.517721705624406 10.987918111843587 0.2931929207837596 0.30588105777438934 0.19899721403594114
Ni 5.779102032287423 2.4474475427944116 5.778203314011538 -0.4137707170695325 -0.5552050450893405 0.050619107708448303
Ni 4.606989571795616 3.268400691831834 3.4371656862522144 0.13971143179143036 -0.9424671743453833 -1.5601569682325065
Ni 2.1299437452871532 5.162152361307985 3.42004454603983 0.8563570728191768 -1.5221997722624427 0.013389533933028554
Ni 5.923751110162242 4.720016392979701 5.092107113039271 0.43876055424565086 0.5684338850747888 -0.7736667956077966
Ni 9.272340125845476 2.2148763360701347 7.613898525607919 -0.20101347313502152 0.4403700648246158 2.204724817457396
Ni 1.109165044061044 7.440700287626227 5.8280589676238606 -1.2722512639896153 1.0702301755256858 0.9639227731159978
Ni 6.893893349852456 2.022803157438924 8.07488715231442 0.26520080644620775 1.376654507398055 -0.08823923205406739
Ni 3.131968201499968 8.934652304249653 6.000048392387369 -0.1797638197276259 -2.161022234363123 1.7168333100130495
Ni 3.347465617838378 2.5286478531341525 9.231756682379082 1.4943405839583297 -0.1422568239211034 0.33796045480743725
Ni 6.773894034606496 6.004125119607833 13.440992856569958 -0.4568243537258972 -1.747876038251467 1.0016010043930619
Ni 3.3444203740936453 -0.00951638670229076 13.139450592739362 -0.8388884837207682 -0.01732923530706693 0.06925266364923557
Ni 2.9087184116040814 0.26821634181315945 2.0043692200756085 -1.0971848497376588 0.4199675899088638 0.5129427939860198
Ni 0.1747449989813032 3.7120871348716125 3.670941992482791 -1.015946988702089 0.9713892566963721 0.5039932981022159
Ni 3.5121408870467015 7.571989286999002 3.404744053078488 -1.0462415259205724 -1.0768199129280616 0.3207088668158412
Ni 2.8324573380698213 7.3740391593116446 10.189119111049097 2.3681659887655986 2.5287131263554574 0.462708580420816
P 1.4102820878809428 2.2179030112554483 1.9612390986848847 -0.7630813067824664 -0.6269773898366363 1.5008465033976472
P 8.32920585583035 5.188807528354109 1.726661559115374 -0.7768418509016686 -0.6895536699069608 0.04391495621539533
P 8.599721913727565 8.476073876555752 4.7063703586626024 2.0738078440291443 0.5850907769051795 0.12790184075101196
P 7.362610210989186 2.6681163029310424 4.259255231126086 -0.17337282859961753 -0.4987042817891347 -0.5450317041007645
P 5.9551598284196565 4.432890758682098 12.033266730893056 -1.0341966789408963 -1.0824380304457875 0.32548906181330395
P 6.696277456234642 7.60848579053725 6.777363569933955 -0.8582077528746703 0.08417277529417762 0.5326032485294246
P 3.736198409277319 1.2056101416838698 4.819549442033925 1.6737745311503627 0.8336282637630933 -1.6415115573515986
P 1.595113528338703 3.5501228753384786 8.425456912007245 -0.20288652178801833 -0.5103760617001081 -0.6036600552669344
Ni 2.078583109933912 4.130641032737634 10.481719685091425 0.7129044288177593 -1.252035965384005 -0.32576159874840027
Ni 4.157946099363427 6.118655994104866 0.1068611310289721 1.3792436082814699 -0.18111853398330743 -0.9444870329888896
Ni 5.484307582949729 7.354050105096979 4.755153677968472 1.0272963522766372 -0.9661529479980974 0.8103011590013787
Ni 7.530135754068342 5.830165570689958 3.688050134703582 1.3833100650413597 -0.026808121331779643 0.043953522762814626
Ni 7.904431490558928 3.8665218435603 6.046561705304254 1.4910822249220321 -0.5694260737847291 -1.736949106926318
Ni 2.3828103874565105 6.681905391244255 1.448382914953002 -1.330666984924347 0.9727041188530537 -0.3124376279459845
Ni 0.9268830668115265 0.3413411856615326 13.11130901251174 0.8447968787854031 -0.2600732554116553 -0.7397164068042809
Ni 1.0848773683408561 6.205269039515277 10.201566544855694 -2.883299105534718 -0.16700137785563496 0.2018033160261686
Ni 1.1208353836559508 1.7014185310130732 9.792960752698457 -0.19894013554576062 -0.017495585681602126 0.8842833669157997
Ni 5.095054871847053 9.187184712349467 3.4674816447878145 -1.3659391778630796 2.3771278259445774 -0.8560765654642805
Ni 6.248023147577763 4.1108562326765785 1.919373496190602 0.8451516910216605 0.22753851600874359 0.007068219700691053
Ni 0.8277891641875657 7.0024822853353745 3.4863148061786404 -1.280540500581601 0.9335107364830438 -0.4460313768754512
Ni 9.339521173823794 6.037780633554959 13.5242357084458 0.007206802161084362 -0.7558873601371885 0.16960307714454018
Ni 0.8111582339438452 8.577170398313065 10.637267578917285 -0.6207730607981373 0.6588356719978138 0.19489270494926433
Ni 8.970155389858979 1.51477665601195 5.561195345364383 0.3349754040371844 -0.42807504950734665 -2.036436602469538
Ni 2.1756224014581487 2.486478654693368 4.232961222560664 -0.44674820043681773 -0.42023986973364397 -1.5691206051836974
Ni 8.944521493580906 1.482328098427066 3.07543993606039 1.6437152498711367 -1.3622812693955184 0.559398771455714
Ni 4.199335418308609 0.3615595615850239 10.997973915197003 0.15913663039557754 0.3064065912605562 -1.8624796192316762
Ni 5.082502525679739 6.0497666386599915 6.834925175705207 -0.4921811359586363 -0.17459873058691866 0.6555433743997872
Ni 5.742531254511498 0.09579519804315713 12.954878183685498 0.999319407447737 0.9450174515710628 -1.0769009026776422
Ni 6.8484932220727455 1.432202272275195 2.4253128915388684 -2.479438962710678 0.9474525433751168 -0.732914296280783
Ni 2.904289810182625 2.2434997704146835 0.4384064731689564 0.10992982965362358 1.151446953515333 -0.47334292020621055
Ni 5.833071550239048 6.507240237068454 2.179389033736314 -0.44865904430628534 -0.764205907305213 0.39863771808283605
Ni 6.825978843777082 0.36967587890711423 4.883224745993916 0.15740499241645148 0.8519769414736101 1.336039819200486
P 6.737768902256629 8.070276579010656 0.6697651529631655 0.6998905330565947 -1.626824130542753 1.4650747451146766
P 0.33981020793742744 5.466147531837845 5.293108055039187 0.2020483421574391 -1.192347805494753 -0.1562531382001954
P 8.300266755975676 1.133322739865298 12.266377354268457 -0.25371697417632433 0.6285061677763369 -0.25399285354553036
P 4.787076745321796 1.1804683122304032 1.1755030794417347 0.07103598080190346 -0.14889541228354358 0.6513578755635298
P 1.0767629078747076 0.34162899833252874 7.384238869000558 -0.09554065081148708 -0.09000120905049662 -0.38100560682336965
P 4.25131810040239 5.411017478922525 3.882446240118123 0.8600453203040413 1.104833110311536 -0.0849577330893182
P 4.2156293291988725 7.605886192218576 11.973626374894835 -2.2616490414482664 -0.4167997337038434 1.140967651250564
P 3.0631902574116068 7.206810713183194 7.543509758989951 -0.050539403510448444 -0.2880517429024523 0.19533802001679904
