# total energy = -340895.1986861921 ev
CRYSTAL
PRIMVEC
9.06603711362272 0.00000000000000 0.00000000000000
0.00000000000000 9.06603711362272 0.00000000000000
0.00000000000000 0.00000000000000 13.26906172486747
PRIMCOORD
 96 1
Ni 6.2735162655868315 2.0722059391783736 11.40819504379729 0.5554428721317595 0.09039510205480561 0.5051117279773751
Ni 4.539645760258331 0.203658547990572 6.227382829838595 0.5619053399276517 0.317927190305646 -1.0042919209616639
Ni 2.763581918850693 1.5643990761649198 4.846803092953035 1.0873007578547274 -0.5513100809103086 0.7402802497275509
Ni 3.4629269450235634 4.317047354424414 4.928222451209568 0.14610525113291611 -0.3024859160499113 -0.0193146411682119
Ni 5.135728625292101 4.538557835821396 2.615916121818084 -0.025213780261466253 -0.0536794918013269 -0.004655753604456497
Ni 7.433733281356376 6.286081792833434 2.7182073103972186 0.16235642288445584 -0.8459099093439237 -0.8634607737434936
Ni 4.910664257401132 4.327165051687912 11.75085497728398 0.5634747412973005 0.2575371192533629 -1.0497791067601856
Ni 5.611160670269759 7.816573890713872 12.287986843495023 -0.18908509712855176 0.5110733448774489 0.45375985586796047
Ni 1.9793243903750308 6.606502737621773 0.36020180842857286 0.32174527850015555 -0.6015692341761769 -0.7924474186494094
Ni 2.883135748432897 1.5622685574759219 0.42040210714638215 -0.6002456302687469 -0.3066845275122912 0.6030260212273614
Ni 0.6732448123270971 0.02549460257587897 4.7539732205604475 0.6736933058359366 0.6531147103536364 -0.3075576741458638
Ni 8.67068523407775 2.462943066740625 1.5882799241593448 0.23117199899627283 -0.18902930418995187 -0.8704945406618234
Ni 6.9334965592165965 0.5448225853764763 4.856569027981924 0.6729302024176669 0.05717156411498541 0.7845698156735456
Ni 0.8582799071647333 7.4110681889202255 2.4780371116994035 -0.5238357867494398 0.20773433679862288 0.2006918281295447
Ni 7.735822699382357 3.8435463753223176 3.509122936426924 0.3226935013460378 0.19299163127180957 0.7795353385734317
Ni 7.877579253515014 3.9147963599045985 12.49570062982427 -1.4135521517553526 -0.008441703009449977 -0.22596962885972693
Ni 7.771153045471828 8.765787961939836 7.103259914770755 0.28255523856425535 0.15545763888209355 -0.07139979189922542
Ni 6.563067354477135 0.6847577726809639 0.6692702617174939 1.274341827970057 0.5637706752711645 -2.056545714514587
Ni 1.6639804262923887 6.6420416025616555 9.243042280349359 0.8472216861768117 -0.21604002845084083 -0.372072823110114
Ni -0.15217433722000856 5.057679112978976 1.1762865663067743 0.33202326338739596 -0.3220890349928195 0.771758008620858
Ni 6.403033669803967 2.185132495732247 7.027002757967479 0.6010629839637197 -1.2507488711414652 0.4626214200236484
Ni 3.474576802535744 4.466691360724851 0.530228985658688 -0.8040667480558926 -0.008541976032740126 -0.20564942924513616
Ni 5.997346647270832 5.4978352080890085 4.7591345154100075 -0.027555798131081576 0.738850716369876 0.07106811959141955
Ni 5.270531529065347 3.0496607155797784 9.235213757421912 0.5547011088697286 -1.2314100616035375 -0.3658373837233635
P 0.37625594670294665 5.667234108956794 12.415953955389526 -0.39082439268600433 0.0007196517748439219 -0.9862425196591209
P 4.084884279582443 6.170988453442663 12.538612902635483 -0.8746365878546549 0.3793631861239402 0.4578401965849212
P 2.4845927630356357 8.441985385360022 1.3497153206097072 0.4559733185795115 1.2018927688707108 0.397271948083561
P 6.28160317056805 7.66409221484043 5.787115222473775 0.650122460494532 -0.15785879212441847 0.7684572263823991
P 4.756568826946235 1.0674986556317418 12.665876490060766 0.16173755835353437 -1.229542412267179 -0.5798650097298658
P 4.116515682586334 6.205448459982586 8.271707078905713 -1.6608033157016753 -0.7705578176651696 -0.133336381503022
P 4.947508631665337 0.9446719867017577 4.09743348796249 -1.461424292846283 0.18269796265528535 -0.8331232991022168
P 0.2820135857497375 5.4358597793316 3.4576523247118223 0.46564375178974005 0.6495503900411458 0.2516454363592763
Ni 1.5849427159490463 1.088885436854493 2.5124173371139507 -0.5049230090053369 -0.09398050541321878 0.12712279649314234
Ni 1.9279652909147151 6.455172448444086 4.5815018397620175 0.17558911952464598 0.99049563850852 1.0679760893841863
Ni 5.946350189289493 5.5042992924517975 9.176259132184393 -0.08117461189780213 1.1455786676600141 0.7186066214088592
Ni 8.650395443328907 2.5150818453807444 10.195349683391006 -0.13410154180382067 -0.17242332020215467 0.4657339975107011
Ni 2.3959269214254166 5.279878613186016 7.0602950589450915 -0.21242300052354388 -0.4898131499470919 0.6404700250064325
Ni 0.49013081072434894 -0.06627907650918473 9.018569924672821 -0.2637453049466038 0.6748317903157539 0.06839828606874027
Ni 1.267567959584125 1.0737451551071446 11.39967659545609 -0.09015367546796087 0.45281343279429115 0.02914936787044657
Ni 4.227928210965472 6.906706419957067 1.6260707926836842 -1.038981244813733 -0.09260830765604051 0.14306672141690843
Ni 5.578758654123038 7.859347453159375 8.123877186603867 0.01380219599041494 0.828622840128702 -0.043172678732732096
Ni 5.561569448019462 2.8921836533334084 4.937378241950076 -0.9830479239812232 0.3892938149740908 -1.0493088519919864
Ni 0.6121478825525137 7.294533349650517 6.642598257231888 0.8254894367060428 -0.184058847558554 1.3111014040875937
Ni 5.19930874259399 4.5347591663290965 6.971790592793018 -0.38204793204495496 0.42183318236269285 0.352184054605987
Ni 8.152651881357105 7.130057306859864 9.142516249169152 0.03640270699875021 -0.20574841671684566 0.006019723831518665
Ni 4.520770271277505 0.36078747441712294 10.39260760927761 0.7101276374035705 0.040473534634014166 -0.4353787822576115
Ni 8.351198091097778 7.359337381943957 4.743729505383005 -1.5408346137548108 -1.4174553434645007 -0.38207878528289035
Ni 7.107355950275816 6.129012702250914 7.107559936107741 1.1937966221261376 -0.3950661986814938 -0.9809537604563557
Ni 2.4840488008171677 5.366359539885389 2.5002625013422923 -1.1553709711600877 -1.2273248357905702 0.18671274024163328
Ni 2.3460727841028612 4.979330421445692 11.436100305604677 -0.4299910355831369 1.1382998746104136 0.7569893349521157
Ni 1.3873484400906906 3.179640487682611 3.8740354576674263 -1.0723734471209339 1.1113647407824667 -0.6961200102705688
Ni 3.7107017355355554 2.533268315551511 2.758770573028347 0.21240885945615678 0.23054542115586749 0.054797921676486276
Ni 0.9753242577124068 3.275296243800139 8.147668280832244 0.3318836524857381 0.2860971902792428 -0.14153408682246593
Ni 3.7551343827473835 2.755313693129986 7.066040206575806 -0.5550453795830247 -0.3322621188710794 -0.1905393130765751
Ni 4.093633005262797 6.752601923465196 6.101154583835793 0.4020313171454173 0.536466845249889 -0.47424512030550575
Ni 0.6668849873895134 7.6958686744359115 11.438236263915861 0.0031259472234913908 -0.9360556143920846 -0.3001266717891154
P 0.21941622685588097 5.474952530765472 7.981884915509874 0.060278999395715537 0.9151252919973207 -0.9334477444555924
P 8.448331611242143 1.6801542362548252 7.918737248171667 -0.1959949368745076 -0.47603177989228346 0.5305751623558023
P 1.8302606104409596 3.240373869374519 10.221330225548716 -1.7482290507155118 -0.6569672513305073 0.839844162765818
P 3.996735202079768 6.187996338806751 3.856413801600169 0.5292212194310691 -0.12290670152926575 -0.570825782345733
P 6.750063433112347 4.0327092367944255 10.477356922914861 1.4503690634733861 -0.266832942732992 0.5884074999832383
P 6.341293958007895 7.660792177381726 10.164711918039515 -0.19239333556617833 0.9504980150696598 0.77190199039789
P 2.4776300466392502 8.404034954584931 5.904931092767976 -0.8667114194703073 -0.02814895163039023 -0.6046805261116489
P 6.889381223298874 3.8834732021578393 1.4164984687746718 -0.15423662199079888 0.07827903551756196 0.2674276388941975
Ni 5.127641720310883 2.9020112374137232 0.4317337467607597 1.0595346434850526 -0.3700977016616142 0.9697959440673232
Ni 1.3730241016710438 1.0407085163722125 6.959211466490955 -0.0433606263738221 0.0439334681581566 0.08727506836858519
Ni 7.090810432797426 0.7087329074599233 9.426898790380315 -1.0730614743268938 -0.2826040895243197 -0.9184708114307858
Ni 2.7488224106562726 1.586493008271679 9.12807949189102 -0.11948044945653614 -0.09886328742681684 0.05826968227517062
Ni 6.477483965438232 1.8103515932450454 2.85547526962382 0.001636507162158472 1.0483835119642397 -1.1928388861985586
Ni 3.912466388402162 6.984239168162649 10.523188459631848 0.28825845959661966 -0.5495648160844278 -1.2651758452000728
Ni 8.051438644574233 7.2469003913867045 0.0730740712215425 -0.2718327099404286 0.0054656511002615545 1.2052130914931953
Ni 7.655044309939919 3.8719684012372495 8.239888008936452 -0.09058819190221819 0.20097567791855064 0.08027241179850692
Ni 3.135135312174987 8.524078350163757 12.312163244294815 -0.27295088270527185 -0.12515487413349413 0.4511548141449456
Ni 0.11553394878772848 4.938859632391703 10.06366730954437 -0.19968601257284965 -0.3989639910740032 1.4620375009502498
Ni 8.723014399494332 2.4975753279830624 5.668993826733536 -0.7188675883797296 -0.487288069532393 0.4942755565938197
Ni 3.3843606686028926 2.4611479914196823 11.52617047634224 0.44773601827138376 0.48637532791013655 -0.3346815269458494
Ni 1.0622312881495806 3.3230107963967224 12.79758515541463 1.030432583912774 -0.42080731220133977 -0.0036928754705549305
Ni 3.083585825938208 8.446790384956484 8.03899460222309 0.40129521031034115 -0.6265145912676049 0.0893833729608396
Ni 5.821927897852004 7.695977466879605 3.6495096123727397 -1.583967183278227 0.7136999281358611 0.15020641778548327
Ni 3.1358968592808423 8.5892359578992 3.60853475166297 0.32546206523011045 -1.1689517951683157 0.4028700109966287
Ni 3.457677709615351 4.328896664750034 9.431993903159961 -0.0354547412631841 1.4054783736082825 -1.0448927252021618
Ni 7.24418964633134 6.1194117690949605 11.42353387175438 0.23986772699805786 -0.8457276181297886 -0.5523732320675002
Ni 0.5256950605677606 -0.09155609419767666 0.41437863218055093 0.2947417533281182 0.8997832623236116 -0.08370817695293326
Ni 4.706406444366547 0.28542060244473955 1.8911599006094995 -1.4309330662359614 0.18238634495213749 0.23597430548092266
Ni 5.971372451339003 5.7019117003841036 0.41491715477683383 0.7255270026777763 -0.6093846164555377 -0.2090306870125432
Ni 7.693520570859526 9.045892240302752 11.672076555598109 0.46751808599431743 0.028287534090783537 -0.07240123658054629
Ni 9.516256370611686 4.8481448664252556 5.6495680293083606 -1.0874701935530562 0.03025622778138015 0.2754893328564094
Ni 7.865856867707037 8.852994171597166 2.4735657422635997 0.9795807913682291 -0.4124332292050316 0.36160843324368047
P 8.669415988901324 1.576520367599773 3.6061993405383497 -0.4887813662484679 -0.015582427819289292 0.30376066899727683
P 1.8248572524041813 3.2135837301149897 1.6438375053425336 0.8387583859008071 0.1954876582207859 -0.27141567700766805
P 4.802968804181522 1.1836255232376 8.180323239410551 0.058530392135725 -0.953453755263874 1.1420007205007687
P 8.494686258292557 1.7644049178584822 12.673771195058126 -0.2932751960849207 -0.9181296260412833 -0.6169971386954729
P 6.20907487477237 7.679984977656658 1.4253097501101495 1.3697009588983573 0.43209522641033327 -0.5938798359517191
P 1.8222824979034349 3.086804269064141 6.124441606408391 0.6021179075907953 0.7402792212862864 -0.7063730554571448
P 7.083167763627957 4.080514449760753 5.970308098598202 0.8917490791652255 0.12657438018884007 -0.08856113416986039
P 2.2891562039772015 8.570432997214171 10.088069454664826 0.391553557542545 0.5367769202911401 1.555238704995283
