# total energy = -340895.5349948146 ev
CRYSTAL
PRIMVEC
9.01819280664811 0.00000000000000 0.00000000000000

0.00000000000000 9.01819280664811 0.00000000000000

0.00000000000000 0.00000000000000 13.19903674543411

PRIMCOORD
 96 1
Ni 6.3469591457416685 2.0056010332798877 11.459615349496985 0.6552404984473876 -0.2777146226425023 0.13590182823735303
Ni 4.448936136814829 0.4431567097087779 6.126504908645316 0.528017171820639 -1.4857507854067897 0.5580224599334777
Ni 2.993742477190694 1.5559088391006048 4.78630042438549 -1.708922025585773 0.35895634033281404 -0.08858067455388616
Ni 3.3537397237452473 4.271043261604149 4.6507470635125685 0.278233728370766 -0.8466514154956386 0.43635451590731944
Ni 4.956624330207326 4.455537454094267 2.7287428757476335 0.5566782872007575 0.23128872707979525 -0.3852926642344977
Ni 7.043163645704381 5.992264596673879 2.7064093207714985 0.4759662167616706 0.2753186116065 -1.465901097670714
Ni 5.219838329435456 4.494063174610339 11.334501448846302 -1.1798049358327358 0.5059391089746771 0.8624449308844695
Ni 5.616602748870165 7.955967105253938 12.488216014504072 -0.6270383249815588 -0.9495117398969904 -0.6326309885779879
Ni 1.7786942790886726 6.460498195670822 0.22565953809866518 1.0321372253087062 -0.16426315298886549 0.9785603205235147
Ni 2.9144905970654054 1.8033860915355369 0.35819901886941624 -0.7674488397225429 -1.044853387323794 0.039735885137041245
Ni 0.6487065792262663 0.027737256224550685 4.700665467251476 -0.17045359807029356 -0.16903280646336694 -0.6209707786312403
Ni 8.483892123748978 2.2815667574166616 1.4035194137072122 0.3844930511513378 0.4255790225583703 0.6430149029154733
Ni 6.582451219673357 0.697651919939966 4.770065873338432 1.1522699636372606 -0.1119895403961297 0.2753412373143193
Ni 0.8059315597087781 7.402791146345741 2.3608321648314576 -0.48248370616521413 -0.1526402240379565 0.6628496782532133
Ni 7.570484445268107 4.110636662629579 3.9579424223126276 -0.04968142638552734 -1.7690770978091144 -0.12428995503003756
Ni 7.616053374520848 3.8593898055186835 12.547955230425094 0.7213782706167254 -0.36730702629035455 0.24527372850497756
Ni 7.941961851517641 8.923916815027225 6.859526181549708 -0.9719600415981776 0.8236084176332461 0.07483992792902594
Ni 6.884713994611832 0.6921048294227762 0.3761659647926768 0.2350160553327114 0.0178802227145305 -0.04863010230287754
Ni 1.983767988015513 6.403836889022302 9.22566465114513 -0.6605184590168754 0.6860158319570314 -0.6500856937193256
Ni 0.18333806014691634 4.795640566880455 1.4013812001457984 -0.8699073006997856 0.17015329322105535 0.17965094829884545
Ni 6.159687349806103 1.9881869025878152 6.925270612192561 0.16169359248947637 0.4278019983516181 1.12835150514845
Ni 3.412790851540012 4.285138697270492 0.5940283732194798 0.829772637462429 -0.030946826090501544 -1.1828864029715371
Ni 5.894408184379897 5.6509530460250605 4.898294657852937 -0.5864285218799964 0.40227505772510713 -0.13171710073204412
Ni 5.279331348687451 2.9514922429636825 9.453031333179586 -0.2047821961488344 -0.4820224502580796 -1.559438344898927
P 0.10423227474830343 5.580484885886348 12.336242327808195 0.7093884452447008 -1.4338204150860854 -0.11134213662011792
P 4.074013780837499 5.972135989887392 12.621566230825945 -0.5938932056881578 0.5528843673759639 -0.7815608536438926
P 2.4887056325415777 8.243088334137523 1.3761446888414504 -0.3252625476247947 1.1025679684264431 -1.1485590904445768
P 6.238650647755242 7.778795685483634 5.883127326750319 -0.3552354398378011 -0.19042721297874302 -0.8744370702493393
P 4.781941931706319 1.0363617219069285 12.590165784602885 0.036097002832873315 -0.6500828655058482 0.3371775538948258
P 3.9781413710045515 6.238821993422331 8.271942042656056 -0.18328186018321338 0.43393253672938814 -0.20195809643647797
P 4.723855750563057 0.9260511850734586 3.703570761325604 0.3072278016102709 -0.8709509114729516 -0.046812846588480665
P 0.05611390233313449 5.701743509027521 3.51630257266724 0.8775038821001211 -0.20711701492959814 0.5495527318995697
Ni 1.5157237710716691 1.1229183383660235 2.7349464907155654 -0.22630927158733286 -0.3042702616438437 -1.34081461488131
Ni 1.9608166868185557 6.436590966015366 4.630578776676861 -0.8658665549715088 0.5810564589348058 0.6195638709813845
Ni 6.1028546974904945 5.491655684790069 8.937662344804986 -0.5474847936269474 1.0895569008787558 2.154963943984186
Ni 8.548309076381539 2.3388773739615196 10.329632158731082 0.5211939782512186 0.48554511869935735 -0.8156313129650405
Ni 2.4586389770639134 5.1236863556193635 6.84067815816989 -1.0141449024963436 -0.10258290237024913 0.5456587961618021
Ni 0.5617901368662841 8.945335023413383 8.967795734910885 0.16276908494184225 -0.5258975543744748 0.7483617411841047
Ni 1.325863753743755 1.0458398427548667 11.462743760650316 0.9482303020814058 0.5162425477832141 -0.8835184637253172
Ni 4.273171555153257 6.673543987213815 1.4895773240931471 -0.04620555202178494 0.6429462544610668 0.3055262455381319
Ni 5.710346865154004 7.99608904593184 7.937478907775006 -1.013942042456918 0.05594694767926493 0.8321534789897796
Ni 5.454933602874937 2.8890322382131415 4.675693189002165 -0.763064337501602 0.5427123119389685 0.6478377782254133
Ni 0.5661792914016708 7.392257896916254 6.861043943432399 1.0130321290481392 -1.3455061068197085 0.21975552962921507
Ni 4.887599080949364 4.603949856372588 7.194597142639276 0.18031583557635397 -1.006933215239253 -1.2975630032815266
Ni 8.204815123025584 6.951060840547397 9.302457270038039 0.4702923063053449 0.84922946063546 -0.5519032344096173
Ni 4.535835444608101 0.3223616216880455 10.537345492750397 -0.2064331014886961 -0.9345301788864938 -0.5481486524631914
Ni 8.075376998829148 7.331908149328813 4.796741688246329 -0.08798494995141622 -0.6123089891911841 -0.6058274952318986
Ni 7.276897172000153 6.11626475048848 6.9960967945935595 0.3391958698764352 -0.3819828831349744 -0.4768061961644627
Ni 2.41030146255873 5.236783514091284 2.4877415877093756 -1.158475321117024 0.251660862978244 0.3887428275666273
Ni 2.2673901580132756 5.226394555749872 11.370746468351486 0.3584014962706086 -0.6132620971330729 0.7267151094486065
Ni 0.9550266391975543 3.294228668107243 3.6392647324670016 -0.30081315633317873 0.7436193414031129 0.21763616929336713
Ni 3.7133491880005987 2.420293620407936 2.569799929497727 -0.1579986601363924 0.7910065724378248 -0.3218504366194522
Ni 1.2299462529457834 3.4186346406070562 8.208164479907529 -0.2260339064387591 -0.20737438235604283 -0.439544740709843
Ni 3.6263777346632873 2.545646503173243 7.062513982434562 -0.5176581971838181 0.6339463649553018 -0.14121835535426003
Ni 4.054895211667539 6.832029711078383 6.135849560236784 0.3412378400071285 0.8245949499162315 -0.5489359242511772
Ni 0.9601038818591996 7.364896699339999 11.350432988608404 -1.069144912881307 0.518543685112565 -0.5850894913535988
P 0.1921794965687226 5.501449442393172 7.979451381657473 1.340424321421427 0.2867484507099965 -0.5461786732210142
P 8.612960502032221 1.5808351245655912 8.118094375453804 -0.8265749564607379 1.4576265163667477 -0.3009242279897463
P 1.9950858202364095 3.1830523847453223 10.441415366482218 -1.9102419742176198 0.8158141183998079 0.7258159946731049
P 3.9239059582742954 6.162906844708782 3.7514961444104724 1.3230215525639473 0.4852813235150094 0.19140063263560583
P 6.953080915780449 3.9241404312924177 10.387497394145727 1.4289833987087583 0.4696711277815782 -0.6309345747121715
P 6.322646097401003 7.695593836822288 10.055607149728917 -0.5009061745364599 0.2439303271032057 1.0294008002141497
P 2.29595979345216 8.286745406473269 5.874218253880978 1.2433831748050135 0.09594559955938961 -0.4473693789605844
P 6.841201213364163 3.991416151107467 1.5911176682295483 0.8483308600805906 -0.19067712420601998 0.5137349508700121
Ni 5.347878633716164 2.835536317309271 0.4923410325371022 -0.34909256016485685 0.5168971506480775 -0.7302434343168391
Ni 1.3460825424602887 0.9953018891565372 6.799774340158479 0.28843432305285166 1.5717870962722673 0.5010668684840403
Ni 6.741883853803419 0.8468074213218737 9.312937312128799 0.11076440973977698 -0.15716176605739385 -1.0027510588371051
Ni 2.6486523036729075 1.65246663160191 9.165463703742267 0.036379824180614764 -0.9950868574236282 0.23305404651033412
Ni 6.231273765877399 2.0292557535312112 2.537818711645165 1.347582272622447 -0.38081945895449254 0.3671203642008452
Ni 4.209494094347082 6.720014735767025 10.547865214890377 0.5215835003801533 0.6969599896733609 -0.3814707193852463
Ni 8.073952124334406 7.140397802681038 0.11051254435677536 0.18079148966119188 0.9417233542008233 0.9512852868576456
Ni 7.785288784447017 3.8531762705384462 8.310218861045197 -0.5870532999481889 -1.3214248975007887 -1.09657909783286
Ni 2.887832818543517 8.49861883292565 12.36500314893878 1.3031399831486719 -0.28287559801815154 0.5670796850397395
Ni 0.16829932149228138 4.864810107226492 10.113035904602137 0.01939408825589563 -0.7961629198277836 1.021981367821627
Ni 8.373752932582597 2.461614980755464 5.950046827941684 0.6967237052928388 0.040270160373956455 -0.14472534006625398
Ni 3.8173469897307797 2.5774987608658373 11.436344804267662 -0.6672920302952831 0.5415586579504995 -0.23501734088429202
Ni 1.0581857489782986 3.258029641386384 12.744488710576483 0.2413682228029843 0.5662137374950185 -0.9671993869847408
Ni 2.9627379296405416 8.451688156529201 8.045446518065855 0.9158932805115968 -0.45801965958557894 -0.36974957429357613
Ni 5.72005044082706 7.76293268398837 3.5227172133514824 -1.252802154126068 0.4527170164257429 0.33181860357575754
Ni 3.1650610897009486 8.31392624018943 3.358785402731376 0.20036478380742911 0.015554145684515148 1.4578075220293023
Ni 3.469271794328438 4.454211779722577 9.411534118068467 0.24999298835751785 -0.5414419298669771 -0.6973281716460571
Ni 7.202596279834443 6.081192997893209 11.347080024449255 -0.4005678452260134 -0.22117169325045136 -0.8733381807582057
Ni 0.5250247676247299 0.0031879312271608637 0.3963405643634874 0.6707553062535352 0.08042513532628728 0.3417494895362243
Ni 4.577228950499666 0.20245031658177354 1.3778076436315168 -0.23279899307673457 -0.3424056350629845 0.8608094521635756
Ni 6.094143123047956 5.511847418927588 0.22392714322246265 -0.4356754875624239 0.7025439115190416 1.0135689753882158
Ni 7.878185190588415 8.850030759739731 11.194604926222318 0.4620197818839075 -0.41137342048194964 0.547650115560218
Ni 0.22120004165784185 4.878256232996498 5.642575144723696 -0.17492963156377617 0.07963632087640478 0.7132294162573458
Ni 7.896726595406074 8.798762332508021 2.5347038277813425 0.2636270342011847 0.7487746603518072 0.5813004566248117
P 8.410402868953692 1.6549736892572162 3.7739478377149696 -0.24944457205321557 -0.10919500837012806 -0.7182232699275115
P 1.8505422227571042 3.259102806353943 1.6139652602069514 -0.9644405932926811 -0.9014501085030733 0.5179181357134243
P 4.640257101409503 1.0899478247408463 8.477794021639202 0.8120803623889884 0.03245529231522798 -2.152789047820054
P 8.55320595518309 1.6438813118614373 12.427421670001499 -1.2563695597623523 -0.1798995739745418 0.7605096894005483
P 6.403259724670001 7.713738441147741 1.385832933586398 -0.5087781210853689 -0.28998418403847476 -0.18410924118051517
P 1.7511707540383332 3.172041171086585 5.734519229683797 0.0869145997053729 -0.17825252528942206 1.381059578444286
P 6.748881971575065 4.047518329789695 6.116711151042214 0.3694379565904283 -0.3853075766328332 0.19364057770971813
P 2.3802167706950565 8.542330014419424 10.13584381653032 0.018456149822658537 -0.40182562889251444 0.7738876533693512
