# total energy = -340868.99629050813 ev
CRYSTAL
PRIMVEC
9.21614866396229 0.00000000000000 0.00000000000000
0.00000000000000 9.21614866396229 0.00000000000000
0.00000000000000 0.00000000000000 13.48876515229098
PRIMCOORD
 96 1
Ni 0.6455073476014875 5.096769836119471 0.9637888852585835 -0.3118017941341985 -0.47986940847081866 -0.08695573735595347
Ni 0.8168687295706373 7.1697581571719216 5.137816719079963 1.361836982769248 -0.3092895692353061 -0.6847397934580852
Ni 5.966589947891713 8.200492224777426 8.91267472156971 0.3616076619127321 -0.021529646541659696 0.9712195638877273
Ni 5.5143996132434285 3.2371722214452197 4.641443246077713 0.6302480901681081 -1.5078926116111515 -1.244148335105812
Ni 0.5706943391322955 0.5916564692893834 5.648474300910733 -0.30395041641057974 -2.230421708002868 -1.5466329656041429
Ni 3.4951414389554634 4.335589684906364 5.457406028233779 0.43172627310668876 -1.5052112081242466 0.13027754007204018
Ni 8.108634870952104 6.444336662810651 2.349419327584756 1.617046739441015 0.4024316379076295 -0.7963860915821833
Ni 1.1012836856984956 3.8683493794748207 8.55603188667548 0.2723356177187761 0.9855339236278703 -1.454692116328772
Ni 1.7038999989899932 1.5078909490093615 7.537022603411962 1.8671546561098427 0.16009693742631784 1.342112250646811
Ni 9.006425993947365 5.2363299754770365 6.369502457199511 -1.8436648005180183 0.5773784958625863 1.762055929296275
Ni 7.5566705107682575 0.5818772139323001 9.594086341172071 -0.05099577432157669 0.5954602930649616 -1.0308632436922893
Ni 5.33444509425143 3.0669683877494185 10.147651546380441 1.7142943456412798 -1.2816532740298054 -0.4318589420298111
Ni 7.661071042937742 1.592744029843087 4.805898967846068 -0.18346955071398727 -0.022832424513483256 -0.6996861303552724
Ni 0.06207813423262836 0.7785157268673084 0.3282773725079984 0.4393796758868885 -0.08652919134149614 0.2018377688085298
Ni 3.880717450994193 8.547747490633183 0.9625990804648793 -1.3010337354389465 0.0729311409420873 -0.8469028693848124
Ni 0.3258618199407648 2.903639800963789 6.04202228155174 0.12185563455693209 -0.32189003160813595 0.789683225640711
Ni 6.664501238463619 0.35933671515139354 6.5623651140231285 -1.2298350038069337 1.5901141767162292 0.7328392200684734
Ni 5.9525998342058655 8.110948124269065 1.621201653716051 0.9432688443110724 -0.8762396706757167 0.6266842840762498
Ni 3.854423778829686 1.8670534789508322 2.5444265822046157 -0.16301102574931925 -1.1426303836649676 1.24831455066836
Ni 4.26248719363091 4.927487617290984 10.757465671785672 0.1271503072969681 2.5656560221283944 3.4016224471063614
Ni 5.807887867740007 3.1294907403480923 1.5068974481823953 0.4288463804557323 -1.4612947092469544 -0.27751896169192847
Ni 1.465579610450913 6.42066037686932 8.402434631273833 -0.6707979865660125 -0.6777008843334328 -0.9781486869073928
Ni 2.066168371034317 7.33837681329594 10.452120842021083 -1.1814442712083717 -0.3803206649412031 0.5713957959165901
Ni 8.698542115223322 1.085367396939959 7.543807532065137 -2.125019333905953 1.2673355718555528 0.14711106668961116
P 1.67893345223442 8.286230055883774 6.984402053442588 0.8870462743729175 0.22472135827492265 -0.4790584825337491
P 4.748933952897305 6.396910361738603 9.139339446881854 0.646665355183867 0.10558055154599237 -0.2462720878625049
P 4.008388758563391 2.634970634844014 7.414855179830372 -0.7714649028604714 0.5963930892918762 -0.7040881160777099
P 0.4357017230571447 7.6275795586595025 12.408153471566612 -1.483324178243168 -1.011964349905257 0.2323351660664386
P 8.262360230820306 8.525131061789263 4.399509205643889 0.7264844814950392 1.6344466800850177 -0.7704652579513634
P 5.765687122965636 0.5938830908088173 10.718239899802997 -0.6243612923700279 0.2847267922942774 0.36561652596180905
P 1.87572587485227 4.9405837645555355 10.404302854630425 0.3383780019608302 1.535436068447059 -1.0029559757590598
P 1.853902034794242 4.942961530913209 6.688013476958568 -0.32479640662165354 -0.48092458920821046 0.3540643023478354
Ni 3.681657855802747 6.286537765228915 4.164966516445935 -0.3617950953331898 -0.08711386020037255 0.5518366428377399
Ni 1.094168818922821 4.051704657327212 12.243077502992552 -0.019058045072715565 0.17871892340287931 0.19100442563845169
Ni 3.8603128978318306 1.6366958428653569 11.57475004966147 1.2675227481656945 -0.7555261201430279 0.1397695387228754
Ni 3.508302099260727 8.023477657212164 8.517683492046487 -1.3813429140126596 -0.8094136141901027 -0.003489758320813345
Ni 2.3009774069289257 8.67541879820238 12.637934176745148 0.20925848675263314 0.7328358776343636 -0.7309224626617347
Ni 6.8513770851091556 5.8867596680848555 7.41312899518389 -0.3194001753067467 1.42200465339808 0.24004384756460595
Ni 2.4809042774749046 3.259447652788232 1.2024447416093664 -0.9787937766905596 0.10867076043554189 -0.5806705363502968
Ni 2.513640037561946 1.7046833716272112 5.206258603971403 0.8631949216766166 0.8616345191680321 0.07509883801736743
Ni 5.251637998423144 7.801119638174986 6.831910735881721 1.2904387335319194 -1.2843027958375106 -1.686171876373451
Ni 8.034297415754445 8.868257493039447 2.2361537820065647 0.6615967796827187 0.9511230502481683 0.7683739226399734
Ni 8.965469429243871 5.376636622877128 10.215757041845313 1.5530409260130156 0.42465419675125576 -1.2046898719998738
Ni 6.126093832977983 6.354175080341189 12.552348412091908 -2.6863415476366255 -1.1902986362752082 0.5005606182715832
Ni 6.00892893489618 6.030642181170131 3.0221309028396584 -3.6027068826886337 1.8484869044970103 0.06628921014553744
Ni 0.8238499621905512 7.519059408033119 1.1121568979030823 0.5385347835225113 0.4750100234959884 -0.1836137896013354
Ni 0.8085631363863912 4.54081488356015 4.458562599881988 1.0455414145297541 0.021233712567795687 -1.5756116122246802
Ni 3.0172472656577543 5.974967427035609 1.8268369709857917 -1.0455154463878253 1.5192203779191447 -0.999659307285659
Ni 2.6157549648604883 2.9325785077974915 10.203171469217255 0.20718257806021093 0.5187069501633066 -1.2845917878328392
Ni 9.353930095817297 -0.058437755506732664 10.936839573411262 0.43355561300594364 -0.027510546715442945 2.7650299027774636
Ni 1.0372775331634434 8.720375171430023 3.1631158587820933 0.5399614886667088 0.46860129175616716 0.4387764950852508
Ni 6.765712983192192 6.007804564758055 10.13676635318258 -1.4750627095653241 -1.4059044054021077 -1.1002717161930986
Ni 2.1350222177714477 6.170027213702905 12.542055817253727 0.1614773627136122 -0.7112872049293105 0.633115127303258
Ni 1.3811504724561523 1.811968558331393 11.784729859415735 -0.3659355998641246 -1.2244583128760527 1.8185808609661969
Ni 6.1761743848679 3.856672519105935 6.818610911731492 -0.9695056665204143 -1.1183213746059577 -0.2562574812099909
Ni 4.116549479391521 1.1572257081445383 8.967479471269487 0.43683016999215735 0.2202460961123884 1.0303035145340773
P 8.249365461191159 7.037017967832489 8.561400293277591 0.351484200325485 -0.4204172758517727 1.5447398623464879
P 4.0244985864440626 7.155887853418825 12.786054274990338 0.9579282460954601 0.014525447309684664 -0.4058224087567333
P 3.250683095400063 3.757645001612899 12.269408039751752 0.008526549413772413 -1.787333215805825 0.8452622484575958
P 6.678131922351214 5.18075659897792 0.8980067808742146 0.12065827181472123 0.21534351660444853 -0.4780765782364541
P 4.770103446399539 0.9963209684599484 5.1781751557345705 2.7675655247151236 1.2133218366432585 -2.2288093692104263
P 2.6551079196948546 3.128965419873723 3.6793031298167564 -1.3460858905825783 1.6434684239676534 0.017508955418040813
P 7.546818447836657 3.811780658919004 10.984076943435511 -0.2041237366292291 -0.07817259184668474 -0.9582493768803045
P 6.386256493872437 2.181093744988543 8.318669977598407 0.6240951831928349 -1.1098261926507533 -0.8024140429438181
Ni 8.26461818724523 7.915906769899115 6.503230617676706 0.2943200924096673 0.07023893882190484 2.0942784531786707
Ni 3.4462497702443833 6.493744435847428 6.576865802345468 -1.4128142451480636 -0.47912533121594264 0.33527108090073227
Ni 7.809054742182571 3.788961474804275 8.57468629320481 0.2772212279458516 -0.019311041623786097 1.0776058991644666
Ni 6.032900137595052 3.4592076752788374 12.564353367353558 -0.1529245880475947 -0.008859764383475063 -0.5744484666999848
Ni 7.104397230781916 7.894525304977398 11.175104665058305 1.9740156170301553 1.1818926715997 -0.7976474747931102
Ni 0.2712819442686143 2.0132400292043955 9.63259694001771 -0.30785695055383755 -0.11277964039759286 0.39987210471056944
Ni 6.007638674081939 8.23086865080414 4.397013472583199 -1.3829004883077667 1.2613420732762792 -0.3315967173729386
Ni 4.203199709216512 1.5800533931201546 0.3391874493072777 0.6623616828732012 0.5480167548710175 -0.6752267117613274
Ni 5.9793819622500495 1.0446412359532933 2.8553020227879657 0.7170341347154168 0.24064857102814038 0.6738555424454137
Ni 4.040378010607907 8.473797113679797 10.75054618736187 1.269227132451311 -0.21152594263057117 1.1270099035188914
Ni 7.208604223829264 4.317959192494622 2.894918559474384 2.3993673540690676 -2.903706465546476 1.1906470207535624
Ni 4.217466307362554 4.33703662024805 2.798851268935165 0.3288494936451046 -0.9805428981711823 0.6983506993733005
Ni 0.520708713573712 8.704366721184755 8.86574701414088 0.5619395355996968 -0.9429307442453632 -1.9398232874191623
Ni 7.508737321519186 6.584035044398314 4.749393838716096 1.0906781589673926 -2.86795836141259 0.517961844467166
Ni 8.378778620859583 2.7999120476474446 12.801566896436992 0.8176635129037207 1.4617395100938568 0.9219289451827155
Ni 3.8529768434880003 4.440478672955526 8.74755820194149 -1.1571763997999425 -0.5460310918995563 -3.799012665935342
Ni 7.4843421759813475 0.9776121866534466 12.076976698686039 -0.06026614387990911 -0.5147988733581521 -0.4504199928614501
Ni 4.395761919593385 4.570601476071783 0.3596104347669862 -0.16943621254937272 1.4609746069033742 -0.2961044380035997
Ni 7.746707496408686 7.573241146082588 0.19273823881652963 1.5862541795401908 0.10697666056257059 -0.6463732778647449
Ni 3.3712579684909323 8.69336263966901 4.751525533904196 -0.8924047104713534 -1.856874871450389 -2.2632881197135863
Ni 3.7703172060384853 0.25880327896516425 6.800617303062027 -1.136186942032469 1.7030110594179768 1.790230591958278
Ni 0.602102973810403 2.006641266754418 3.49221439013687 0.12803656655666337 0.6786881879473666 -0.48754106608346354
Ni 8.192382013945052 5.350905135781683 12.400140951910172 0.12732437098098714 0.3795485626618689 1.4830992067165554
Ni 5.834301349837264 8.784197000991611 12.810374769723923 -3.2947157205497777 -0.24493408577737172 -0.152891163706498
P 2.1935447618459736 0.641829182666032 0.9666827559419537 -0.8159624710522142 1.1163555091288386 1.0441270506807308
P 2.2587950944519015 0.5692142256553869 10.182236987506187 -0.31979689652453314 -0.26314906612350164 -0.37057978350435533
P 0.2547583113125171 2.977359774200345 1.3315851032770647 -0.08833796241546077 -0.5950915968716332 -0.11465834547754446
P 7.793083156531995 3.7823811446516435 5.004305138096588 -0.057668301245745845 0.3795079392319206 0.3452896414789989
P 5.544453474066582 5.82274429940113 5.511832915837956 -1.0588790121789247 -0.002736167984240449 0.19816700482516192
P 4.2574183118606745 7.71022076381167 2.787224175769114 -0.119110210601311 -0.13287358293399051 1.9732946797037305
P 6.7473359827379245 0.8142965024759601 0.7539906336331792 0.6883979590359628 1.4597186230090862 0.5362732411818442
P 1.1273561702948471 6.081321782723802 2.961998297591933 -0.12533536557541639 1.0066012858211308 -0.25041953437197517
