# total energy = -340861.3564250952 ev
CRYSTAL
PRIMVEC
9.30456292476875 0.00000000000000 0.00000000000000

0.00000000000000 9.30456292476875 0.00000000000000

0.00000000000000 0.00000000000000 13.61816836003580

PRIMCOORD
 96 1
Ni 1.281294162385692 3.3672841574857477 2.3664155692439652 -0.16267652522803597 0.8465567988993034 -0.8695730572888185
Ni 6.072008987744212 4.785290265087574 11.708152231577163 -1.4469384405252823 -2.8186767415686425 0.9687117098642091
Ni 2.914980041995276 8.646665330819912 12.364098805829213 2.5584363644515036 0.33889402236530025 1.3392372430918613
Ni 4.570438599193219 0.06614893024740098 9.464927216493177 2.241166348113882 0.2990653204041365 0.40583346450032687
Ni 8.217222526797217 5.791764852580206 8.043407705875383 0.8433398346239025 0.4126232337286506 0.4222443017581825
Ni 9.114359193631387 1.7016277991609496 1.4274288386247882 0.1559132383622734 -2.3642849085436377 -0.011160130381877555
Ni 1.558895801637265 7.291641810652103 3.459001096598555 -1.2294390539200954 -0.43157843467491475 -1.3453649532561538
Ni 5.325578328986388 7.5980689863005715 2.947257571291864 0.2512836821444833 0.9025963062923744 -1.7764967873119533
Ni 6.13246073402266 0.7391340203968028 5.801748648756406 -1.0981073615519281 0.15699104480748444 1.3161039995085075
Ni 8.774928732766718 4.865160634497177 11.51979903085541 -0.6576231397469513 1.0106808552071431 -0.12237139785108601
Ni 8.467775801198638 8.425579607667352 1.7655547997467693 -1.0807372457045967 0.8976299634260346 1.8520088016073395
Ni 1.9827093450014315 2.985843594351233 9.850701845106604 -0.9992415030219499 3.330491592597806 0.7150245604845556
Ni 2.3277876756507725 4.642186085041011 7.2426049023503225 1.066921165757111 -2.645507030118766 -0.5911575519245497
Ni 7.404608510908625 1.9052116391751752 8.918525124199787 -0.5059866743831608 0.8682633373384595 1.1041242571699694
Ni 6.587835355326874 6.7951689342590935 11.668019790135235 -0.14386967693417801 1.8993847197881415 -0.30674032045089106
Ni 4.5887313701926695 6.7367269736041875 4.759250514874419 -1.33237625430597 -0.47943617758814205 0.8556515621117199
Ni 2.490598920283721 8.504175251936099 9.790074242586098 -2.009185994283701 -0.0003342434109671663 1.8554859615226624
Ni 0.598899367601629 0.48690220281720353 3.445709528250277 -0.2543273540668136 0.27562662976522206 0.39032097068702454
Ni 4.729518714034317 2.2739328645903365 7.77630068331266 1.2635797043575463 -0.5221458006415266 0.4573755982436768
Ni 6.707882828081148 0.20298276523977768 3.7632993882161623 0.7581902972387523 -2.110361474783462 0.4164531489977021
Ni 3.257211176344601 6.447745853715622 1.7031016419515461 -0.6253115720984391 0.40535883885675356 -0.17421949287062902
Ni 8.068898486867292 1.757566832349502 6.735328497774473 1.0712226213459421 1.8937218650754093 -1.0232854313450312
Ni 5.397856174929281 8.475424152043779 7.428043913917942 0.2306294962292415 0.9723374795422547 0.3151272589630057
Ni 0.1320950210198335 6.613962568432903 13.494039362548753 0.6293762290861161 -1.270319594184541 -1.7994816782429008
P 2.7747881901902334 1.8120450491357585 2.13491990092651 0.7044028191046514 0.7208884754645004 -0.726336128842633
P 7.962658985711788 6.404200498538904 10.140578994419 1.4329740079253903 -0.023942883968842636 -0.9553424876461547
P 3.0477468524689044 4.916084508189949 9.219677543042767 -0.5090223758856911 -1.4668035548803255 -1.7313875536781407
P 1.4055379930854157 5.299255720055846 1.1716910616796787 1.896092936410747 -0.5702704240628953 -0.3847761296093954
P 2.1426454796451484 1.068322018231871 10.958567325937947 1.3497512552493076 0.0301703529357932 1.8686744351884783
P 3.344413541454899 3.44438176709991 5.625338785193805 -0.7472134865122745 -0.5368818213001205 0.47585205978130946
P 7.704727192794313 0.09307447486500453 7.778738478837511 -0.5557403487675203 -3.530306931659668 0.7899675896503492
P 1.5770955270059956 6.3166166463426565 5.257975095530841 0.16334372649838966 -0.9893473838366896 0.1261987420169762
Ni 1.2596331395541966 6.4784881301053385 7.3224892286045336 -3.5574271849152286 0.45789059020688233 1.4396431924154496
Ni 1.3946702634173802 4.289636190244896 12.71133486465494 0.9478029847360001 1.4352656321730444 0.09630066890596319
Ni 2.1997010604023344 2.282102270967507 4.255705240090423 -0.4111587333679822 -0.35882469985095616 0.1424116043314128
Ni 8.953874089766424 7.836498415019244 6.52494116124204 -1.4568919521935682 0.8060115304870893 -0.11508283460947276
Ni 3.217750524356469 4.69944636618578 3.194590536414083 0.5966332303271403 -0.7378060771554455 1.2188101134513396
Ni 6.73487536555287 7.495681574256854 5.409476643749837 0.40618082053741655 1.7117049876475487 0.3792971087726951
Ni 4.576570306257633 1.0735790963675216 -0.019175774034977944 -1.8630221219987073 1.495526890956947 -1.0475587020700992
Ni 4.506041718172266 6.299980087570014 13.151677964316422 -0.23722309028635918 0.5566744305460155 0.14200716980414252
Ni 4.887724199946651 1.937033244881238 3.9359092682201795 -1.157974727331522 -0.6486402195220508 2.7459050090225547
Ni 3.2348616158457815 2.8919233347029887 11.904063528882261 1.234698502546822 -0.5148474672079005 0.04440372292635579
Ni 7.048746191658896 5.237250111744383 0.2482717955361781 0.29731799869572667 -0.48907858577391256 -1.5746713597985977
Ni 1.695319305398169 8.710410892425829 5.502775358584875 0.3543584365494865 0.11042965210817755 -1.0205310085283457
Ni 1.7569713403128973 2.0313442961785046 13.425580109290587 -0.6719261866331848 -1.14110340549748 1.2353957857241626
Ni 4.828630919876709 4.58830336029136 8.082464539826193 -0.6767259220146732 1.5578578877856848 -0.3923827383120597
Ni 5.283102998562944 8.90241055141548 11.824097322473015 1.6538978468310934 1.6928534021586845 1.241670562989281
Ni 5.173002103732582 2.4764187661620722 1.8962345967233598 -1.0967300215884273 1.9368174107133032 -1.9974995590847082
Ni 9.19122418916875 4.3772851743826475 4.245164100586213 0.36719903995758046 0.36305699276474895 -0.6389939546815382
Ni 8.917307156893669 3.7676595064716767 0.5482648658203944 1.8359304079882384 1.611470530904818 -2.7452007838666788
Ni 7.071440020991379 4.322425470510441 9.738433917536785 1.036916906085537 -0.5261618637794552 -1.9890827957759225
Ni 5.883991681749356 9.083430825980232 1.1236376456946024 1.9502779070935832 -1.0084874471002503 0.20093531159891845
Ni 7.015445160424394 2.5258353006371888 0.1584213517756036 -0.3525743480658702 -0.6687467604639385 0.32337767189725597
Ni 8.785154447582789 2.506044494983155 11.947682390107246 0.9736816522749746 0.2918492622716715 1.8253744868492627
Ni 4.990316312377951 3.2704608741590557 10.073604749427115 -0.7389144797282757 -1.2380401653255455 0.7670287214659887
Ni 7.669825776711436 8.57601578341461 10.088230592119912 -1.0019241920604358 0.9405702144329866 0.0010641795984562318
P 7.0375062794679835 6.890373223611268 1.4763866581404577 -1.2479065165966636 1.1624381624195141 0.24727353254382578
P 6.047249545409758 1.3188939017594346 10.541116242802378 -0.04016474514434373 -0.19153304444841207 0.42004318034180566
P 5.746674939933545 4.090406885748342 3.5917920989361702 0.263979532444597 -0.3561461245775286 -0.658588331873698
P -0.005699044881568242 0.5245010117346388 13.264763762980266 0.987092783474558 -0.21655322064183352 1.3243317867349387
P 9.107613385404223 3.2568296892586512 10.047484979971545 -0.8530542336981889 0.04149863346441886 -1.3420415453098757
P 3.7341165565973036 8.418964063323198 1.0143332214631988 0.05102379934603471 0.19076094216907793 -0.40953919548668827
P 2.061723694608415 8.84720657870961 7.573608220440728 -0.4550479785517647 0.15351928420880012 1.3239654045344553
P 6.49305907587601 3.6175303813057935 7.285338899627165 2.2828817255747973 -1.280616605235175 -0.34612422156515227
Ni 5.453190411518156 5.389584418358319 1.9303209330811344 -0.8821807187505001 -0.5920571809206836 0.08543338717415609
Ni 3.383892802569175 1.3138322194482945 6.256690607877775 -0.8925731177284176 -0.5618166368685872 -0.35804591270340275
Ni 3.6322222863963995 5.225665930719808 11.071979714765618 0.24081183607888207 0.5628201384324371 2.51513230234723
Ni 8.015899695609475 3.354695083649402 2.434574285114907 -2.490883457102194 0.7719372145111997 2.680970513132699
Ni 7.2599504688290475 5.994474063665668 3.734987463700838 -0.2990910314357494 -0.451427608190358 -1.0839660370545396
Ni 8.835901534577195 5.693043438386836 1.9636582521116175 -0.38027258531208696 0.16570091387665656 1.6991639177577447
Ni 1.2044570805375443 8.277171826669779 0.9926759204569323 2.8163730331361303 1.2334882842888049 -0.19361563800905365
Ni 3.5696304906114045 3.7999742540205528 0.7902430548947068 -0.7902658376170583 0.4617156203799274 -0.6871088079108941
Ni 7.019129767400886 2.9730498201273043 5.044755449999306 0.35788316187329333 0.288235062557852 -0.762390708473345
Ni 5.973259659861625 6.4396322747168835 9.094239936900912 1.4346544809516064 0.686712858024056 0.44955301687546445
Ni 7.640562925850159 8.080901373230105 13.129221401342274 0.1299620657141504 -2.129794129586777 1.898795165833259
Ni 2.739021449741665 1.2768465812373007 8.862472575341757 1.3150195081950773 -1.357487447551301 -1.9700915993854005
Ni 2.96166103492724 9.164278174512388 3.0923185009524574 1.1777981898153522 0.10639841946159741 -0.0401410909952599
Ni 7.408879305358651 5.292416866197964 5.9490017334767495 0.24093627747188825 -0.5819303768993268 0.5675332276373903
Ni 7.486023437788172 0.6693051354544463 12.308945077763934 -2.3799316139419595 2.0484205143042913 -2.5097936637431353
Ni 0.845513089998386 8.599323713909842 11.743818482744555 -2.8204646867070005 -0.9879044807425761 -0.7528598861647744
Ni 3.2155174292192013 7.078167220092396 6.808416771160934 2.629198779877046 1.0638016462915227 -2.1558491748026163
Ni 5.080784579126504 4.577751985767771 5.5498396995154025 0.3397885091551116 0.08928721370260752 0.6861312744889732
Ni 1.28453215033473 2.330234775738695 7.59857050225015 -0.740870317903066 0.06545642983159695 -0.9128519225821118
Ni 3.8028493640097847 7.0326306884182825 8.987964147949429 0.024134688264674565 -2.35182842794784 -0.9998287429839877
Ni 0.23096065594081855 1.0391429084382413 10.131494949491856 -0.7569358560063608 0.16585029497032727 -0.8704947977721396
Ni 0.38209746528739397 8.048298184225999 9.004141991762625 -1.522091785929669 0.3981219547886821 -1.0702355748423245
Ni 0.17211115542336092 3.9588031456587074 6.438752063050277 -0.598502165215079 0.6328958122036002 0.6697592608888531
Ni 1.3863426794679865 6.106249779848981 9.721574979706723 -0.37098267536972884 -0.5244253407043226 1.5260885657938879
P 5.446472516980209 6.463321692298064 6.902218862858165 0.34135919607634113 -1.0189430952159355 -0.1516729750286807
P 4.021618250957429 8.83751122398864 5.155021966052349 0.9299433308467596 0.05707823307023073 -0.3523648031582254
P 5.219478396276962 3.1625372470875286 12.91289682311363 -1.3666025224786915 0.6269275104353074 0.12330342274705215
P 4.492066264438201 7.3138611072679165 10.940455063462094 0.21820669708485646 -1.2131575431512527 0.1705214751937515
P 1.9735071321232747 6.659313008845579 12.098245107912282 -0.726614322204684 -1.1534529282017685 -0.44878554258182063
P 0.06034474380311973 2.0744244232016245 5.0731222714367545 0.1327221449577908 0.9251004009321617 -0.73854295532147
P 8.607828084557601 8.21145369769261 4.259340532882633 -0.16604055660426242 -0.43696695268033775 0.061012535127630406
P 6.883878638587048 1.4655338157733373 2.2606292003100648 2.1754780047771374 0.3705489302664199 -1.7734027217676618
