# total energy = -340856.8915402774 ev
CRYSTAL
PRIMVEC
9.38718058204985 0.00000000000000 0.00000000000000

0.00000000000000 9.38718058204985 0.00000000000000

0.00000000000000 0.00000000000000 13.73908765258631

PRIMCOORD
 96 1
Ni 4.645922065474359 9.366002855590677 3.5415794383653485 0.5782313307811848 -0.8818431329054233 3.4076043757214087
Ni 0.06780454227358623 6.3664983489711435 1.0107571327649594 0.9804667935176082 -0.22823091409007792 0.8641485438391375
Ni 3.8602713945649816 1.618302953753222 9.300798562269728 -1.1609919168912908 -1.1525818384507247 0.18553826031755788
Ni 0.8747922740831123 1.489989585761965 1.6808807140166004 0.3239587412117066 -0.12171448099337748 -0.8964696245693464
Ni 4.437507887689453 6.733189774374793 3.4243711047097163 1.2503354377531306 0.5872163078886146 -1.1085087593909104
Ni 4.166462442713261 3.868428854275597 9.181337305333832 -1.2139095908259288 -2.549466042632093 1.6033003363892
Ni 5.268198249843403 5.347519923669295 8.270971372655383 4.011302226204814 1.7218238212491057 -3.2638581117389727
Ni 7.038282522423945 1.522028032243358 11.306540487401746 0.5613314697020525 0.8306694382450855 1.401098242262716
Ni 8.97969222328808 8.10485395202133 3.9780974046866193 0.011538596767218837 -0.35222519225656757 1.5845058293905163
Ni 7.508129672522592 5.51301591296521 13.827704323156045 -0.7163301666698566 -2.6207359938216737 -1.5244667139197488
Ni 0.3242782672166496 5.759401235202866 3.5289255192745435 -2.6448675967625546 0.029737893384064913 -0.3455462375744952
Ni 7.8809415395042866 1.133286120234144 0.301483377210565 1.1458537756982718 0.04330997564154477 -0.6918049278349827
Ni 6.805996745048594 7.892731838004323 3.1331028571390727 -0.5618539178644258 -0.04408696301688536 -0.5193222151498025
Ni 2.6943460483080415 9.344675181870864 0.5010154049630389 -1.5563383658173648 1.4098826733235654 -1.4031386697315125
Ni 1.7053127282730087 4.120840746287954 5.2724844363841 -0.9352590866327183 0.019065244161567164 1.5452985630634353
Ni 2.9169724171192684 1.8440552536158124 12.066998782447627 0.03526370829830056 -3.023782639605483 -1.5851874288385732
Ni 2.588702720824421 4.7533207956805175 10.7192221625981 -1.806654027621624 -0.865233035152568 -1.1691585118624832
Ni 8.642898967249575 8.15945918002668 9.778493395127954 0.3889557149083817 -2.3814112838112793 -0.6020281760904663
Ni 7.147098716860601 5.491688239245396 2.490264992965505 0.04480121547509058 -0.7299590703072009 0.959741645155115
Ni 5.982130862997772 7.5468611785824296 8.453055448320262 -0.4477828123489192 1.7463829986457085 -0.49699706929004084
Ni 5.72799172980388 0.5247152191533622 13.156303146660889 -0.7319624738904749 0.21888572542975207 0.4064538716931451
Ni 5.500775029809119 7.751342127807213 5.34139948209125 1.4479568544874677 -1.0453681221766835 -0.09054654003100535
Ni 1.701632953581914 9.287882740847591 9.617924736789579 -0.33029882449712145 1.4112355878070342 -0.3492666238488759
Ni 0.1348590488384519 5.90312835330325 7.4892867854373 -0.37019617491269147 1.1435320695436306 -0.043436473917080026
P 1.6283190751700538 2.1788208787020817 9.986502985440447 0.625239324099607 -0.41791610669647383 0.5760862594137239
P 0.46981804983961045 3.8885174201912673 7.276069187475268 0.34017314618803995 -1.41964103826191 -0.031000819256888544
P 3.9116662068959593 8.807981920610775 8.760687428649874 2.9600203096468567 0.5222093068896103 2.7784058098637376
P 6.903238546132904 8.810995205498125 11.230371028732153 -0.3823127556705674 -0.7116607862186454 1.1033182163289061
P 6.124215224539631 4.449251250287818 10.31409774346925 -3.8266204003502806 -0.7767186950602429 -2.815651324478757
P 6.104305015050315 0.435850537799493 2.2028295311254076 2.2379540118241716 1.4821980350585247 -1.4623871709801848
P 6.672304522725711 6.473728109931282 6.759823082419624 -1.1102465680176234 -1.6989134923098355 1.6474621185080787
P 8.80839495654549 3.514503994126766 0.25358810570826107 -0.6131600243375698 -0.3833669079666946 -0.05426236088799042
Ni 0.3265959620412192 8.563643003686023 0.2472742882153267 -0.28334173902129267 0.4476133766505904 0.5944706754581827
Ni 2.76230923392928 3.6965965182539446 12.960919313898197 0.3439665517922012 1.8633764200143328 -0.07659701982944872
Ni 0.2707159549464532 5.092695526310989 12.5003983274618 1.5256777035087143 0.7275941696194501 1.4129199174879925
Ni 4.494469297958744 6.2954843297412175 10.086069991093593 -1.5771457894810195 0.9225493523755337 1.241968553845674
Ni 4.558358447314842 8.494393774358969 1.3861091707451494 1.1168373338612638 0.9350626543511962 -0.10779247159564662
Ni 6.72083624505469 6.759032681835465 10.477167146648716 0.08088690545405423 0.34459878605956135 0.8313782913866521
Ni 6.798214772551356 1.3106756670137758 4.49669312097997 -0.11507640685156954 0.854923939917076 -0.5382743307722729
Ni 8.892870192374982 2.6376662534487827 5.788634792200333 -0.7163666763347469 2.2437284524141035 0.516268258814827
Ni 5.962126781705112 7.151003783879721 12.779027675430175 0.28529397765165704 2.0694403110890685 -0.23215210352135504
Ni 9.104335203768576 0.1182371686202853 11.937233217658633 -0.7520564164268726 0.6111939017501344 0.6701004462783556
Ni 5.0607885003542785 5.215911655380654 12.114138385933009 0.9291380613366449 -1.8766633669312258 1.0888812149679699
Ni 7.633636273593855 8.291414773987695 6.403225692029582 1.4668796595338995 2.038005746728871 0.3148531793660126
Ni 5.506914245747834 0.4109641840148986 6.132840165830901 -1.145646544783472 -1.519358960379538 1.1075816195909507
Ni 7.921494158549002 5.211265001115113 9.168875823439883 -0.6366123418232391 1.874071952054966 -3.258906167050336
Ni 3.47051566707965 2.7583760053691555 4.597579025470103 0.29380432911551335 0.13918435564336673 -0.592209647338148
Ni 0.8372548173618131 1.8168136562853106 3.9753769998257025 0.43131901036594106 0.3506218523251897 -0.26322465655644345
Ni 4.621402750440842 3.8284300788706114 6.706748903526817 -1.3045816006912048 -2.026692635708897 0.13291034970919693
Ni 2.8150088643267424 3.149079838068264 1.5255191246097308 -1.6224095464148254 0.21205970364685411 -0.03720540540570367
Ni 7.534057064606274 4.337187091455451 6.654980481418529 -0.06989903898398285 1.4452697945736077 1.6699811255462014
Ni 1.231804577843936 7.425137611185939 11.829780041806536 0.8358841496768056 -1.5759751662116859 -0.7134741852783002
Ni 2.9063742905217027 8.61147068748992 7.0420242525052466 -0.44393284247520964 0.6798199875589647 -0.4410827746209242
Ni 1.3934330488420679 8.210769507734648 2.5695669537126955 0.7887326888019836 0.022244670330813305 -0.7229034490120002
Ni 4.185884518825187 5.733351809774836 5.795023707135943 -0.6321815597453951 0.7232276651206383 -0.3860560247630835
Ni 6.939031864748068 2.4947558200374944 1.9338586530031239 -1.4885206348424427 0.35848608556461486 -0.4115004329781171
P 7.5678509138102035 4.053891376142835 4.567449931468732 0.11050909919586129 -0.9132931238845885 -2.296461521141761
P 4.674853355265058 2.609730004773533 13.439877661229437 -2.4204151758783023 -0.8647393833456011 0.7134772706020938
P 3.128634559299886 5.9585502659976965 12.267672291328767 -0.7443001695202214 1.5338640959742487 0.7510508579804936
P 3.872427793098062 1.706730192503507 6.45213665644407 0.41844729660959545 0.3642384146673598 0.5342448978979057
P 0.6871275197094187 7.984951497609717 7.905745286101938 -0.0061763040140409755 0.5191656349672802 -0.09117980273963007
P 3.0850686553678193 5.38278756018573 8.043576316234269 0.30154000719687424 0.07910178852917343 -0.5040570614606157
P 1.7999261188636797 0.033125481964119435 11.77241967637303 0.994022677825172 0.5757957247564988 1.529196001074618
P 2.8721016951207163 7.294665191717764 0.9991095194060048 -0.6074046099110313 0.21201290956931873 1.4661664355169588
Ni 7.390254849063216 2.8058469763203435 8.740299411681537 -1.2981985799829965 0.8967683867566878 0.5038598578481451
Ni 7.4558900139615165 6.1274350273943385 4.91495208283275 0.8243998031862898 1.048582258238607 -1.6694805317606989
Ni 6.241620688982286 2.354257891972153 6.65212302372473 1.5104503450359987 0.5472608505415995 0.31930864403420495
Ni 4.903759747720015 4.250458932345697 1.2601257009128966 0.5020382312583741 -0.0036450529517550127 0.21404768061116042
Ni 0.26218770161262794 2.8086912919616744 11.912131897444379 -0.08769570084577155 -1.3108157545263748 0.01938148985040533
Ni 1.5308332073970488 6.837265442742564 5.68814690415638 -0.26622050595997376 -0.6631199011954645 0.09623279178250524
Ni 0.929165638734203 9.020883170595537 5.980583855678659 -2.81133367094001 -0.8559945472734355 1.1517991946484292
Ni 7.773561583658796 4.668808011129689 11.245718129860904 2.492455429575004 -0.7419733211592576 4.7938899784513245
Ni 4.400475461270146 8.50058931337969 11.516926911774915 -0.4772029173822491 0.1522447883717507 -0.7457988655529348
Ni 8.267655820561265 7.24336425119013 12.270900542645775 0.154818719746514 -0.08962814198179403 0.238552350620744
Ni 8.781641492592378 3.492425345980198 2.614768104459019 0.40040303751337497 0.665380672205183 0.3299026174999673
Ni 2.4272807677936465 5.749366339425365 3.828135321408111 2.0047482702273216 -0.31245922521253927 -1.1213149100166429
Ni 0.03827716653165195 3.5949802911337927 9.495784378586238 1.8307259809691632 -1.4109167710150348 -0.3710222703584126
Ni 2.4923996377735533 0.3506477954940833 4.692461828136373 2.136173807860876 -0.35201770423145184 -0.7630609950674923
Ni 6.169968341489619 0.3936786301470881 9.37519572129218 -1.5449224106709394 -0.23839011401126686 -0.05807942064123546
Ni 6.551360091296978 3.198756796398042 13.117009348499018 2.620483254380919 0.6463223700221514 0.12680397970114293
Ni 5.058826579664384 2.687878281057623 11.236182632077195 -0.49082179371726437 0.6383462937952104 -0.6246423139455565
Ni 2.5027349233217557 7.2369058711200465 9.124883741520634 -0.6771370414101628 -1.8937892279782356 -0.203335693510295
Ni 5.441288468029867 6.528568017444994 1.0912109005391835 0.005952618039009103 -1.3727518299095391 0.7016900481591786
Ni 1.7678313493002802 1.815912486973206 6.4640480495704224 -0.38473782017229224 1.2031081293350505 0.22456580653366484
Ni 8.635501869146047 0.9414872516411694 9.849304651262656 1.8310468546436918 2.3483201576842654 -1.412399011987516
Ni 4.566215517254756 2.187860733364133 2.494633786693147 1.5747461789005912 -0.593069938455914 0.17998184927570293
Ni 8.214355410622398 0.5910544225767447 2.8089973140405764 1.1448397326114605 -0.030141556580386794 -0.7327626011942671
Ni 2.254162388066178 5.43365669041798 0.46084859903006725 -0.1134787233471465 0.1982449092509489 0.8103394684384818
P 3.445104569914361 7.74304386039158 5.191053463137063 -0.9817307478316963 -0.045056783129322396 -1.5675388625188744
P 7.523214871320013 7.341939031881929 1.0749513654819258 0.16749374411102122 1.0728344459177523 0.3647518639686686
P 8.775783892063696 0.7757218502696562 5.189047422699597 -1.223097427972784 -3.6784682939906648 -1.527718645198143
P 0.42847503021073524 5.520431785429405 10.354161290418542 -0.20171024209173002 1.2753363306728422 0.4717079557059489
P 7.638189056056052 0.8914620289209846 7.924279334954226 -0.1539471157748381 -1.0778470686409953 -1.4921754579862108
P 4.598122543211467 4.61546066528915 3.6849470274589233 -0.2109081065409142 -0.9629786640351738 -0.29688965290905645
P 2.9780735739160415 0.7031983724419546 2.63302710892751 -2.9340462541805987 1.0550740366105378 -1.573610008413619
P 1.4365953040197548 3.7836156799540657 3.094028718997028 0.7649427854712375 0.7534178155507734 0.10071679569578783
