# total energy = -340896.3665768824 ev
CRYSTAL
PRIMVEC
9.04543391243153 0.00000000000000 0.00000000000000

0.00000000000000 9.04543391243153 0.00000000000000

0.00000000000000 0.00000000000000 13.23890685732253

PRIMCOORD
 96 1
Ni 6.286621849545771 2.067279665588864 11.470189205865294 0.5912064028846141 -0.9137952603319875 -0.4608625283510127
Ni 4.4369843711669565 0.36401087730353837 6.255899937545429 -0.052490870809864434 0.06504093956073315 -0.7530943707730837
Ni 2.8335907422715048 1.7516030648057077 4.688903325935036 -0.3566904271167728 -0.35608416099134155 1.3624823296627309
Ni 3.284080491227164 4.332654335537485 4.987268775149988 1.0389419069353656 0.02516904306645988 -0.6685104760834164
Ni 5.031423156624039 4.676091373232974 2.738534085567587 0.8855869162185716 -0.2047598275513312 -0.5634829688274168
Ni 7.352436291039182 6.171600110941266 2.540824416695763 0.09858226585128828 0.27944600351131227 -0.35890234716642705
Ni 4.930575613080343 4.581231906990016 11.346245955717409 0.0674364363761032 0.23847521752590545 -0.10430117061293649
Ni 5.745343079642217 7.90617062354563 12.33921751729716 -0.6364105102250781 -0.22699884145518967 0.584407891905542
Ni 1.7971015977705282 6.4557533742726525 0.5280353500002143 -0.05035171297967458 0.6727581956161768 -0.8122968492751688
Ni 2.6514971106383425 1.6060168047522703 0.4875769328540811 0.9079462577503783 -0.6723329351533002 0.05209877757776834
Ni 0.4926098123255774 0.3440756453351152 4.786196013921043 0.2626626134053863 -0.2922950915598385 0.32255800420943803
Ni 8.530974930903886 2.429793523567218 1.4855379558221835 0.47670258070706284 -0.43404180861374286 -1.1609716051763166
Ni 6.870007114668257 0.7964323718661104 4.836927330448517 -0.3599022491858512 -0.4579708086255145 -0.2771091278480195
Ni 0.6456630781369589 7.7863548049269395 2.5877557464044463 0.7041171695434325 -0.6026673523363621 -0.13564728902438575
Ni 7.370518113583254 4.050292068135925 3.7362183182556246 1.2851785135742446 -0.9307473148052937 -0.23519166167862718
Ni 7.723697083684929 3.8994504109348616 12.5921595106494 -0.31812876479349084 -0.8230761992788598 -0.27713895264469046
Ni 8.054461468361787 8.770733204217114 6.936154564343236 -0.7242555921645204 0.8770176864923218 -0.20389567977882303
Ni 6.832712790331487 0.7283175402985179 0.43070286210465625 0.5589205462677148 0.3218013285490716 -1.1948952545069549
Ni 1.842346858583656 6.43116788469047 9.333945342457266 0.01494479423529039 0.12770617980043814 -0.9995482356290915
Ni 0.04000252727308611 4.810009023440563 1.285663714596785 0.12175279043048062 0.25319066935920914 0.4984127186906449
Ni 6.363951264717988 1.9352706019529609 7.0058442059683195 0.8417940874033373 0.12258505652378889 0.22413591808509786
Ni 3.45131247481635 4.3518758827641735 0.4755347465844855 -0.35767850206165497 -0.15987865076792465 0.23860685800776327
Ni 6.023065039407404 5.704177309558142 4.812951503117195 -0.18420771443159242 0.5806306842512968 -0.14934227001297506
Ni 5.449738296880719 3.1073779382514637 9.08285675852938 -1.1301813592683374 -0.9326895261333291 -0.870483742028546
P 0.29202459998864116 5.498927366913063 12.363431239542397 -0.3996527896109117 0.36680514695327154 1.2121859232666026
P 3.88333144756641 6.141623542701621 12.558109783484497 0.3289950180840334 0.6974032478583667 0.10949145656462432
P 2.5113923835822574 8.529952796863125 1.3871064476969583 -0.3684054015608558 -0.0762982576421073 0.7838020842695856
P 6.465477215810861 7.779769728982925 5.623172734556182 -0.48409784472986955 -0.17477228005030548 0.6084109396883587
P 4.751141339039956 1.053232242814671 12.718922222571665 -0.5450658997728096 -1.121820388898152 -0.6352514569199705
P 4.149448115523672 6.091882701195944 8.190938071844872 0.26083430194739593 -0.2613454372558596 -0.01273364551658452
P 4.719328547700537 1.1138276051071827 3.8495431334437873 0.5063098620505345 -0.8945559524864013 -0.03581289593355123
P 0.366056049928458 5.693413243111197 3.4652967157633907 -1.2755332771749968 -0.42856638732146835 -0.5121760910233244
Ni 1.4892312065199045 1.1936535600603722 2.7084815356824334 0.06055076499986346 0.39350451062132874 -0.825765573185565
Ni 1.8336180147842422 6.360342136556365 4.8669138486655505 1.2746269633106435 0.6010922945397583 -0.4602729743961299
Ni 6.054877830746823 5.492749335498556 9.220726358846775 -0.08561079329228481 1.7456666893049742 -0.63345502714118
Ni 8.559241912119605 2.2957492372837836 10.133880106363929 -0.13588922983186275 0.43375795882473683 0.8316911946413805
Ni 2.472279927013692 5.125549942713884 7.1573633661751614 -1.2738813433938707 0.39746169549686383 -0.29425247239652547
Ni 0.5727315529702082 0.10442772631655313 9.266043078588416 -0.4013510032489411 -0.22206026650299177 -0.14616695760878698
Ni 1.4174375969489736 1.04475667116695 11.407370475898277 0.12624502187387937 -0.026298014464580514 0.09962484818318972
Ni 3.9902575227507335 6.7056063519176385 1.4941428771759475 0.8149170605068352 1.0606435602785154 0.2183409086698756
Ni 5.662568313208604 7.8681978916596815 7.836121878191182 0.03909902288399073 0.012395545450875426 0.4640375836448847
Ni 5.295549829103714 2.90208276843644 5.003883428301037 -0.2002431706279003 0.14992925286469663 -0.5268352356973959
Ni 0.7037528552145093 7.241367407087884 6.826987030616431 0.6389561594650673 -0.33532841650122897 0.7740753439001249
Ni 5.150850021581201 4.411747610337563 6.979352843444647 -0.03843902070248864 0.7837817725546115 0.27557340792978346
Ni 8.102510813711515 7.407676756410188 9.07006741941229 -0.0654011511136293 -1.368025113857831 -0.14509429336989849
Ni 4.616491008679256 0.11923510175659519 10.599254116948536 -0.09479014579870772 1.3134223389112862 -1.2569010067857902
Ni 8.445350852763728 7.26069749952244 4.722066600569017 -0.8353886980976257 -0.11807199914478374 0.05935725891239455
Ni 7.2492912072622735 6.072643063101277 7.017547188463326 0.269114282568001 0.3319823828471315 -0.18892723139444884
Ni 2.388980525408715 5.099110139163949 2.6122878679260944 -0.6595792350320576 0.06508696230732017 0.17165687434977533
Ni 2.279847364331068 5.166272486532497 11.44916580818799 0.7393615945680233 -0.2943550594126608 0.33213870591933764
Ni 1.0798439096103971 3.4318376554379686 3.9791913388085542 -0.263275821509353 0.1970442040746284 -0.8430714114538642
Ni 3.8242647636180447 2.7013555427858758 2.6096665011560733 -0.855460014926204 -0.07111671344116784 -0.4951204210926182
Ni 1.0850359887201004 3.2800371822340675 8.358013569426047 0.7969378503205953 0.02253134833329668 -0.3974974338308057
Ni 3.6150257845838034 2.6307197487655407 7.230534595342621 -0.689652143158038 0.041768599296353875 -0.6302645452283404
Ni 4.150226022846728 6.694652331356924 6.02077654460818 0.0309473403111338 0.7706336652084277 -0.6658540122971759
Ni 0.7892204473466568 7.33818973250646 11.263278521539828 0.17833788591437671 0.33914290515131273 0.6121506092364489
P 0.19595666376474954 5.574167286833815 8.15823792343113 -0.046452635035584514 -0.1348358488666839 -0.2572524981334086
P 8.533390061778956 1.6315249286013347 7.991229362061473 -0.19767026769440152 -0.07509292448009647 -0.4383728318889289
P 1.9178762323920562 3.0578722780295027 10.489953615342094 -0.9017843519140405 1.0517449722373047 -0.10777010299814344
P 3.9150537845659383 6.216094600733304 3.756963116566066 0.31662338389255795 0.15484263100591397 0.7679496906183613
P 6.731367747918395 3.862101813994157 10.410096905913342 3.3978670938289866 1.1159832133910845 1.4646962787293356
P 6.268431481793831 7.690039023811748 10.218291191806157 0.21534788747982267 -0.6962915028514267 -0.5301342181636418
P 2.3247488986526132 8.379771456343262 5.716441108960469 0.14814799259455777 0.6847781028951884 0.5010694395872016
P 6.848786526529993 3.9015218153183495 1.4700349865083848 0.08152685303089831 1.2499189190410023 0.42895025302344836
Ni 5.311460747490417 2.8976324149138373 0.32501148865983565 0.2573692262169309 0.6629628067923098 0.8783461754957583
Ni 1.5178961868311405 0.8845520852438413 7.1742964186026255 -0.05254409264530306 0.5160705409817241 -1.326548077659967
Ni 6.918997185152845 0.6100729135637216 9.168724158843842 -1.0344327062111023 0.3656941732772799 0.0666890166871174
Ni 2.713584969539044 1.509330160843529 9.252181855543625 1.174082945747294 -0.6466177897753832 -0.09845473913448852
Ni 6.277847778576411 1.9952961019041637 2.6207082624264824 0.496865428808183 0.6401203549764976 -0.014070362050137057
Ni 4.0720101551435866 6.784310673056188 10.3629665766569 0.149374151692175 0.162330711852843 0.04661178632126811
Ni 8.316344873212183 7.320514954491896 0.1681672814636517 -0.9899197114003919 -1.0587041771639574 0.18253598315612435
Ni 7.846181305330384 3.8351464207068475 8.073866637898453 -0.9407213952988702 -0.1553257412899196 0.3686023480630103
Ni 3.0599346369790017 8.444410127628869 12.387526466602374 0.37722402829375035 -0.7198564346555603 0.35933609226973595
Ni 0.23885915717471864 4.790796521647864 10.313241112389006 -0.9570360732984936 -0.9899104554290113 -0.9177578445241613
Ni 8.591796429046124 2.4765584172905033 5.799409447681447 0.46234065555843595 -0.4120740460934 0.30670021124157504
Ni 3.6286482081712825 2.7495767513813947 11.786268328460963 -0.5372816278417005 -0.7963524101307705 -0.7853879406994667
Ni 1.0148343755312388 3.1968825075729153 12.590373037436567 0.4016320248244696 0.496393631378087 0.18976438258376352
Ni 3.086546303774728 7.971062566982931 7.859554979483163 -0.37025453895445265 0.8797955063477751 0.5919306826451484
Ni 5.5434761293090355 7.8143504231229866 3.414989630090002 0.6511156776457367 -0.1378116436655562 0.7025917340378416
Ni 3.217940277899377 8.456033510304772 3.6031536524732015 -0.8233579921853369 -0.1851713638964424 0.28514125412387664
Ni 3.363354674707023 4.31246492687397 9.258007115032562 0.17036669478344207 -0.24945794178965425 0.5213760123550375
Ni 7.333205698378505 5.98189022388934 11.38065388206828 -0.1771443798269078 0.6197921849421067 -0.527077176504873
Ni 0.6852558472503418 0.0024350308298468665 0.36207063171289144 -0.29635280656897994 0.8120469380478919 -0.06579170168382863
Ni 4.738097823227775 0.20616353147797095 1.5850947159356439 -0.8814731511605141 0.15052934834254075 -0.19858455197855476
Ni 5.955206193621701 5.550413977178622 0.13425594943877836 -0.10284284089985515 0.42916648279931247 1.219694572938822
Ni 7.964432263868972 8.738151550988627 11.207608398054344 0.027609277076836324 0.963639437547624 0.9003337355104429
Ni 0.0056606325903349524 4.898265322871529 5.7222528002984205 0.44061406251462176 0.21225382193553122 0.29518089774806583
Ni 7.614934785400831 8.983517993375054 2.524712689674503 0.767533171906233 -0.30099724731952676 0.6457981220875652
P 8.530079432938972 1.8981843225979382 3.525587246930472 -0.883584283966246 -1.0992736139458874 1.418679445679589
P 1.7826108125201021 3.2537330601939685 1.603893841395045 -0.07868526981704514 -0.3870849802482301 0.007117841991703871
P 4.8337261513598 1.2058106233416286 8.393149653213037 -0.3076936855030959 -1.8626603677839146 -0.19483742623129668
P 8.529844251655256 1.5787900484452901 12.391947874736212 -0.8709627385474935 -0.28932289630539204 0.28030012398149146
P 6.368302118466711 7.663137903128373 1.202895279966964 0.019668167852888708 -0.569288005544968 0.644288113200942
P 1.76165254196752 3.25838241326433 6.109067216688303 -0.270907627022998 -0.6933283064580446 0.25635749712296496
P 7.01470692219077 4.03700432560604 5.973857878507082 -0.4948178022505349 -0.0260244490882197 -0.186560273824169
P 2.432507153763927 8.500111910133315 10.117424652851087 0.581619016306495 -0.5705043944505723 0.41444666009063463
