# total energy = -381169.10879991984 ev
CRYSTAL
PRIMVEC
9.29026321142444 0.00000000000000 0.00000000000000
0.00000000000000 9.29026321142444 0.00000000000000
0.00000000000000 0.00000000000000 13.59723928411865
PRIMCOORD
 96 1
Ni 0.5238751500462229 3.1874521141318164 11.143005425098927 0.9620376402781432 -0.7822990173614979 1.1437274733838882
Ni 1.3640707528322868 3.4963440724839066 -0.1736405918005227 0.857801004354555 0.6940849821184111 0.10235844506426889
Ni 5.0978460797781135 3.2964176102222753 11.176889801762815 0.910779099213483 -0.4768393633952433 -0.5216786311971209
Ni 0.9500037257411665 4.7883409640603505 6.551693290234251 0.4778107261695771 1.064116349318464 1.7953815400315984
Ni 2.833660314138905 4.414565808104393 3.830409856802091 -1.2268036731797776 0.5440235745512244 -0.527867276506336
Ni 2.9748444427165084 7.174507884415879 10.650635415332522 0.6961583197076721 0.09467907414214018 0.1206292183489987
Ni 8.804428806582687 7.533678746753098 12.129227241598782 1.024808552857777 -2.043146410389546 -0.6217328536082454
Ni 3.1245570328348258 3.368119860953468 1.6000276425376585 0.6259085822524897 -1.225349457231754 0.8597195615335065
Ni 8.675247697951272 2.6504656157496345 0.6739101122946741 -1.3261428718017483 -0.12250586654642126 -0.9740742597277032
Ni 3.431646680142364 2.0585550818242013 9.956877584916297 -0.26770840335940993 0.944713804287715 -1.783325894418645
Ni 7.654703004368446 2.5788376871233716 7.410903274540338 0.6848943167580785 0.7145627903567886 -0.9767340659480533
Ni 6.497024736926697 7.219249791583724 6.118635107280899 0.8696370777575346 0.36445978664954654 1.190332574836937
Ni 6.861370275819664 8.801353729491208 10.675776725377709 2.1677901492145764 0.14791042266245494 1.0009757121042375
Ni 2.272463390075784 1.333728753494625 7.344535492890493 -0.49574391360923004 -0.22336612979860887 0.43568860018854644
Ni 1.4917932901544482 3.2287194628941847 8.905484572655972 -1.5186166828968748 -0.09581627307037692 -0.029214416780427105
Ni 7.171033326010403 5.730940350097868 1.7175355355635062 0.1740793677483389 1.9424049321034096 -1.7404262668416415
Ni 4.738703088230244 0.19534636254532173 10.375088069357265 -0.0744311225263815 -0.5100153359265797 -2.0512574695324544
Ni 4.620688875864561 9.069201305395719 7.410019770517983 0.5242417639386068 -1.6602525854045276 -0.26600067663968385
Ni 0.5556766497194473 5.423302577266472 10.6821136138493 -1.1103375850695332 1.294212598752055 0.44372201201598416
Ni 4.845736209592523 4.98616782685771 5.014498484230706 1.928801482387362 -0.2791068750043387 1.3931208804841944
Ni 6.651633295707277 7.853941987159474 13.024931237478109 -0.5496018399699502 0.6040495773958694 1.392732386796524
Ni 1.6235942529846417 7.534347645697467 6.576481570281021 0.9996402811222657 -0.29564858141310374 -0.6371229629110704
Ni 9.324265479252276 5.500616146919878 0.4635478974745626 -0.41425588423606724 -0.289326752960134 -0.688508516471898
Ni 0.9996137307819245 2.507088985076597 2.2051461435354596 0.7543603819697008 0.7146885173013755 1.4030764490350094
P 5.039178068199015 2.19304093069499 1.4094759847866316 -1.525854852516527 0.4925716865288356 0.16202963567265644
Ni 5.66143060146211 4.38086073351865 2.9731582599609094 -0.21310922795729104 -1.4045057252823683 -0.4896051477013439
P 3.378952307747012 8.071324853816533 1.960830804104401 0.23485073339944068 -0.9263766965414238 0.34193280919162405
Ni 2.7128776033645807 4.808110643971724 10.560513359920746 0.10216972609223048 -2.101604297416123 -0.5984772255144144
P 6.298575426500549 7.775123394881236 8.52295334371295 -0.5159427571546082 0.8122300005929755 -0.28918688494816003
P 0.730904018460225 4.701068232346329 2.3999945479777507 1.6244772275771313 -0.9526639123727271 -0.23897375442887875
P 4.700380752875726 0.9409642997290584 5.235385638135213 0.05178381744051082 -0.9658811823939493 1.0990902942904877
Ni 8.631908620513983 1.7558132776550663 4.811206159642057 -0.5645219516148923 -0.4573655709413478 -0.5580062619835615
Ni 4.28563553657712 5.26860111585473 12.229193259808534 -0.4450702985137625 1.5106400924493015 -0.10448269049612327
Ni 6.894248516988062 4.841174690402446 10.453448651663871 0.5020184337640321 0.053002777449276464 1.0700283439275249
Ni 1.7076432633973266 0.9989634123637873 13.481227155564131 -2.6106433854723616 0.34211767150892053 -0.017877394501053082
Ni 9.09793608921427 6.71293974201139 7.587028082698145 -1.4550713540450617 1.6032255172872067 -0.3368793059281166
Ni 4.810628305276227 2.0101992623041367 7.310786754068104 0.08718225154446275 0.6280410552144603 -0.4667012465199769
Ni 9.122620318314139 0.2513527137416156 7.921615979803462 -0.1407522143511189 -0.1638034397436276 -1.0643217804610507
Ni 1.0717990751951623 7.824909914921203 0.9143216831642857 0.7791499302095548 0.569470039648787 -0.5385509814724274
Ni -0.14644334652771013 0.541967008438802 1.808419392550814 -1.5552543887245667 -0.6329778303944453 -0.6732209941852082
Ni 6.59417301833329 0.5010331801223068 6.448314029355592 1.4781680879635253 -0.21839773004973997 -0.835764850490122
Ni 7.173885436787091 1.8096596426768328 11.965760416936863 0.09918518954260983 0.5754887350390411 -1.0875100456520561
Ni 2.8445206317217977 8.333644723166879 8.48171293671362 -0.6966751114430906 -0.6252933172659941 0.643670020000969
Ni 8.77461635224265 4.86272810083214 8.69789550137606 0.565327221125007 -1.3425097431955462 -0.2435734579844192
Ni 1.858675070878151 1.8424635617403002 4.467712616313507 -1.2007920796073643 -1.046470354101927 -1.250776381945291
Ni 4.793311254827543 5.2054551974536 9.684076440718204 -0.8694231619745156 1.1590952140892101 -0.42046252726741135
Ni 2.107449736605008 5.965361559310125 12.58039679249726 -1.1514371833233203 -1.467682615051169 0.7810137228911711
Ni 8.105810310504042 3.0180627467332886 9.851892966571151 -1.2150290491423525 -0.7492480004438 -0.93812535243692
Ni 5.4253650156782784 7.136510708270431 11.239953965848523 -1.0944448250986765 -0.8717947475304857 -1.0155818920531865
Ni 2.625604871650558 9.039463173160613 5.0786635444956865 1.3268311561180246 0.7928796210908216 0.5500414986105301
Ni 6.451874058181738 5.445952238743882 12.712983711587087 2.1169550688405803 0.2912337401748597 -0.1524928998268148
Ni 6.995772512322407 9.424042905120766 3.819818027823258 0.07504407352003205 -0.7205223503743333 1.2787726100479009
Ni 7.828022153065146 6.84789010403799 9.901019877929864 0.0426178346705266 0.1673567043125247 -0.44857908299796934
Ni 4.024263274064632 3.237331536802946 13.091149445891782 -0.6818051363097936 -0.77474511627364 1.7912014405119794
Ni 7.76781195780875 4.784671310129434 5.372799777940242 -1.0067380685093112 0.23371070625772652 1.0621772233142224
Ni 6.975241030835502 1.0378896148208614 9.06585030748969 -0.9025081174539423 -0.023590128615114208 -1.286834304010113
P 8.22628644259553 4.016942546729029 12.442561803773062 0.11390526936160383 0.18090384686934005 0.2047102052603184
Ni 0.7990090793128071 8.925768933143985 3.6861432189225174 -0.6421949781173392 0.26507045151593056 0.7531869304868899
P 8.462314867326898 8.890846834090015 5.3387658280401835 0.13255013815630076 -0.7611102990990247 0.7423952391880247
Ni 6.67006517772991 2.0263364493370575 2.6450846953527045 1.1441913003941844 1.0405267349239822 0.3083382610656303
P 0.4921145275307099 2.67136870776119 6.36745157919178 0.6701960913159555 -1.392090125226835 1.9850492491364973
P 7.933299414698454 7.774826106461517 1.1971906855014571 0.5307556537977246 0.6869715110020814 0.2775863245947542
P 1.501910386688041 0.3623202615336257 9.386609647946473 1.0699126442852671 2.32271711240418 -0.8036990803038289
Ni 8.003013549122771 4.1965140425029634 2.9905635679091978 0.6528809970762756 -1.6869627477058622 1.1385893808263747
Ni 2.729312078817221 0.2996119145252713 11.395615111440172 -1.0044413020553347 -0.2554630103331536 -0.09528688292946816
Ni 3.398499021343595 3.8493090390594715 7.944962411014591 1.006925759040085 1.5840911104506008 0.24285097799609784
Ni 8.981389738420955 0.9067621960665957 10.328897810169597 -0.10410833787584006 -0.39003686378770247 1.0166784675514748
Ni 1.8169432089599704 6.035883946625555 8.629678028339772 0.6170202786239244 -0.5265079342649642 0.01975095737468211
Ni 5.813874528936604 3.2248082621222447 8.975238655211687 0.16372707797973737 -0.0904516663243539 -0.3553516537006913
Ni 3.753089783964503 7.539029938308056 13.421508415226585 0.5930586256020044 -0.0493384412238118 0.23675180707689547
Ni 2.8263953283820005 5.583401681548753 1.433869428650961 -2.209586516425072 1.1706353535183258 -0.2889251466463411
Ni 6.415734934659537 3.352725894969847 0.1394338430065019 -0.21124055017966845 0.18745373217271588 0.6626375622424071
Ni 6.318428718779968 2.663332630165636 5.010106976855655 -0.17638153351895428 0.37724819666346643 0.44926633887298106
Ni 4.143522381687892 6.537028609905256 7.295136376822475 0.4308374427438322 -0.25731163350611813 0.5567590198400217
Ni 4.190066599900288 2.439019227223857 3.822619042152806 0.6446673509172317 -0.541723465663138 -2.105792367355541
Ni 4.4191459078207025 7.46228307470474 5.013709740892136 0.2705672129644437 1.090691014483199 0.790067091342691
Ni 0.5030677477447648 3.8266686678451785 4.606731184558711 0.36499509032772626 0.6682788196885845 -2.5190653188530483
Ni 3.767786980214406 0.6597183063582954 0.3705830215492156 4.762658531240868 -0.35222133560182567 -3.133451759398552
Ni 2.253409060424362 6.968849329811524 3.906119927041633 -0.4828236060031362 -0.09386300599874801 0.06549011128300979
Ni 6.750156536055074 6.589304920460377 3.896193280901923 -0.12347748643107123 -0.03339991561668441 -0.5685858372716208
Ni 8.702375266250714 0.2464836868423907 12.916683878726538 0.2042306945207386 1.4120367435520909 0.8088232889042716
Ni 2.7839945675194495 0.8621466364771321 2.1438629228891375 -2.2554308284526967 0.020910010679789797 3.772731877861941
Ni 5.077240276186278 5.525151731809885 0.9836558458271474 -0.7860276311659946 -0.13750131151398898 -0.895445039959574
Ni 6.687149971600689 5.575207669480223 8.055793391938792 -0.2491681784633773 1.0220435885181303 0.0656322932878289
Ni 5.731070413781497 8.454752593150273 2.2410966747164 -0.5700171704015087 -1.1562006661502346 -0.8888756142721723
Ni 4.305711795171329 6.319590001669499 3.1028215332480547 1.1529867871986272 0.6951995553388286 -1.0351225331892755
Ni 0.12672290501085304 6.678147706641045 2.6850876393049514 -1.1310966719937554 0.3102784155111366 0.19741932802586
Ni 0.6689351763959238 7.8594232423980595 10.017099857514745 -0.08050561085523554 -0.9955113465555565 0.10841982076700038
P 5.4592837663156955 0.40887748611438496 12.276729678121745 0.20153000776012386 -0.5183683358769654 1.005919686373074
Ni 3.167524499747467 2.9198925363839083 5.793660774448274 0.3813668468175303 1.626563677792515 1.0859709832997102
P 1.7690983539112994 7.995525597051076 12.463555940363156 -1.1155235001458466 1.1119998032633043 -0.7861186482179042
Ni 9.109762594161253 6.80690146316911 4.956288482623237 -0.2824297687299846 0.40564448841797235 1.061282479414095
P 2.491416311199489 2.4982353643268143 11.811935027336983 -0.129013585757952 -0.1686815937715353 0.4066580172841513
P 3.0097665417704795 5.278262989495627 5.9515525122141355 -1.5513918204453667 0.43647561486621606 0.4116266741433362
P 5.887109673081977 4.08713977483539 6.863396482205317 0.07108483176196789 -1.3617300248777386 -1.0803410387074426
Ni 6.626308038452388 0.896108122324884 0.5423283996740239 0.009016601676313504 -0.7531303662173416 -0.00602615158942188
