# total energy = -340887.0236902756 ev
CRYSTAL
PRIMVEC
9.13721871107158 0.00000000000000 0.00000000000000

0.00000000000000 9.13721871107158 0.00000000000000

0.00000000000000 0.00000000000000 13.37324318787514

PRIMCOORD
 96 1
Ni 6.525664549732362 1.9941248873368806 11.236907720087961 0.6966000352307811 1.3462550691705912 1.4060650993496884
Ni 4.869333501161425 0.6181438108989322 6.066116357834332 -1.245467568137868 -0.9091431062719568 -1.5898465248771394
Ni 3.028951455964602 1.8883433062447943 4.315157531059718 -1.3858639418114649 -0.8058019855794445 1.1200455563859162
Ni 4.031834307956067 3.9138545398761657 4.599446558181805 -0.25318038494656403 2.0012693105397856 0.29437922778237685
Ni 4.096333934882649 2.8481167603272626 2.1795976351952047 -2.057192861180283 0.22334556097331856 -0.30223471927105366
Ni 5.308851995908901 4.807894842505194 2.556255720054012 0.10973699691652715 0.19875373056656737 -0.1785425457260151
Ni 5.0132446959614905 4.883103289768644 11.466886946597182 1.6252537007318395 0.6480288111902969 0.41228719054547064
Ni 5.7670012796212875 8.039235693061634 12.61587666704652 -0.9949840132971768 -0.552406399298281 -1.0030500781347629
Ni 2.1055258579402074 6.509509947039884 0.47798070321677083 -0.378952838059399 0.3553467686046848 -2.096130933006377
Ni 2.83843130848675 1.7710305551312682 0.15742970989255406 -0.13237736002386236 0.08053826386538387 -0.1992674369781923
Ni 8.6078722255056 8.897878410379205 6.729683110421524 -2.5159632828889573 0.025020433303737558 -0.01361604812153784
Ni 8.669484491317464 2.6756152081602504 1.0496133296781938 0.9496333530765193 -0.935730369842182 0.7579257307234559
Ni 7.0238622630833945 0.6734806348956407 4.2880236463563355 -0.6803630045466283 -0.9296494537554247 0.8177691852436497
Ni 0.9255180211106936 7.3785508192579305 2.368789231071537 -0.24593913000311834 -0.3194541684731337 0.9653060266167697
Ni 7.6439413369066855 3.788592408478445 3.604316636272109 1.6339412012035086 1.0640821536464191 -1.339638335185022
Ni 7.965955198947569 4.288608428354253 12.584462909095876 -0.25983311437639117 -0.35100726068906646 -0.6991207447701057
Ni 8.20822855324114 7.624981608067947 9.102939527724029 -1.5061848848914254 -1.5792489518669512 0.040508758747323785
Ni 6.82708312078408 0.7193851080103104 0.3585408075858188 1.2066086862891412 1.5823409605287135 -1.068912999376159
Ni 2.219366465941097 6.55511380565875 9.143379944045655 -1.04620115960094 1.1132822695201536 0.703988357275052
Ni 0.21689747047142807 5.1122281863277825 1.2002979447135156 0.1469891963997662 -0.742349987772386 0.3674875177322768
Ni 6.539854650400584 1.7165270454815926 7.06603418235198 1.2146665235966114 0.6858741641728446 0.7221688848388208
Ni 3.5475982648053197 4.415853336213663 0.15294607666789428 0.1780686914133901 0.590230669234906 0.03870770098284301
Ni 6.332860097575145 5.753268039888938 4.656630014081314 -0.5003143065887319 -0.14346627084817226 1.2273454046158605
Ni 5.4306693958501375 3.131206070631747 9.153663883712161 -0.26498020579496945 -1.238355382573119 0.6696186215459307
P 0.40809834074373086 5.9185968753627405 12.290679398004473 0.7160622577204506 -0.7562791962589684 0.8059140856772766
P 4.050483371358411 6.514243026335531 12.649483357489354 0.6020420600475372 -0.2626345883809283 0.7544570554485652
P 2.3137447980737877 8.602179738244619 1.2465222204832966 1.4189905491621047 0.07308720690397735 -0.38710246374972684
P 6.778591901050496 8.119597531681734 5.752099389614974 -0.9768718770774981 -0.6915511599529638 -0.22956403107920464
P 4.8704939279385435 1.3692122248120508 12.751654823466168 -0.13633197379623616 -0.39802528130981774 -0.759695421029369
P 4.102254852611566 6.544359299228294 8.09832791395122 1.4433095855234435 0.5254380982395531 -1.5204848464538654
P 4.965493590944021 1.4044087913117238 3.66359982503289 -0.6667443853219291 -1.2478998317284444 -0.1699972272591653
P 0.2658400688096548 5.3880716821893175 3.6418148681667115 0.4222640992525244 0.9447266598035214 -0.1598015176730861
Ni 0.9155310410525048 9.31210508371674 4.555635421875307 -1.781504782049506 -0.7030753585424795 -0.6320728020816727
Ni 1.905685747370542 6.591936797090132 4.814407852007002 -0.18268870668390472 0.3648575363085974 -0.9090016955980861
Ni 6.194513468974014 5.724229958804836 9.511732297090289 0.07563311325428264 1.3656681835898803 -2.257298477789054
Ni -0.1749960128768795 2.5602395474148265 10.025184597090128 0.4608103349568387 -0.537884551533022 1.0011356347208693
Ni 2.4746603569070547 5.553300008257227 6.962631933013922 0.88579157603021 -1.997383088111502 -0.2751144660154939
Ni 0.7432570056315579 -0.10114078770548596 8.93188256983625 0.6327137780997814 1.379715919932198 -0.21828511573127565
Ni 1.5283734376515643 1.2245609152958707 11.389603436962997 -1.1405745295772034 -0.6590796696878197 1.3576494270504618
Ni 4.17308657210935 7.012532111873738 1.526850263291363 0.4077787611521558 0.3630145695625877 0.3024661185555694
Ni 5.959421968592371 8.202344184387092 7.858732678463738 -0.5692520101007099 -0.16129481438916093 0.14399411832718426
Ni 6.135998720307372 2.804513952607522 4.828863845739903 -1.9589895759349683 -0.4109489313500213 0.8210689390408439
Ni 1.2244147197963913 7.549252339337602 7.0829773270197744 -0.323431665063643 -0.3857896584755743 -0.8015573513704776
Ni 5.288969407979698 4.884035286077825 7.0571537194804765 0.2509016162147163 -0.249217543644074 -0.04809119908027201
Ni 0.7978509737465365 7.565863802965952 10.959586735959812 -0.7395842521017908 0.010046585602724633 0.5047438031149952
Ni 4.697937552459226 0.7434890909869817 10.416900818395316 -0.12452675363119199 -1.1735679537840886 -0.3002385147766313
Ni 8.482399938077378 7.104297199453234 4.83758349356198 0.6291312029548455 0.3248280311905373 -0.4291117183019771
Ni 7.606506151821233 6.176120247695759 7.082456505552879 -0.502991853420895 -0.23793348608982245 -0.5489261540591642
Ni 2.4193619092289596 5.331539709984366 2.612917440764753 0.1937840452661179 -0.6748104501595152 0.38385670311891956
Ni 2.612239459135917 5.524316750485431 11.347331008288519 -1.7496927797452315 -0.26766803703977776 0.3606779510096111
Ni 0.9641593190668508 3.20622263630213 3.6948801795902577 0.5667053324194563 0.5966404294159918 -0.30404477589659895
Ni 1.489302690415686 1.218603448692084 2.17280411307877 0.6428495809822026 1.174733177736783 0.5564615432042611
Ni 0.8693725532574896 3.602650007578043 7.9767380307560485 0.6265205048048759 0.05573508877877498 0.20440784352855118
Ni 3.4000595941744214 2.9589969094636936 7.663603717864797 -0.2707600457015401 0.49826308048665807 -1.3195775598794048
Ni 3.991977759910487 7.208881804893333 5.8084403939487315 1.3975436921422384 -0.033890739210173895 0.13054184947702036
Ni 0.38835189737341835 0.15411929555121667 0.2980871411073303 -0.12244904516655686 -0.05466653830494456 -0.5003770415058674
P 0.262059087704368 6.004121242558207 8.275376146152041 0.41975110302268354 -1.2491928395082552 -0.5584801162961867
P 8.567248151087753 1.700582598819617 7.9200763100453075 0.6017217005936412 0.19748103450173088 0.5105534678182369
P 2.0222309721118013 3.773662193094108 10.001728442920525 0.1730532404766697 -1.290821313682319 0.05078057298697706
P 4.138904236887315 6.18422496069815 3.8603469870666935 -0.4071442128919504 -0.2529713542595514 -0.22354970656432469
P 6.995811001620778 4.13185944125615 10.541378976427076 0.6110977424919024 -0.8349616378625362 1.0527659573026513
P 6.239450310626506 7.917116764902722 10.21606109609796 1.0010842126576436 0.8927104146372303 -0.03635694136247932
P 2.553660749938252 8.876990728391082 5.847972570729842 0.4230572845777811 0.13432137112411058 -2.173702400933953
P 7.146300993897419 4.145583543769782 1.4570282064618583 -0.47916569753557475 0.8808815403231024 -0.5493280174832733
Ni 5.604377060887854 3.291719591841445 13.389157659661793 0.6890906142276132 -0.0897096459520068 0.19864754400600626
Ni 1.1374283976061295 1.2913265724643836 6.601848851954837 2.532095155453813 1.6974420499706315 1.4405286803441966
Ni 7.420947514106965 0.7014587986085168 9.487633796444847 -0.9737333314485167 -0.007669600730115822 -1.0642891274509025
Ni 2.5308908008943307 1.5065994454478464 9.34349691234246 0.6057159093546987 1.1910136600643617 -1.0204173657686169
Ni 6.28829788189007 2.0903398004317815 2.1432899828994882 2.1757783096263754 0.8334380021291582 0.66105144870221
Ni 4.261863789168235 7.001485214444324 10.37446757467141 0.13905682892656698 1.912099596251649 0.21736851745427727
Ni 8.321968651836137 7.109514551340906 0.268545599271896 -0.05285236791434123 0.785998320589956 0.16012933332615
Ni 7.498686970955154 3.6785071973704335 8.424194027403386 0.8635073107107128 0.9468002545030982 -1.5692260204133104
Ni 3.4674283077782864 8.75605050144672 12.278737053140746 -1.108292529615046 -0.22976971933210752 0.7647815773030248
Ni 0.11436873924275927 5.010494393127534 10.234222232020793 0.06926680471662265 0.20400983675918413 0.1408326898800671
Ni 8.480097358960577 2.1940837817498733 5.458503191507278 0.08910235138531106 0.8281569562358769 -0.010285441086408092
Ni 3.815401008195486 3.038746554429723 11.334786520711312 -1.19157030389878 -1.6503906050087833 -0.16792388966990435
Ni 1.3233342496316618 3.4915597024111102 12.20864727580282 -0.47664755909941137 0.36290426923696856 0.48277604059465234
Ni 3.254284406755993 8.65403345446623 7.761669831471856 1.0138471687502668 0.452803148381646 2.3654578458058166
Ni 5.678452493030339 7.753176786673974 3.3803414761821324 -0.14188812772777498 0.7928420829846669 0.5126805414635687
Ni 2.9168560567387476 8.798346686889865 3.5053139577465093 1.632362286752163 -1.360352942024554 -0.4407408179004732
Ni 3.894346577914379 4.7687966836131634 9.18963802752469 -1.1828300958123048 -0.3699058973657823 0.7694381022384297
Ni 7.516897447859059 6.555881332031017 11.39175616569283 -0.0753592907676057 -1.3602521547806314 0.2698534747268707
Ni 8.117477696939282 8.651127818914077 2.4865268628554253 0.24938003736386732 0.6156689068023526 -0.17495739947791805
Ni 4.664349136453827 0.41638488439859933 1.5139713535090968 -1.0601136559169742 -0.7501512289843596 0.05476244045286052
Ni 6.104374806326227 5.827882567935752 0.288657531390907 -0.04055940947960111 -0.12687442792776213 0.18889586393588115
Ni 7.8229942748941195 8.881833454311337 11.643374153568752 0.8724282673494265 0.7438247725456996 0.07276530478818437
Ni 0.4704817878153477 4.810297931027887 5.883531884812599 -1.9199599728363321 0.4981538086023033 -0.500556504506525
Ni 7.573639576094514 6.304955031612008 2.5386291114261517 -0.1201929021425285 -1.1409805067663705 0.01603288509314658
P 8.814236310239535 1.4099093969796375 3.234251968439824 -1.0946008910605665 1.4800401081752574 0.033745986102193495
P 1.9237317543375343 3.5895289614997643 1.2497430900812028 -0.41209924290438066 -1.1714329097189569 0.4678034784452202
P 4.722790787370729 1.2712338285046791 8.28071228188304 -0.05792078357618412 -0.20221032165660013 -0.6444832599308836
P 8.552546366171352 1.7719991003153193 12.403910553516907 0.7115944517570841 0.0063891913557954485 -0.8801721729609034
P 6.483057698852825 8.020376473628787 1.2718862259211061 -0.9848150431839747 -1.9218163093187806 1.2230547476603066
P 2.0552254689005656 3.4177766612675846 5.793101744887724 1.256824387911584 -0.7860985936132462 0.5497579059318403
P 7.323471664829054 4.101670070613648 5.987950192872039 -0.06132955214741696 1.5042089921119772 1.209243552808827
P 2.455061022758093 8.696119483878872 10.267494500258568 1.2911211043109247 -0.3465343125193774 -0.009514624358654583
