# total energy = -340860.28140250413 ev
CRYSTAL
PRIMVEC
9.34440604071764 0.00000000000000 0.00000000000000

0.00000000000000 9.34440604071764 0.00000000000000

0.00000000000000 0.00000000000000 13.67648278762931

PRIMCOORD
 96 1
Ni 0.15543110968414972 4.543138007113156 11.016434066704111 0.08456255453342855 -0.050586711808616104 0.20333517928966274
Ni 5.607905024185817 4.111987119702934 13.305849951055333 -0.19716350326131207 1.2308151083320158 -0.07880971121005137
Ni 2.077018473086686 3.9624953143975867 12.376765576275128 -0.5352579125434523 1.0320410660504742 -0.24813896586791456
Ni 1.4180603146713968 2.0767755185337458 11.364691663972867 -0.20265589383445098 -1.2134154247983295 -1.3746683302059617
Ni 1.356742323271616 5.59627123886233 5.539823551808413 -0.6450761563198761 -0.7669127647134147 0.6394259000126342
Ni 4.13485288089697 8.555308183181154 6.072550000040625 0.1363970227062167 -0.9365700921346579 -1.7618972922312237
Ni 7.670383601719615 9.034601449697085 4.557127517159577 -0.6652878553810607 0.03533544207650043 1.4693602598639082
Ni 2.300667483474121 4.429491342772386 7.596766503297524 -1.247933256069541 -0.8904900099471438 -0.10254947802915242
Ni 2.3539305970033424 2.187544105862761 8.31374220895496 -0.35714422682473973 -2.7460407632694706 -1.1274037965232002
Ni 4.333458883519789 4.11869640312644 2.54099438948032 3.0504048701787014 2.9486894580150707 0.2598295148319654
Ni 3.8144145143804695 0.8494569544946077 10.313106800278394 -0.3357379932348218 -1.2982129781606997 -0.667571766319231
Ni 6.153562261277982 1.9266109160048712 13.053053869839767 1.841734930485157 0.3906976373001529 0.8013354651676586
Ni 6.153637016525042 6.463600304047461 3.5022870624557036 1.266212256884387 -0.36796214337585015 -2.327229398452237
Ni 8.234421285182302 7.681503444719573 8.364058096868897 -0.9645534647214614 0.5223008381621521 -0.2261678609134621
Ni 1.0287817100198484 8.713714551698233 9.124785245307939 0.9897402483997341 0.14077458294862205 -0.2532567467104542
Ni 9.249046220290436 6.837152273599066 10.18658634795355 -0.4819993103296279 -0.5165672781124846 -2.8035473421263717
Ni 1.9678945011929587 6.862111181710741 3.691282343628557 -2.6754128165392634 -1.1220240202685257 -0.8743591658235523
Ni 2.8148434171487517 3.724072798310204 9.785359051500281 0.9875265285778669 1.0602239562425935 2.660868085955869
Ni 0.45411102710366924 4.371621437143181 3.5026290677109966 -0.9474376309767812 -1.3129487417089774 0.9049023287177319
Ni 8.617588648386812 6.843758768557866 4.604092501124114 0.45616178044123373 -1.2580222648744268 0.5527177598911126
Ni 0.2332541251938713 5.608157323144639 8.261361207341029 -0.31858847803872875 -0.45285482755518786 -0.8522019130002227
Ni 7.657647176502013 2.3043959014211666 11.33110226258828 0.48680367369680677 0.7979549787311999 -1.7614609760247535
Ni 4.9052991458942135 9.607077131671508 12.538544340875136 -0.8255442012033783 -3.318017114279879 0.3583027659092152
Ni 1.4478409362183489 8.795608924850882 5.091111722423548 -1.2186532761585012 -1.2023103160241035 0.33343788434673544
P 7.78123628870157 5.0384943073407955 3.672327216296272 -0.47329201236361723 -0.7040037838940197 -0.44759306493561624
P 0.6447256938159284 3.6074919905223863 9.151973728663135 0.16288349903251947 -0.6535718524957131 -0.4178852534585384
P 3.491658735205154 0.7873437541542416 1.724796044402064 -0.7327782849235509 -2.488202053615289 -1.414498574829022
P 2.2476286356860755 4.9118776076353665 2.775340875721834 1.4768123452665793 1.102600107215959 -3.2714932596867268
P 7.6911935936195395 4.353997887649127 12.186457406075807 -1.4038310678128467 0.04235481081712705 -0.33137483117011957
P 4.0800853180206955 4.615744040818779 11.663632290316503 0.038542636159888455 -0.16669464524849356 0.061123349673881826
P 3.169407553947483 7.626492927290359 9.362523750884737 -0.2760287502996472 0.38416574971890616 0.4048582450712512
P 7.068202053445298 8.40123761899347 13.510682131317541 -1.5185292653893911 -0.22559424779817921 0.12114035365746234
Ni 3.0114684057245187 8.746214395356942 3.510903539119791 2.829136503449386 2.5560830337279783 -1.0225156430585423
Ni 4.9697194800469235 2.6210684723670923 10.960770375303722 0.957180569296158 1.7977240721218457 -0.4345809689466645
Ni 1.855686875358066 8.047514478724146 1.4591710283506614 1.4702586033084615 -0.8246080625423541 -0.8839547799317874
Ni 2.2652989072095417 8.610832642933895 11.382990814012214 -0.5804213964539681 0.48511445891984195 0.28369680836786626
Ni 6.649927757340912 8.680560599627764 6.922119087405821 0.7821622346733175 2.023146827339167 -1.0021134252531063
Ni 4.292988261643463 0.7111728296045142 7.8448165607654605 -0.08343384024562404 0.04478887417991641 0.36032802386936014
Ni 9.783779846906171 6.271768995689324 1.6123884482812896 -0.15162155296545501 -1.1180622074073003 0.5392312953689036
Ni 7.68124180135487 3.4225194760818716 8.57832719263166 0.7546066936525521 -0.6515190837317425 -0.09557818891764185
Ni 0.254922867994382 7.003136955286707 12.131983257544238 1.510914943377243 -1.6986000748344747 4.348450726633917
Ni 1.0909967643843317 2.971259427212898 1.1874198198028103 -1.533164498804063 0.378547117980548 -0.32513682068020777
Ni 4.583636662207129 7.42462572701461 11.23131895881452 1.078458219862433 0.38159284678540734 -1.6267135731068179
Ni 6.771834876481652 3.3950749560054994 2.342522011861618 -0.6668462010071161 2.6508171294777703 1.524131442067517
Ni 2.5854195639260436 6.244053487842364 11.223318278498077 -0.7520882981060725 -1.2745076641239597 -0.5102688466982825
Ni 6.300727309518632 4.659513237971563 10.29514965549434 0.23272623085727015 0.938451368317771 0.2691505351225752
Ni 5.383592560980738 4.594597650307089 5.315214870936865 0.3625983079607755 -0.5424893972948851 -0.42514244924158395
Ni 5.046437052340767 7.5262928630142465 7.91123005669287 -0.745065072710704 -0.6734747620672271 1.9147082375190896
Ni 0.880502808598026 0.6370137556412502 1.7186278020791446 -2.344664820319865 0.6965429567406004 0.8560135734368289
Ni 2.9146510163778068 2.472950294726446 2.621589890215326 -1.7734469447420358 -0.5267920411642862 2.0744184810299497
Ni 5.4804099503274495 6.776852822440458 13.458137602600669 0.3780596368211683 -0.07199114562632117 -0.029057579487588667
Ni 2.0972117341983783 0.6244174965118834 13.547199135065057 0.38498156075198214 -0.8666137175501784 -0.3779375094210072
Ni 3.2354164371001883 1.538827416294494 5.290760560742834 0.33125733175564887 -0.5572426443446596 -0.17226442602678718
Ni 9.063765340455804 1.5522646719532693 9.254164151392182 0.3741448751477943 -0.30064166375232093 0.059586601314381246
Ni 7.006799962392576 0.9648005629436066 2.8059353950211365 -0.6359507969798402 0.11932232661211709 -1.90468787716861
Ni 9.117878794920317 8.805878426915552 13.320319763564104 0.8597298459461518 0.564515266746673 0.3443684152163102
P 7.696398427695991 1.619226684505971 6.757385621665821 -1.4044702440587424 1.4089017974675349 0.04919548788804431
P 5.477802861086282 2.7971264235958744 4.051644684277267 -0.6075038544930569 1.130872214687775 -0.6083260932840362
P 8.070071874524066 6.273394922312847 6.714004217357153 0.7708771486778014 -0.581085255290212 0.881546427600611
P 3.574758536716621 7.573986710637605 13.141650050891213 -1.6523472145145222 1.9667147124933677 -0.057999973553551715
P 8.038095317594768 2.326056234256383 1.2888197057942121 2.216163141201325 -2.4510627255608304 -1.562974897297276
P 4.945199759011717 2.895074486054347 8.741022643448725 -0.40270057529829995 0.4419235253546647 0.8833009483978723
P 2.379160492885605 9.487281848260173 6.83567025082613 -1.048212276493698 0.6345078938857266 2.0580768064471333
P 3.6990952013867644 5.489137625421535 6.593226836887586 2.347052089605119 0.5181976146270559 -1.8413834606830095
Ni 7.7470077299546345 8.430579053463951 11.232508501683338 -0.9114483573663658 0.4664212533857129 0.7116936963391098
Ni 4.075515903544241 6.508659029212006 4.53268722357437 -0.6618145521204797 0.23030733700313238 2.512099943278809
Ni 6.240240970242378 6.673214016799652 5.790157382073988 -0.40148624327522464 1.4289790278333843 0.5719385557939376
Ni 3.4907242946169217 2.039640849557408 12.654220610173546 0.5945956310718211 1.5982625168549764 0.06683505534667844
Ni 4.423249279642997 5.4253620552747055 8.785157206871508 -0.9709470269526311 -0.493696287051582 0.46672541488969294
Ni 2.41567843107371 5.935304973084645 13.776183801211296 -0.5714603306059385 0.5219416550505205 0.23007850882177797
Ni 6.495175051523819 1.05199321423153 8.661740031740186 0.2658404969127357 0.703166375594389 0.4614405123416698
Ni 9.116822877055615 9.516249506495361 6.680127008271392 1.2220890413129275 -1.1573869731488517 0.7773776688004805
Ni 5.115772543987577 2.655138176214029 6.648192501168565 0.7132438144350491 0.05665760059304436 -0.3189823710430377
Ni 1.0435458713139132 1.4014926830420442 3.8445006979997736 0.32835969849287966 0.08722596029820462 0.6904000770676562
Ni 8.174645120753103 4.086691812979495 5.5284168355478664 -0.5176836511051149 1.6397842902478466 1.8375936546232738
Ni 9.05230909884408 1.7740074235407113 13.045463408941558 0.4129147968271405 0.5825659536007968 1.2191433284210424
Ni 2.3077785763505663 6.884453656175367 7.29912474937153 0.09107695861317862 1.9814211654656069 0.997164051667631
Ni 5.493697695492108 0.9678748724788898 4.890245308017796 0.912578357205751 -1.4265704183918917 1.3030404814563301
Ni 5.040680898317259 2.199561011827424 1.3774682155186007 -0.2803677439946333 -0.9157354147774939 -0.6995526901012016
Ni 6.3532895926066795 4.902019259429519 7.515159003405464 -0.1243164373925988 0.4598286877698597 -0.25795723750991706
Ni 5.156336609922727 8.630044741427945 1.4596634785406595 0.760275204792239 1.4678178550774525 -0.07533975038357993
Ni 8.290170010676219 2.265448417703659 4.251895302335375 -0.3919006564693186 -0.6665009018525553 0.35584761950050325
Ni 7.956004711918593 7.8757549542012315 1.7636510185013368 -1.289141611987051 -0.04717228681042844 -0.19400438880704007
Ni 4.020813751509142 6.858578996287224 2.3218839570299274 -0.23076936424121547 -1.7029773779665636 -2.0284129608341135
Ni 3.2025428172061883 3.8116952922687144 0.6298045465030406 0.8970054424681585 -0.08952221253154904 -0.01598917633940472
Ni 7.714704118819455 5.988764319137396 0.24459823393500715 0.7456620828647545 -0.3443151933808715 -1.094523757965728
Ni 3.164987649965146 4.221886677284894 4.490440230139815 -0.5293688007525271 -1.0226128307580389 2.6401542504472855
Ni 0.29823045149657995 2.7783815453959413 7.0681702824652985 -0.2656204104821296 0.17315737015470178 -0.4565847269112653
P 5.291737051157536 8.347796961752485 4.064363355123692 -0.1476581974423328 0.41434253041260255 -0.38543690312184586
P 1.640784228876482 2.85391237814273 5.332529120596214 -1.5083590097246087 1.4364532247232422 0.14663412705319262
P 6.21374023516012 0.7024414167480749 10.897161135581598 -0.4589709677552547 0.03140499667384269 -0.7129360533866432
P -0.14222652973184405 8.40184500537582 3.297700640068201 3.0636923313162265 1.7539968064372242 -0.4202049027306505
P 0.3305088327358762 4.74212713037715 13.637928643979437 0.5571117751937501 0.4357065979106754 -0.2637823288321264
P 0.13121601628070698 0.3001666123953966 11.054058382548684 1.591863298196852 0.25516810480055413 0.11619406539578053
P 5.994548506378551 5.461964093115751 1.4163643050037558 -0.9081951405363907 -0.5583500184762255 1.3949466208390233
P 6.585311190664673 6.988830669880876 10.181553450945335 -0.20004776678764258 -1.8957944313337223 -1.5696973036227742
