# total energy = -381175.0627840454 ev
CRYSTAL
PRIMVEC
9.24242512467383 0.00000000000000 0.00000000000000

0.00000000000000 9.24242512467383 0.00000000000000

0.00000000000000 0.00000000000000 13.52722340861614

PRIMCOORD
 96 1
Ni 6.3576238320490015 7.815043340313805 3.213621661179349 0.10751119290980195 -0.520045209358756 1.022245163005975
Ni 7.524683317536884 6.25070746002572 1.6924857994315499 -0.12788692835267654 -0.8134199071360184 0.7683235290180123
Ni 9.064166317087537 8.036279266759284 2.617829068988616 0.07209630374561776 0.2785247772486235 -0.3489231244665281
Ni 5.504658916654411 7.580137867341491 7.71295243836602 0.1508993300874498 -0.35403242066863544 -0.5782362158771912
Ni 5.943600163207808 -0.13416581355476864 10.029610620093308 0.21997098807413085 0.4564715983721687 0.019728845887495055
Ni 9.291317395512174 0.2717356122250434 0.3646977710324925 0.0002635380740318042 -0.3966957638651168 0.49784270511978773
Ni 3.1042717586621422 1.7706545328361236 6.705296132048983 -1.851277836978586 -0.3709525934627418 -0.8893181011262297
Ni 4.773435222930868 8.432538994813067 1.4208592478211222 -0.022079862618174878 0.03958341871957699 -0.4044373554837486
Ni 0.8715699168540356 1.136420846720837 3.12523450273078 -0.7155300393660645 -1.3773952422188214 0.05833550251609953
Ni 2.55507762467222 4.314558065722715 5.72681723711164 -1.2186059678603334 0.2605342542084739 -0.41480584320226627
Ni 3.209053130517946 2.509558681707605 12.95292494031805 1.9063457244870075 -0.320738434502196 -0.20030282022124213
Ni 3.2674837411620667 7.142740105757655 8.26774378491622 -0.6783061220175997 -0.610927021241993 -0.4447735932089501
Ni 5.841194094568634 4.560924145654647 10.689401459728543 0.5937170851216097 -0.2190343351924744 0.772625755937792
Ni 4.372618979368139 0.35741196743066395 3.794548737052461 -0.293365698916198 0.23626741124130926 -0.8079532275944925
Ni 0.6524153845112236 1.602618004503198 5.49709861303105 0.20869824337378898 -0.42295855421638767 0.5231526446394862
Ni 8.871415544391692 4.449525197522161 5.995562924859717 1.2206091143332913 0.6712736406508503 -0.19164540165656027
Ni 5.374996936786274 1.7191742257675138 7.041285082647631 0.11234255286017426 0.2808943059220646 -0.5195646701779116
Ni 7.968439867498314 2.0401081903367073 3.6914032744158924 2.5911294838091505 1.9806115250801182 1.397163168874368
Ni 1.1314576645133247 7.943365168561664 4.926100674300453 -0.6214155794781427 0.009615411602576987 -0.8779281141217331
Ni 6.738578104356714 5.579531801315597 12.954696713184308 0.4273073181033867 0.965608131238221 -0.3501158592230486
Ni 3.3440017774674566 4.122149262750665 10.246533106806485 2.2470590594492332 0.5999813208637668 1.8797944563610398
Ni 2.3946476120874927 6.802951594254895 12.24976587000812 -0.20472357499675706 -0.3760364357435524 -1.0969619350935753
Ni 6.29296382697683 4.214342451800824 7.008278534603929 0.419274163386265 -1.6871751208269847 1.2213801881713608
Ni 7.584777564675143 8.390790961235165 12.168345651500005 -0.7879230484164946 0.15122174642387504 -0.542535162931156
P 3.3569226875719296 2.8366203740302076 1.9495028498959541 -0.018986825515147944 0.42933437583574446 -0.1638366069744082
Ni 4.232041695613461 1.5831164878219113 10.75784901055237 1.484861697933617 -0.0032940973702394885 0.4907688289921419
P 7.387682852244603 4.0841721385594765 9.27449433358645 0.10103329849494214 0.2111269074199396 -0.538882139559601
Ni 1.924051060020633 8.707159167870447 7.091254253234065 -0.8703829547846237 0.7040120114241359 0.3375393081096187
P 9.125591473421107 0.7428201643301836 7.386026609690439 -0.5371936961135845 -0.42263948031407217 -0.1768805846425599
P 0.528029905056994 4.75472855479678 11.962420726255578 1.3334437763385358 -0.4855908843356282 1.5257077854157015
P 1.5225139073104434 7.827964250418278 0.8287331256149705 0.5545792385798837 0.5893580368219656 0.35341407035834616
Ni 4.519813839399499 4.879575231256886 12.52961725559707 -2.461915352004618 1.0039787605966195 0.1464862886214187
Ni 4.586738238588692 5.787033484259468 5.9521133608453125 0.27401377675214744 -0.9639970779973591 1.6809042002166084
Ni 6.900006298837925 6.032179564095699 6.0646195514888985 -0.14947699581862645 2.391549657796862 -0.26721835109686887
Ni 6.849311597891546 0.10149938674986833 7.531226954413827 0.8489350693234927 -0.35407047299542244 -0.8165008600541874
Ni 8.278717316080057 6.408983987593035 4.385038950039377 1.389562987929607 0.8746026492929261 -1.0320297531965645
Ni 1.1929197905467637 5.850593640760516 2.137639804048056 -0.681604076042581 0.3669090195209875 0.24966131604971195
Ni 1.1301359977429817 0.7747592122901468 9.176408174377054 0.6309458875660812 -0.08653304799623807 -0.30425714901772116
Ni 3.1125160017330935 6.5740444550864465 4.542428204809818 -0.8014609350019294 0.049374950888702064 -0.7285884152119194
Ni 2.0893703154131327 4.457113228420424 0.2363380488422662 -0.3702607096020397 0.3328920391455944 -1.1724616080937873
Ni 4.351315189818202 3.003751144716325 4.849482819805415 2.7452264948982914 0.36492747031458445 0.15602970933547966
Ni 3.3450184442138746 6.319461859358465 0.7119744952438678 0.6327099214450392 1.2443905330236051 1.6968308987491936
Ni 2.6078888409361403 8.243411252704457 2.836211858846647 -0.7045771398989866 -0.8601322235908929 -0.19550617016354715
Ni 0.021399910769597713 4.956324328186461 8.445492253404927 -0.23738095602046216 0.018372588969916746 -0.10726385278568625
Ni 5.648387867322985 0.46140403619424936 12.784077851315482 0.6328107086889617 -0.3908683585500623 -0.8522281382524677
Ni 5.105266006536667 4.789932951497739 1.4920388594653222 0.09444793196794057 0.48222711006971786 -1.1504455088340122
Ni 5.933128495719705 3.389446781032332 13.301210013093373 1.5603791115456418 -2.115337587841815 0.11075155422397055
Ni 2.52121337959154 0.86612520430572 1.4936756929270547 -0.19092240744760666 0.47192341415086464 -1.2820276266500887
Ni 1.0372958389451026 3.3171525329370595 1.978031443042934 0.009735739230525169 -0.8879281627572386 0.46108081500940595
Ni 5.777430604718304 5.1466351006909035 3.6907544561831784 0.5759003686551629 0.5317447571838714 1.010943879060543
Ni 8.52370627469184 4.499776262070101 0.5966835619575938 0.6611841176253324 -1.7573505534008058 -0.2899790418321522
Ni 7.055131159491344 0.6593841729366691 2.4119984164788573 -1.195758888058831 -0.6922571848810529 -1.3732742780719123
Ni 3.439679360730338 9.023915556354359 12.95274933424367 -1.5841533311471039 0.5039999829704352 -0.2808680806698195
Ni 8.335142320506243 5.66720544455668 10.707054491416342 1.1070805115848161 -1.3619071738855513 0.1351137851184189
Ni 5.872128490934638 2.8590517394261714 2.7848091881477637 -0.0697537716553702 0.13923269238279892 0.22693533520710593
Ni 8.32168534975366 8.870297210970632 9.43073383069094 -1.1152471065560083 -1.247357328961413 -0.7371807848666206
P 7.1999692011560095 3.8169828751759143 4.821954257039911 -1.559531933053998 0.3226536492470378 -0.4142124325926415
Ni 2.644035964983776 4.789923709072771 8.041095494409813 -0.038904647484997515 -0.5076851451315063 0.18629776419140173
P 4.417324588935618 6.772192803963273 2.7600136104451307 0.04696325612341589 -0.8186798699833772 -0.33349547705754823
Ni 0.8623432040090458 7.300702390876077 8.935231716064337 -0.42716179366445783 0.2978846698324741 -1.1070470872437195
P 2.5478870180475557 0.3703929532974256 5.037578183045164 -0.8346304797753625 0.8693254600543868 -1.0658682990125645
P 4.058043803176539 6.660535067931698 10.467432608983149 0.8300803985108349 -1.1156407424500012 0.6221177477514899
P 1.184305850477115 5.514585281069436 4.450267364247045 -0.9477600473132064 0.120865759839837 -0.37073482102498084
Ni 4.911600233769045 5.505305886402131 8.618166630586511 0.43202837772813985 -0.675559669620714 0.6604513532243658
Ni 4.908032657731615 1.5410542117951171 1.010203518638062 -0.4494285754824583 0.5714204785069384 1.3929686711770464
Ni 7.679142723592648 1.87233044990287 8.754264110959474 0.7117795711846968 1.3159057674547725 1.0136983018772283
Ni 1.0027476544168326 2.2970383620064174 13.056258948423954 -1.4257083275019122 0.2458236874711766 0.03783044058421227
Ni 1.2438363096923601 6.204458365488677 6.727913270186792 0.09141814400268126 0.5781595970029849 -0.4881609590556496
Ni 8.941685701419097 0.9024784344301299 11.269962535572946 0.15273792595808536 0.44543565227298126 0.9049308679628222
Ni 8.391437930982887 4.423054892415428 3.1413727009664174 0.42278397631173636 -0.04496345208456772 -0.5974932643345903
Ni 0.23967733698300026 7.7718165187411135 11.129482297280425 1.5638277322158745 -0.12841606138326916 -0.14292942450809576
Ni 1.5629772438178717 5.380579361466604 10.08750701857431 -0.6482681808946126 0.9811471074140845 1.4727847121644246
Ni 9.253885574394063 6.744752044234961 13.26050729777929 -0.5165618787958459 -0.5298218291295456 0.08739822421001077
Ni 0.7867235314104907 3.0131044787833687 7.742901592230495 0.5190072550125449 -1.7631229371082089 -0.4974202728703885
Ni 5.46514754991863 2.851722496426996 9.064362256496846 -0.2932448570676175 0.10837559779262626 0.19464253661167122
Ni 3.005738266084323 2.4119309467765953 8.960175172566448 -0.7558331098604854 -0.6494022944990557 -0.7599826132524847
Ni 3.9912672827868256 0.1486995268160593 8.3912068703587 0.38376517184637776 0.6879325893637701 0.0511577538207377
Ni 6.171481393204872 1.2313960056861935 4.855704820293492 -0.3483245716505807 -0.13299802432699676 0.13590619911272722
Ni 7.2317908703188865 8.287017013700812 0.8663146740175524 -0.7034556247000336 -0.1486735260807246 -0.660861701288907
Ni 8.531377487414812 7.78602212591606 6.595806668914768 0.9181813052148251 -0.4883198532310171 2.0416261170902774
Ni 2.7612391559958125 8.37892368757698 10.217057165100343 -0.20147987124847883 -0.08807313878984832 0.6291345453889551
Ni 7.732268182305461 2.3635653369220107 6.306959631105015 0.2357017685458263 -1.149817131221394 0.5925878566131729
Ni 8.09580048354956 3.257677528271619 11.807250577719818 -0.6237833083793709 0.250029240912092 0.03685342138292363
Ni 3.2882791973387944 4.7309847650554415 3.0762256200984623 -0.3949967788961391 -0.5349367817586078 -0.06516949471879743
Ni 8.085920331259373 8.959532824031212 4.787730481627999 -0.02890202774633087 0.8658693831849862 -1.627501873336068
Ni 2.354932912002427 2.6165489931306265 4.123205671924443 -0.7040567486191422 -0.8246083196526702 -1.2646433697353705
Ni 6.580615819238292 6.837878718206831 10.6350356675851 -2.8865525794750093 1.8401135928316503 -0.12388937715750921
Ni 0.9652234090490488 2.830732949325952 10.657030790522601 1.0229835838338963 0.8926214544678498 -0.7301177073722522
P 7.771271215668034 2.3799244291143697 1.2042611702243027 0.23998985439821893 0.6886558406830399 0.22530936956790878
Ni 4.025344103641756 8.285593680255827 5.852797034872752 -0.14355497390723662 0.21433153040016636 1.4980789679548392
P 2.273451693489525 1.029707808046839 11.09130830943743 -1.2434068289540974 0.9798952372848544 1.4066934769623063
Ni 7.559055895990772 6.451674748517614 8.544349230856605 -0.7506006578169525 0.45653459039962024 -0.8479871035879267
P 6.081931537695399 8.350031867128779 5.4863847940088 1.1164185011562902 -0.4828225775618717 0.35316878711675953
P 6.78831159310648 1.5243716347288978 11.33707085901899 -0.0888508974961373 -0.291718136010446 -0.550824913743774
P 4.2325592714116365 3.6283727088654794 6.995414003291757 -0.05414640413541642 0.6592503909377291 0.8759753612707365
Ni 5.085635095905836 7.373708305693842 12.548379378280961 -0.022406649829974316 -0.5588405849593989 -0.3771024151142215
