# total energy = -340878.04101939686 ev
CRYSTAL
PRIMVEC
9.20532961503116 0.00000000000000 0.00000000000000
0.00000000000000 9.20532961503116 0.00000000000000
0.00000000000000 0.00000000000000 13.47293038057503
PRIMCOORD
 96 1
Ni 3.2339795896080914 0.27533048915283975 2.38414263623683 -0.8455550971076663 -0.2768052234543555 -0.12612083759118925
Ni 4.463305337066824 4.616795003569703 4.5225397922673 -1.3518117373227623 -0.1985218170614194 1.1735522700548047
Ni 7.279390576775001 6.345288956365195 6.122436210453306 -1.7223357278885176 -0.3900564041717282 -0.5089958935231298
Ni 2.2339954249280978 8.94743312979093 13.349073804630967 0.4375842745493625 0.4831167117635229 0.4755543260352327
Ni 2.0356021604162806 5.882260875215213 5.171247657156211 -0.9786150850208503 -1.0330610226745565 0.1880052338008117
Ni 0.6236886994464157 1.1876440148255902 9.590597545167546 0.3876742770927969 0.19985776226402352 0.578983635566177
Ni 2.4823183974350935 3.776385228288019 6.561519388130378 0.41268288332199243 0.6602706046721274 -0.8034460837527582
Ni 7.80221647929974 2.664547103090065 8.807914392090463 2.977879449315465 -2.054349735304533 0.6350082305609128
Ni 7.323916756268489 0.4340533855589741 2.2947367925914803 -0.16635294563835867 0.036864734236833285 -0.9043009476883072
Ni 8.230310334446457 8.666136666495083 10.975937981050816 -0.26014936006522943 1.142421352977955 -0.8224951299644093
Ni 2.633221366307691 6.124637204771457 13.027029949660957 1.1085254715614588 0.9440170353310064 -1.40122216943509
Ni 8.9341682497723 9.203948845682092 4.1382375313083894 -0.5648721358654595 -0.43869293423250905 1.4811222854958428
Ni 6.911867790693232 3.2139395869706453 2.3037902342974648 -0.5937911328926547 -0.6873196383701196 -0.17316868300861146
Ni 5.2588483356581515 5.647865566461297 2.7335226381210154 0.9689040283806734 -0.3013410038121907 -1.876009535397311
Ni 5.57415849199275 5.93879080456595 9.940691880632194 -0.45690482925484543 2.0373578287322265 -0.42619300199328536
Ni 8.54597029330757 1.4219472702830551 0.2692494483892676 1.7850745016786354 -1.6067908660409618 0.6185356868271864
Ni 3.6127696991754985 4.689167305239707 8.538847209228171 0.4673219108231113 -0.5974215305563905 0.6803642900982089
Ni 6.704775489666766 2.434248166028231 13.139569707237479 -1.1457568451090914 1.0570735835390697 -0.8837205524337942
Ni 0.8427506906104408 4.903513406026532 8.197806315469506 -0.07008904350760187 -1.0164049021751143 0.08392749205259094
Ni 5.351794549085017 8.092589397625686 2.52128363728996 -0.37123952857554127 0.7045573424046447 -0.2971120533325076
Ni 5.742174168675642 8.430618307524462 6.496997391581741 -0.8593583215393457 -0.9541009019295698 1.4483198942538413
Ni 6.482531216044421 1.726109772417403 7.09840182902323 0.41101989379727283 -0.797579340559336 -2.0523848982686785
Ni 0.43333629037961857 4.356256558623621 3.081824695903756 0.16679517538209984 -0.2677539118853646 0.5024976873932959
Ni 8.26439767012237 2.048498827249106 5.329164166685433 -1.5546422090618646 0.08451550334557703 0.06304730616947206
P 5.947572689047402 4.571403523089573 0.6657377247323998 0.12126788037426213 -0.27964989199200224 0.26563480865983286
P 6.976526026120616 3.7649890301873494 6.38463345580144 -0.10638582105610711 -0.29997806202639304 0.1999156120851525
P 5.2390016449432535 6.913000046239582 4.519211145067621 0.3247802086717374 0.6835820257045582 0.575784154792273
P 0.873871148541728 4.587724572550386 12.35279110300128 0.0040613145535672 -0.21075229768934026 -0.48335890968131595
P 0.12603016817145923 7.727616487855616 9.330624307461676 0.7353177635159529 0.1678498418988593 -0.8228106043222991
P 0.5084204821630767 0.7347961077301566 11.933297787342005 0.22676461395719655 0.585691643713972 0.7404895375248796
P 3.009378751596592 1.9276052330196287 0.5808553800746666 0.4525516944924722 -1.1571625158428716 -0.23863642569411803
P 7.851916054053791 9.261021889481892 6.2782640306860475 0.09293149532341415 -0.16264901442421018 0.9287724504671102
Ni -0.034509860306623584 8.087867063517734 13.043655695533024 0.13950188688378556 0.5676638396779836 0.3732560447849378
Ni 5.621133289171843 1.1819182997863202 9.033491915577311 -0.840327787270456 0.22943958968619838 1.8008950136506598
Ni 0.3147026045780204 6.5062717611992085 11.32150513539599 -1.3295616676753101 -2.193616366249061 -0.1131359952957471
Ni 2.2666191131904343 6.264245234169481 9.775230682925825 -0.2695583120839551 0.41767982231595163 0.1738888490040876
Ni 6.291686321841609 4.12287383613067 8.451178411286858 -1.775426179955594 1.941084156409457 -0.686162899057857
Ni 2.858972870524832 7.955264289979652 6.146458438695234 0.6651474731484545 0.7577326408760433 -0.5584376930940252
Ni 2.554764341742258 2.2623386349054497 8.461768222510614 0.8115838823685442 -0.6608079652328361 -0.3335368718184449
Ni 5.108111062719166 1.39585936606876 1.3443711957646607 0.5531486767809441 -0.15778114480894762 -0.5288633218710183
Ni 3.156305018062494 7.296668980518907 3.5785313960934064 1.348436393092626 -0.014839893226309929 0.23550302227145892
Ni 4.078485736581857 1.289629861963973 5.5944056145472105 -0.6161548452998357 -0.7780572113660085 -0.4529288753262329
Ni 5.791634404858919 2.7744679443825486 4.798451137720747 0.09143485617322962 -1.169899760903882 -1.1307631999137364
Ni 4.0704310731423705 3.4094515833035373 2.4587831311313932 0.1941368006198463 -0.49866391546950245 -0.2608751824876604
Ni 5.842291333896064 8.439796021180655 10.878448016911115 -1.3878092384632938 0.06384511948041909 -0.18285814238223347
Ni 7.812443600535477 5.396283907259925 1.8544412730001445 0.05958274465963931 0.22257834378999086 0.4677656832287493
Ni 3.5039903187590107 4.7390233705977245 11.284374517739398 -0.8454034020211505 -0.27450202924247563 -0.9210766244847491
Ni 2.067084387802621 3.9256588538134283 0.5413571516333477 1.7212082991522937 -0.5373765015483519 -0.5282238885148064
Ni 6.482070949562165 6.797970246994051 0.5334166342814596 0.4538855828125474 -0.5290440704232566 0.9948526299256351
Ni 5.061421630759073 6.041577515383459 12.415063316984648 0.3109813551154322 -1.281162193326 -1.0653540783803073
Ni 9.05626774218529 3.642861921785425 0.7543804465501683 -1.3269188307358244 -0.16087958122861326 -0.251336903979922
Ni 0.7565188446267317 6.007434947729675 0.7047637197629237 -1.7201603175037536 -0.2117599130182482 0.3357153675270025
Ni 1.7177973597478517 2.224007642263133 2.3173570491284554 -0.9742210697182125 0.5203262309342845 0.2992843783934781
Ni 7.497455630738458 4.856842384725729 12.343467945136693 0.615743725904346 -0.028950621596079175 0.07746039627100854
Ni 7.923487492044668 0.15219263555587997 8.635232533810457 -0.5467918813249808 -0.5824353415602034 -1.246261524794073
Ni 3.381669898434539 0.575882661000368 10.108120257283726 1.283385169119248 -0.18862435544204934 -0.5453939725361898
P 7.211805046520465 6.974206283050044 11.845521287043844 -0.32985248098832226 0.2906313307041704 0.38191217779803904
P 1.7997892308970145 8.727701911161706 4.321981434222948 0.26405383732595816 0.9400300256588003 0.06203352019297703
P 4.9758580917076 1.132964356733525 3.4942317488022097 -0.01044999168873039 0.04054989639790436 -0.4549819012005196
P 6.553752851508784 1.4519566449261754 11.037010740581424 0.2867736475209771 -0.6518273590007806 1.023520944394605
P 2.475847050694568 3.6872316106749463 4.247421946229263 -0.3572630117907912 0.13123141934487723 -0.5562044328881325
P 0.7318411969140702 2.6724913025738113 7.373896173043752 -0.7902365270410197 -0.6411202569959217 0.7601862446228586
P 4.108577959191784 0.4679584557079128 7.569362142728418 -0.690101829100947 -0.014251367712691585 0.656436832748334
P 3.950826225063211 2.779668955632046 10.137248681879807 -0.6752933033332047 0.46959219491452675 0.368715733712423
Ni 8.871884989393358 2.7413931949676003 11.57785515535354 -0.7629244694896281 0.20078053118860903 0.02830218937880287
Ni 0.7503024855173761 0.43740136395090745 6.7031332588580765 -0.6917388504837377 0.6545781822730403 -0.745268961191394
Ni 4.6576942831830115 3.25679039646872 6.8219648592470445 0.6752909893403596 0.29225472524020635 0.5741810719712112
Ni 0.39650300487056445 3.9120625819275734 5.639701359599033 -0.9975859696963981 1.8259113331893393 -0.5653544748185166
Ni 2.0324539376776465 8.638189285692471 8.274494075677147 -0.07291340033027442 -0.6789512118007662 1.5526891991005516
Ni 6.732271809316767 8.97905343712195 13.214667707015405 0.20780349947366147 0.993156987390767 -0.22992141441862338
Ni 0.6319155025502674 9.076850859271797 2.074817785237494 0.6073166781829153 1.7803557560467274 -1.7405319391815703
Ni 0.7872655661744266 6.980456701879087 2.814199067663889 -0.6203136046632155 -1.1437398146790625 1.7568257912455874
Ni 7.325969544779353 4.492099608196788 4.414499599821316 0.9545264195027625 1.055700357340627 -0.6520654431535158
Ni 2.610907647247899 5.366651951132256 2.3489110780860285 0.0623803620094345 -1.0360740984692671 0.5572200186368403
Ni 1.591877655532134 3.6681857836391742 10.358258520796742 -0.42177070455587357 0.6329917143515164 -0.3888886091158722
Ni 6.535581530789298 9.226225743423305 4.535203564260104 -0.43679674565106064 0.6789874643553403 -0.4085693753742512
Ni 2.3381997565109565 1.8542111397590162 11.759981681849448 0.11663372403636041 0.7900424087523426 0.9079930518279137
Ni 1.6950141688761577 8.318304080524245 10.93260941494416 0.6246857655889823 0.6529607012742755 0.17209704721098748
Ni 4.482203878828274 0.8316877254429249 12.479584393000321 0.7204387895215916 0.7836465325283278 -0.5218570657565141
Ni 0.058374677411620154 6.949839775479387 7.090493530325099 1.774786746599382 1.255331091195509 0.08901416254687895
Ni 1.299203404794907 1.784186197148521 4.70994741638062 1.6764824169998287 0.12072203517312112 -0.4654792011874177
Ni 7.896589518821601 6.033283513373197 8.94599893943222 0.4437762622926873 0.8380433621116534 -0.570591811958056
Ni 5.646438740366302 3.9946527995036694 10.87877112398166 1.1895321904228287 -2.7214751581149645 0.44952036386531613
Ni 4.25716118499381 7.708276090271199 8.71528852413525 0.3639167696618829 -0.14714449103070787 -0.4584878574712491
Ni 7.385831803461627 7.181252557428282 3.601879794205311 -0.21438115269117916 -0.12412797553087654 -0.7899017694094203
Ni 4.563164753057182 7.968602812635443 0.03112966326093227 -0.8055343337403547 0.9363680034261809 0.2052038570672853
Ni 4.4227098333318065 3.3197456459117567 13.036421226964917 -0.06013553183931579 0.5413018047446871 0.5276973265873751
Ni 4.498267179059025 5.910060970743502 6.482271625748428 -0.03367219544146459 0.673694334277201 0.411794052959136
P 8.289684710657538 7.626670842967132 1.388048643864868 -0.23207599886778094 -0.026078699364922832 1.7522014050996986
P 6.0694788695378445 6.6330475610719235 7.899664098923074 -0.5993483152654581 -0.13186082539876 0.7504785304167915
P 8.934159044442655 6.256577194575088 4.706687809153281 1.6202215376245708 -1.4635377396448601 0.6000569112967086
P 2.4057852867654925 6.335908725456808 7.571692932194565 0.054661653208938114 -0.029210560125685178 -0.8372373212705903
P 3.8116232301695723 7.359467739357977 10.965820403237856 -0.0998207662440797 -0.049754188604991735 0.3049068667865781
P 8.116790209262728 4.340036767788904 10.125069110226336 -0.27111614348937824 -0.7207743184841393 0.7423476737795409
P 8.60311697974453 2.073951563717887 3.0999996987550986 1.1295930908650353 0.2755842065630609 -0.48628996728518187
P 3.1419354984864474 7.174431408161242 1.3638782098156534 -0.2486693844500879 1.2167483458263044 0.4633446713429182
