# total energy = -381162.94415451225 ev
CRYSTAL
PRIMVEC
9.33087925624482 0.00000000000000 0.00000000000000

0.00000000000000 9.33087925624482 0.00000000000000

0.00000000000000 0.00000000000000 13.65668497124146

PRIMCOORD
 96 1
Ni 3.8120466598124807 7.745767982495897 7.635930472793525 0.015300892023128489 1.6185135537945288 -0.7593408659034276
Ni 2.4058272010220536 5.274316709083407 6.619094195475633 1.9066987369510515 -1.7023240606532812 0.8565157098842281
Ni 2.6095389525403254 2.4266350613136325 6.418928177998079 0.129737351297854 0.2899903546860618 0.24596201282125382
Ni 6.0643342459924146 0.4994418330084983 0.5484522752423624 -1.4366977366338807 0.13285147144680345 1.010256623185531
Ni 8.945289808470605 0.4085012195673396 9.511225351797421 0.8209853781881022 -1.2690816080123821 0.8664373398733143
Ni 0.24565498595624222 3.0989715515870406 9.251871702301239 1.2034912237060822 -0.5576630197115299 0.7090524020615209
Ni 7.37919506796004 1.0300917241027427 2.286634551979621 -1.0424008120182433 1.6574688520118035 0.08129313975353741
Ni 7.432250446264038 3.676702259126674 8.07775132837665 0.0039291598510771035 2.0316175838143398 -0.7122973913613797
Ni 1.7054700809479237 7.920749957405302 9.637495472602707 -1.4803725518140118 0.4950132060907927 -1.6331804117780842
Ni 2.994782956064275 6.819724890730101 11.373983261703666 -0.013532487268796049 0.37732867219241467 -0.00702116851283952
Ni 1.3861953923394277 5.757581597075084 9.0318896969756 0.7484082781513239 -0.7897876124290591 -0.3221913648986387
Ni 5.6412628587814435 7.686694187201733 1.7596778228151553 -0.41995756260653483 -0.47023908446990625 -0.36376044658967677
Ni 2.195425209221692 4.605824540980461 12.01826459792385 0.9515061446191999 -0.428915543130771 -1.7437635587449904
Ni 1.1049906902733713 6.3503163581343856 5.083906125657353 -1.5874970508083563 0.23903057580874318 -0.510055959356528
Ni 3.3825836204491626 1.6138221868744327 13.583703377636882 -1.0411589691913423 -2.0422578371370053 -0.7624573000452224
Ni 7.240622183121371 3.9950345289506637 5.439362230887654 -1.7013601540781151 -1.724395952851656 2.7228571260641554
Ni 0.8982426707107594 3.8337036300980207 13.607588561840641 0.7479763328202279 -3.4754966686880078 0.7813345965656995
Ni 1.427988399624621 7.287929739927785 7.207929582178051 -0.19735273645398269 1.0434292532827578 0.6288409254079363
Ni 1.6281637479812292 5.95517229193359 0.2970970552717141 -0.7202007053688564 1.5393762840417295 -0.49725469382680165
Ni 0.11322555188706775 4.762891228105189 7.177175004814353 0.2807030158468649 1.0041232565942835 0.28317256043328004
Ni 8.34176855122428 8.128716589772434 7.123258386373623 3.5441263540412637 0.5568438662443442 1.5830683256130413
Ni 5.224088587132927 3.414038013741948 9.707458403753494 -0.3628644171379686 0.16460999480532296 -0.7710159882485108
Ni 3.557696227665332 9.03958767219558 9.812190989525138 2.5164934443608145 -0.25226018712513976 -1.21128886537363
Ni 1.0141825753147868 1.360451497028008 13.695879205630316 0.7196823709715412 0.1558060233604478 -0.39020141439002476
P 3.2106435121115307 7.740794623959838 5.468832879293449 0.2650851068039499 -0.5063062625061088 1.516484981265853
Ni 8.699458468900232 5.109141488060302 13.024844372985013 -2.1644618561722915 1.2564281809144298 -1.1459147108431942
P 6.129183855421326 4.853419416692137 0.11578127966010066 0.7876592532321467 -0.6356890586780214 0.6201824784019899
Ni 6.070501957047452 2.237358179692703 6.907919426465515 -0.029708068587394 0.3998067986902727 -0.45194054327103456
P 9.067459007931431 2.924456120630361 1.6333535829113528 0.21551783739878366 -0.8822393399025774 0.8684263452788851
P 8.787887209699914 5.059519873248366 9.415723804674412 -1.0041811064154125 0.8244031456203994 0.26058850448517706
P 1.1952389524886844 2.340156474236345 11.582097321959859 1.1316078073022189 0.1578104553849863 -0.27323833203870357
Ni 1.4782351833332088 8.555893563767395 1.6428990721841266 1.8744406482482947 0.6301912687882437 -3.2929149198956127
Ni 4.268550586675796 1.4784684553095717 8.196742430431504 -0.779290055331845 0.5130556654148003 0.5993164335862582
Ni 2.6575369943967737 3.6244026820260924 8.875793421272544 0.467241178183847 -0.14397714904631978 -0.9031616918775414
Ni 3.4470320020787293 2.029718128092479 10.414096138519222 -1.4434862203106236 -0.6652099509552738 1.3970420699154715
Ni 5.448542882789395 7.051028051612587 11.31930244426837 -2.3980082689380118 -1.9015117934334735 -1.7742429582807704
Ni 5.021655166045125 8.140940041333856 4.248526520224797 -0.2818237597148695 0.424548781521643 -1.245142066477649
Ni 8.491585145323645 2.256374511205814 12.29743516835602 3.6066206159207432 1.3666045793612207 -1.7159539927318899
Ni 6.622320813452686 5.275091172044931 9.696232423163002 0.008127514203140842 1.586884871145654 0.17935861386940724
Ni 2.0679187469416824 -0.008911922584971643 11.452331853860748 -1.3439374767810082 1.0948911686074756 2.0182025959600147
Ni 2.0891371659116595 8.453571144055532 3.8557189061392543 -0.13232928039474628 0.4232686292576388 0.6183423398694576
Ni 1.903611297670647 1.0963316345107772 8.723685163277388 -0.7116250478847035 0.0440558526686338 -0.5548396913301219
Ni 5.043974628743537 2.6991620458589853 0.748679876521676 1.4689391131660894 0.7041549647599034 1.985135895313033
Ni 8.142302349675814 2.133048282742229 4.3025252504012075 -0.40804512743966503 -1.192325694007566 0.04592170223277898
Ni 8.822756704726656 8.369359960588493 4.791597677516418 -0.2047012063992539 -0.16978382569677855 -0.10345887721729925
Ni 6.543876113241339 8.251818877138712 6.130977250375604 -2.6116391737267284 -1.07397755838326 -2.2354824103552273
Ni 3.08955669462103 1.3061084574144861 4.169591015775183 0.9987038853509252 1.0834875547562244 0.026424255629799654
Ni 7.569283736058714 6.7521693263753795 11.740992861379272 1.8569430056841634 -1.7041899102174263 -0.6017129588428927
Ni 4.30489436059315 0.3841970788940325 2.2793275405920266 -0.5035181582380103 0.23354718409666872 -0.3936407790888769
Ni 4.550837670712177 9.254356515393457 11.974262971566452 -0.3013181209940552 -0.027673554655868467 0.6292633576573355
Ni 6.521426018236165 5.593124853739177 4.042160133615515 0.6466517283371122 1.7318776059406817 -0.09434097407643106
Ni 8.401532831568478 1.6578172816164924 7.788721751135471 0.3411622495741866 -1.9932929772025285 -3.164714316957259
Ni 8.077275453544868 4.955732505524945 1.718119953682136 -0.9507528113929433 -0.6358608083691952 0.130221232912808
Ni 3.9938028529154677 5.77844544264099 8.753156744771088 -0.23630186402367045 -0.4564080921240849 1.9063660362019814
Ni 1.344178443956926 4.325067721109021 2.2326768776710506 -1.1026165622761914 1.1144798893726808 -0.266596915462786
Ni 5.228362129739897 6.394582048369026 5.858294440150041 -2.079450129916587 -1.3976383087385738 0.7441932116287119
P 3.9514220002498397 8.449017675076927 0.27641982728689873 0.4551096850276356 0.6519011496615095 0.9607767712878486
Ni 3.1531652971356903 5.773835988388057 4.294125593076329 1.1798082782668455 0.10920015057645065 -0.9160732577328868
P 4.558059771100375 4.304082574115407 7.40036589944684 -0.36418724971445016 -1.7917601412289268 -1.0201443146128883
Ni 6.367951719547427 7.914619569866483 13.144368268233881 0.43579555808005593 0.21247982190340825 1.2117400939784357
P 0.9196952947450053 7.973096188901157 12.922064740199481 -0.6176208883224008 -0.08385010184743623 0.32724666793435897
P 4.252930695138531 5.036976469452647 10.969582030392882 0.0913680074910362 0.5974436420435776 -0.15472924535650126
P 7.293257671867916 0.7626351392356154 5.702813069376676 0.4792909102595294 1.2111664808631526 0.6835493726944099
Ni 3.217259105361185 4.021711512167535 0.946155801567812 0.3130323241071899 1.2366818515254379 -0.5783933102803458
Ni 1.4650879747453904 0.2129157306176494 6.341536000944083 0.13517189204986396 0.06347899439025197 -0.41356451459599747
Ni 4.619876844836567 3.7883089034977826 5.212592944137759 -0.8283680438054185 1.4008807269352712 0.38086291059791827
Ni 4.389628073287242 6.1781523086994445 13.632539332432424 1.0646282559578761 -0.6620544360454275 -1.914375279659703
Ni 5.203747270794075 5.217333030697455 2.296467432327274 -0.9583964439811302 -0.5344881242569633 -1.5187946032356359
Ni 1.1759147019667746 6.572027375348825 2.7832052735030435 -1.2375686250057654 -0.5961493487121862 -0.2913000746364209
Ni 8.945737690665222 8.966321609859492 2.5301742276542036 -0.46088335428661914 -1.4754195786841107 1.2351445889453052
Ni 8.488935175672163 0.1965316400858185 0.15721411501378937 -1.1119123857558204 -1.3384440577666046 -0.5300897380789515
Ni 0.510149949811465 6.542009937430436 11.093079013943164 -0.21113436361910734 -0.13622193058093315 1.3498594986923977
Ni 6.666315908194745 3.3439071267681792 3.07316420629805 -0.605412519181667 0.6683189288979006 -1.5878037834154977
Ni 8.595428498321395 6.995425343326705 0.8426614234467026 0.45715448337180625 1.6621415748971244 -0.4616112335915792
Ni 2.172891136305027 2.156170201039328 1.9795086679001093 -0.06719295290672946 -0.9877658982821826 1.0862772016862197
Ni 6.737062633186113 3.9788641155491815 11.779982872596488 -0.1042237804077818 0.04506115400469659 0.5858916755399199
Ni 8.088416523135963 7.344316242054246 9.254534735183398 -0.13820425111828455 -0.5306625798632861 0.6572693559519583
Ni 5.591221354412054 1.8981060790284803 4.534715777881778 0.8918686354622253 -1.6053461631746353 -0.9527682991610752
Ni 6.932096667183681 8.791600899563614 10.899263592750117 0.26753433967539086 1.3452862774994185 -0.7609143810381347
Ni 6.142890916752416 9.31646284638034 8.065473757716711 0.1870492976454456 -0.07293988269283568 2.009717955527771
Ni 3.2027589193104617 6.827077623425063 1.6683966322885069 0.06302828000607853 0.9432693585317045 2.3447337258845877
Ni 6.654652309376596 1.3548529695952964 12.300111264468857 -2.8769394818652776 -0.5034788203596425 -2.129305105765501
Ni 1.6513509824317103 3.6413102348728814 4.288868575817013 1.2141232494986316 -0.48505455221618404 1.7176432075088548
Ni 8.791274318796704 4.383404376957878 3.9686598662151593 2.0199558312056953 1.1065171828821783 -1.533088908371121
Ni 4.314999702609194 3.287940514199171 12.232838425749485 0.5725785033707816 0.6024146128956077 -0.08365135557306884
Ni 7.200947285381553 5.875290636347849 7.070434413870177 -1.6070382061650774 0.4780436681159896 3.215935577026081
Ni 0.15509413929260252 2.8105074256165676 6.1117351115893745 0.6889371193688845 -0.7977333496386971 -0.37785960499522026
Ni 0.8459608222803806 1.2627385315690793 4.106947226154761 0.07579200742965012 -0.39075548712128183 -0.1708156093954026
P 4.375958335472371 2.9568715944657615 2.939588007193075 -0.41408901964089967 -0.16825710463960702 -0.296412970382954
Ni 7.2615606757197115 2.75743338555446 0.4067330179865081 0.5851707382134954 1.2109381669024308 1.3586380162159764
P 5.493041845000399 1.063804190126722 10.273637483023633 -0.033415085125335996 0.296610945326373 -0.915588090566352
Ni 7.372971371630676 2.177985796268795 9.643408450659557 -1.679549743071243 -1.2186409348633271 3.2131613567150534
P 8.376171502298293 5.879984068512271 5.533565852734178 2.131769251035277 0.9488414533028434 -2.6105806505552267
P 7.056869181900716 7.663516283630306 3.261325114784059 1.2615061096579694 0.48807919797512067 0.7393376833086234
P 5.794317267912727 7.04145456970265 8.410141500584178 0.7881313077725588 1.1456213479724915 -0.2622607499812774
Ni 4.399304194866779 0.656755788428171 5.990819049185571 -0.6098160475660014 -1.8423476243684915 0.9892036591699738
