# total energy = -381170.06195578404 ev
CRYSTAL
PRIMVEC
9.24342782574933 0.00000000000000 0.00000000000000

0.00000000000000 9.24342782574933 0.00000000000000

0.00000000000000 0.00000000000000 13.52869096298498

PRIMCOORD
 96 1
Ni 5.005963171032352 7.077193489388697 6.30964605428459 2.0126415569324694 -2.0532133077072445 0.484864804802881
Ni 6.547221558869761 8.760754447564276 2.255070080011737 0.9460106687222676 -0.2712210444983587 -2.872064413161163
Ni 2.9688965616704786 4.601553963181407 11.854434510942726 -0.29294532354932773 -0.33008696559663153 -0.07003710722374389
Ni 5.797477889970809 7.229441987994737 3.7858149931169187 -1.0287508253349766 -1.9888616809040522 1.5463131203708789
Ni 5.691511234150297 0.5277294749447855 6.7232321372139205 0.25870440008858675 -0.12347157289380026 0.6602803748641403
Ni 5.072774666868941 0.3696132483978105 11.360799419284222 0.300897745627185 -0.48502755563299055 0.1632794489193575
Ni 7.28660334525172 3.188085964101725 9.84936032939491 0.2828473158833774 0.6086184277134744 -0.09539564059319056
Ni 2.7197954270135534 8.23884278605053 1.260941273298117 0.6390258363607381 -2.6721997089186043 -0.30840485263750755
Ni 1.4650740562539593 8.646514923900135 5.678410523988537 -1.1853621182055392 1.5941675208499966 -1.256129161616772
Ni 7.506236432215362 5.415668862988771 0.19254799494643485 0.7329361506576538 -0.5777127392735534 0.7772282877068099
Ni 4.452780993412465 4.598364980604813 0.12658412143527623 0.8294507353466359 -0.7522829306153819 0.45754580527295396
Ni 2.3007168993102747 3.6232480561043494 0.5035690034702865 0.8815939930090947 -0.8070998784552615 1.4308173665937036
Ni 7.248391014899138 5.743995416961608 5.226065824126113 -0.418598220365163 -0.8392576941347288 0.8361574579428502
Ni 6.355337242036368 9.308131752551985 4.448707414799407 -0.8924509903282566 0.46916590601038555 2.0452578003055937
Ni 4.699136830025192 -0.10661092273526199 0.3756630718655814 1.7139480180454547 0.1310781815964646 0.026574922275051007
Ni 7.773038731029325 2.9377369666974373 13.011028576963573 1.4218655567170546 0.4034976172782986 -0.22927529619419224
Ni 4.1506503137064925 0.4555493962662075 8.838645115911897 1.395251810784268 1.0002416621516903 2.190577065202105
Ni 7.411343402849226 6.039554019531469 9.51518823170776 1.378022077169543 -0.8753277003844085 -0.3312473044533198
Ni 1.632611184372137 5.805288586426525 1.8900397230964638 0.7740725156866475 -0.08747098642947516 -1.43035071136993
Ni 0.36905124799010924 2.3348251477381963 9.083826112856551 0.757939871790843 -1.279786653134712 0.17128817815644695
Ni 1.6624766994590239 6.17106026624801 8.416970109351327 -0.6721673561097133 -0.8622824371646763 0.9343615145191134
Ni 2.9401125276313063 1.8382219914265223 3.680764360987248 0.8733525789359088 0.3735779469007308 0.08864880878766024
Ni 4.347849601500876 9.002673438853044 2.8951802252984806 -0.7524320545987365 0.5061951908495412 -0.09263119047417595
Ni 5.361012474654273 4.684818760427671 4.399192220984044 -0.9076068721330884 -0.23599024632052262 0.49562204331938514
P 4.297639301918093 4.763887041471692 7.3445365287265165 -0.11414026819054535 -0.26005551479984246 -0.14071236225211894
Ni 6.399946024397655 3.636530861792946 1.2786341183701724 -0.7675149170737878 -0.4484613264731825 0.25147702910221204
P 5.626751779276037 7.5512888991090446 12.306075785952746 -1.3831840809864564 0.2817414844137084 -0.2128166364175367
Ni 6.305496679563914 4.501327475998764 11.964747426495164 -0.7119340944846899 -0.1264936475495757 -0.9673870775155146
P 8.549662287849252 4.209346079971344 11.35573956692936 -0.679690661069952 -0.08283477320904443 0.37161568096803743
P 6.945335992417341 7.989039150883977 6.1792434728423835 0.3236306684483265 -0.544502571070172 0.05362626996588829
P 2.5739988409827665 2.5260069640619625 9.511643377162473 0.2832008425680542 -0.770242600417596 -0.3362660978241499
Ni 1.7021494913974085 6.890901446349042 11.555368951881388 -0.8690629504216193 0.2066516452574054 0.5633685547367394
Ni 3.526293742348125 6.566900816567062 12.955710359201584 1.2081706314596226 -0.30511281214979713 1.132990289472042
Ni 5.597450113282403 4.795231504999899 9.628923988559077 -2.1713367289152536 0.2696621846516711 0.5773034196502767
Ni 6.179212969530782 7.855037178672711 8.479607273212293 -1.0018162057276618 -0.4532317512786323 -2.096332250383906
Ni 8.920767425487242 4.173823587096411 8.108732296925483 -0.4326492991415904 2.06886438398094 -0.5593715177622044
Ni 3.1913488941003854 8.586349452621723 12.198374138742011 -0.9842766541820016 1.3309876014885593 -0.4435047537988555
Ni 5.13733076633252 2.5706249898510074 7.997553272192096 -0.6287211120006204 0.42325603085214847 0.21333419948390356
Ni 8.173408560949918 1.2585111761404746 5.625270057806391 0.6474117464315883 -0.28416757735669773 -1.2688226979240407
Ni 1.1566670891001392 8.122431056863201 7.76914817228588 -1.0044091632658185 2.588911136001593 0.791822640581217
Ni 9.071222699108183 8.897779020652488 12.602665955060427 1.1097410891361148 0.1052049133741285 -0.01783754240205315
Ni 5.368287052300011 2.1213574270893027 3.600458384966398 -0.995164247628783 0.12572257371150605 -0.8622150742618506
Ni 7.260176385290899 7.686344622084753 0.06392107597658664 -0.7040816883198067 1.3051721830873522 -1.2427475981035436
Ni -0.32333140561228146 1.860378487763034 1.4374371315995849 -0.7947788949960635 0.7941327767716323 0.036448986855653356
Ni 8.452356723838212 7.05079425971115 1.7769260489332772 1.509161451021246 -0.22562972902180495 1.5101024747782767
Ni 0.6783104591832396 4.701272061837346 13.087060391989011 -1.452220514859828 1.5370532923355076 -0.6073115359765928
Ni 2.4496100336400737 1.212331011060286 7.448734916816877 -2.4786056681761055 3.5573850188233838 0.5552510678359276
Ni 3.5950371145861877 3.1975235038428926 5.827713142168026 1.274102201155425 -0.1604715471569172 -0.2502416140332142
Ni 5.320193497673866 2.2604525279953624 12.92550098860209 -0.1719342963808781 1.3713024990575222 0.06475477577888203
Ni 0.8369350742569179 5.175857373228881 10.218234103572062 -0.5376588086754611 -0.8119734044974791 0.32564692754740693
Ni 3.9879474983058767 6.681861327596347 8.38160567909106 0.6616944816028475 -0.866456623147024 -1.1871004410528847
Ni 4.701604825236642 2.654305741346393 10.410679496470381 -1.2884098760273488 0.9676441878316432 1.1102308842883395
Ni 2.883709131450499 1.2888203757597576 1.2797978659249352 -0.6803298373158476 0.2597873487401203 0.7756995097671092
Ni 2.0986370816595383 4.035671315821692 7.520193083787536 -0.22751357630807914 -0.8036003499424352 -0.47173263829629725
Ni 3.456847869600436 8.679412283291725 7.0442536102294175 1.3052068929800296 -1.904602516543655 -0.49323040315875694
Ni 6.951501358732091 0.7972530388907754 12.991791155113114 0.7845093947492554 -1.685077871978324 0.27035432562268924
P 3.7453075196519645 6.612128908588152 2.935036037106478 -0.3440038327880398 0.8372769162592741 -0.2685398981217698
Ni 1.4183762592193092 3.518852783002738 3.066102296661727 -0.4238761809346506 -0.6220922938301932 -1.2830018176379
P 4.162759204069793 0.8763120765070386 5.184951981800218 0.189309554434532 0.11155425263092399 0.006960747588549302
Ni 6.469512061706201 4.526109105818617 7.637730662475818 1.05689823430347 0.3833854199094559 -2.0005712560314963
P 0.8026632171576756 5.617443647523485 5.486425453792579 -1.6638315610050378 -0.8387403881786781 2.30337316065993
P 0.8934336777436345 7.314111786260256 13.774912841647087 0.0886711773851634 -0.5918982867453161 -0.004212752529766938
P 4.724149545539001 2.3114854926486297 1.4700414743312398 -0.4849193121899003 0.31335988264993775 0.37279196066432574
Ni 2.801350190124543 7.993623891052066 9.703994487097656 -1.3654781790662613 0.452539353197298 0.5060640645883155
Ni 2.3120678285973986 6.689080444675536 6.281303856092262 0.9333922086273085 -1.6323188351087372 1.4210034658270754
Ni 7.444712177056488 3.03480220158676 3.4306732552174157 1.4800802173845735 0.31610247839208144 0.8497776198294461
Ni 6.056312354057165 2.8267603730319566 5.7386952354850305 0.8334367165775775 0.06786606771435408 0.14195317663775553
Ni 3.8573748377929187 4.369645604154816 2.5794746475867507 0.45927075838386067 -0.9218523263085091 -1.4461550253920386
Ni 7.785988773318626 0.29161443194541786 8.926460452643544 1.6967360250425423 0.023802758846552554 -1.2267342533944228
Ni 4.490743751215574 6.659233416444165 10.61145876383553 0.6234706622349586 0.07118433345430966 1.73620451545081
Ni 3.058289751520459 1.9963123363757742 12.449155728565387 0.35156030497905905 -0.680000736111203 -0.717568409952332
Ni 3.572057953179192 7.899793855878129 4.93555043574115 -0.22263053718416498 0.9805912349106145 -3.9641579644188445
Ni 0.9965986506106229 0.8501596463506381 4.023987623135271 -1.8926543430428437 -0.08999195307911598 -1.1466143080133802
Ni 6.880761406098247 5.377428802352914 2.8087994685549122 1.5359253493786515 -0.18706960936041978 -0.38901330761919456
Ni 1.3852293272782452 2.7733610908725796 5.372351387485311 0.1577263803116122 -0.5085084123637501 0.34180631091608876
Ni 8.320425279444793 1.3346955077239238 11.03079425883049 0.21825246272112736 -0.08696730732017927 0.1503105474635153
Ni 0.750430455581389 9.137405641857214 1.823829974406936 -1.1193097066611561 -0.006195073067118363 -0.8732998713211024
Ni 1.8044927235366892 0.5976005453693539 10.725275862851118 -0.6048216796752036 0.316995422519996 -0.24551464087119007
Ni 8.314112018285911 7.5438202094803835 4.452982500137595 1.1082907298428333 1.372539713898733 -0.5477902406825081
Ni 8.413062912437917 6.486372073937239 11.649731408494198 0.24270185401274327 -0.34416092719119434 0.5980825611791571
Ni 7.0706029253970675 8.094867155288117 10.442850322440174 -1.482502710783137 0.43868882046745095 3.9331874841792582
Ni 8.63637488364934 3.72990796900673 5.641775122411512 -0.9905501458955392 1.058461465025532 0.7211509850972677
Ni 3.1852112580689114 4.645672843871507 9.5494295854954 0.5625229189069926 -0.14284123566966364 0.017360345655318486
Ni 9.38402029444717 5.3500959864717865 3.656589100028336 -2.1819085908938294 0.2702144576107153 -1.7476222703694484
Ni 1.4891254552809108 7.690587355425786 3.396580720616683 0.27866541659154587 -0.8011827416398782 1.0677698869106513
Ni 5.50960057586805 6.705921970051056 1.4827715230398937 -1.261543133543492 -0.21719085422583242 -1.1757449068307493
Ni 8.302742602143272 6.66994654921597 7.304139976394661 0.5349758625266593 -0.04187401452596659 0.05758036951762987
Ni 1.253196205179484 2.8918895650165455 11.25248863018422 -1.0004504357283865 0.7293695163523181 0.9248278639970653
P 1.1715212775076376 1.4108243787408237 13.421069805347615 -0.5273587123010337 -0.19965618777617872 -0.6737768666886783
Ni 7.502058402868636 2.155724491494455 7.657631762439318 -0.01656921721259082 1.514357907620521 -0.39749563405859284
P 8.636023633394528 3.9703202815709053 1.7085792197460432 0.2094268940096974 1.3681097031518372 -0.058679001898447325
Ni -0.07059760384636647 7.821733108459756 9.740819378943728 1.8318459535062193 -0.7481046308679762 0.43803678870574886
P 0.21032218218276277 1.0105284962422971 7.3898986504501 0.09170662177737754 -0.8723966427805427 -0.5706604604124623
P 7.782272915359812 0.8551991631644328 3.184558672069179 2.963296666405284 1.441061412919215 0.24399049091717978
P 6.15847996106904 1.304312360682575 9.762330684022713 0.1687996074066383 -0.7095555669501845 -0.7179946988564732
Ni 2.6483991910088753 5.262172501635367 4.295778599910359 -0.11019748149271344 -0.13067708950330398 0.5532378940606407
