# total energy = -340863.3670969705 ev
CRYSTAL
PRIMVEC
9.37806202725126 0.00000000000000 0.00000000000000
0.00000000000000 9.37806202725126 0.00000000000000
0.00000000000000 0.00000000000000 13.72574172592177
PRIMCOORD
 96 1
Ni 1.1924112156576063 3.5554765429426993 5.677845466638724 1.4065260981465066 1.4405747030907836 0.6678581872113981
Ni 0.6766618780422514 8.20161232795387 7.755798950508433 -1.6984697199041976 -0.297304628959288 1.4779971096032996
Ni 2.3563506348344183 6.699256160487883 2.932792914631724 1.7086307195975994 0.12163271991284856 0.011998052902140626
Ni 4.4020717193284735 4.444554340559698 3.869204604994939 -1.8892581728771012 -0.6387666691620806 -0.0930569651576849
Ni 1.014856366260085 7.074781900435325 1.124948250458697 -1.2742952910028378 -0.040549125066955974 -0.007119384653600643
Ni 5.9711340423833565 4.916392778088748 12.540029513094913 0.11321415683185017 1.3501099241403072 -0.39221021728993744
Ni 4.791214405418906 2.904479607400115 11.594751802839424 0.9649905522588802 -0.7447462559187045 -0.4739959804091771
Ni 4.405269638498417 0.4365938046126728 0.6202622126814161 0.07581746135094684 -0.40720180560276314 -0.8747641145714549
Ni 6.10720034513034 2.329519999217965 4.271272136246712 -0.6933190504866641 0.7294217097464922 -0.6854064805078066
Ni 1.1080743033546478 9.136717654269068 2.6950355956991374 -0.4236861764110316 0.5851231728050116 0.6872270786563133
Ni 3.653270974333253 8.81243364553739 2.8089180925912736 0.24661918678927852 0.2509252703638001 0.04819070077261378
Ni 1.180913711545138 1.6189629913929293 8.062651955248397 -0.4271304262058902 0.1803466888142894 -0.5096103871786771
Ni 5.969277186091132 1.389031665267728 6.704269672476891 -0.37424900482582646 -0.5825361288041259 -0.1611559748184515
Ni 1.8150676475885437 1.604736471214614 12.305841484590715 -1.5911428750910597 0.2932147751606305 1.7742560709068926
Ni 6.4200993864945355 7.770352765053409 11.03467330356891 -0.2173916573827288 -0.09171819174160334 -0.23345642415507534
Ni 8.608104428895906 6.936080362243315 12.814133387238504 0.4137897432329261 -0.1253037410065326 0.1666697055478291
Ni 2.8618375591134977 3.8126698955401235 12.450400560359112 -0.16792414678022047 -0.13719072225210566 0.3210055721206536
Ni 2.5135269553278667 9.222292470766844 6.703857975551494 0.5745009172044752 0.10304878626307414 0.6028864103257036
Ni 6.386244582378704 8.030200109220024 3.2043159460903645 0.7009236023067992 0.729221677920544 0.8766047673246193
Ni 4.612665481440698 7.2566694145147075 4.849386524513228 -1.023127308500612 -0.228643061926832 -0.6825422715861342
Ni 7.767483078056333 3.6034734646781095 10.949161320087082 -1.455539809041048 -0.7506888466553846 0.16886028544124465
Ni 4.980041685438929 0.39423497380093003 9.82664292551382 0.2855752563375017 0.1214422011685973 1.971403633328605
Ni -0.05296072999538494 1.6088065501581794 0.9433880307459754 1.526130988996049 0.7718803931313352 3.431711296071941
Ni 0.8257571224396854 3.974713430254103 11.456245328338719 -1.1552066776680814 0.05403970335422306 -0.2203584533205366
P 2.3810336942341057 8.66839599002075 1.005624601946615 1.0359807674245125 0.7833225735300058 -0.9412189037605792
P 6.0090870596290005 3.2686297580421564 7.60170050999028 -2.989768744553883 2.677597740005724 0.0647995129738884
P 3.8416949976837524 0.9528486197742446 12.10739418848703 0.6831724489709653 -0.916675152982944 0.04344572988846066
P 0.7731227490047522 9.325319860799125 9.691100856437215 -0.8654549213553869 0.6156100285399592 0.8060639809915796
P 6.096584378853575 0.26429160778725036 4.5771094968632 2.269267477225472 -1.1002611746701374 0.3084683588855913
P 4.1717277584716665 5.793241582750885 1.8930546740558152 -0.8515131144633142 -0.20137342757760157 0.20009558930644247
P 1.3442139065780985 6.220928103998124 11.57624982415795 2.772074725439387 -0.07392230121076303 1.3300442637386836
P 1.833964442683669 2.9581221225088576 0.503829820709199 -0.7762672093451211 -0.5125414447825432 -0.0732314457913255
Ni 3.1763590052178694 6.950897700332793 7.2314067908783555 0.1897399571037313 -0.6653616460417896 -0.39553439656716394
Ni 1.6899174091049476 1.4106199641803723 5.227736936759756 -0.49913931244402415 -0.754984388706945 -1.3123324482812173
Ni 2.7358057827941984 4.0126758255618284 9.656663674666095 -3.3206126429211973 -1.2181773649633474 -0.15991130377807297
Ni 3.3609192669906065 6.85089942435298 10.69497457419313 -0.08789547556140347 0.19595765587866898 -0.6868244439012559
Ni 4.145159708593508 0.3905090697357721 5.0776738763554645 -0.8853699151117591 -1.3304877790340055 0.9038841718658627
Ni 5.936528993300969 8.358207208598238 6.664877122701669 -0.3433751980651054 -0.09398796161238653 -0.0015339201460231647
Ni 6.5678976449060364 2.840024186710887 13.221238813440701 -0.48128454365079054 0.35911703428039443 0.8624955816167468
Ni 1.5541230701583406 6.08091363711464 9.186858400996412 0.06319077372587183 0.14380385669324913 -0.705109872474005
Ni -0.10540285315763817 1.7845795677601308 10.273717652309276 1.1625176095071978 0.8633862117518163 0.2575795424555241
Ni 4.178517475418997 4.715711627597142 8.037025462803266 -0.30099107667193975 0.2604301245304418 -0.5158656240597697
Ni 2.3732592807681705 4.198839735950578 2.242868581193182 -0.5606961501108989 2.5180013963649084 0.14870823597340196
Ni 4.422628431412103 4.180552514890779 0.5148527948803207 0.9995418078711883 -1.5430555326655297 0.7703040497831507
Ni 0.9799324630669105 5.832938919543771 4.491364937441741 1.2536575601478281 -0.4120372793181936 0.7707429370927823
Ni 8.977862660662952 7.290336657388901 3.3374553556615725 -0.39517829877932587 0.9094488104378338 -0.34700559572884115
Ni 7.661370305599091 7.219588557042685 1.209263593218867 0.907443607082347 0.3939557392261344 0.8707979308348551
Ni 9.184958405618609 3.8523297200846818 3.9835944550457074 -0.8502383615159487 0.011205124687200058 0.7139734935122221
Ni 2.7078591577899935 1.3846521102754583 10.246211796222925 -0.2808439123001034 -0.014221285805704541 -1.0601838470332774
Ni 9.735928930995136 9.053609268098846 13.632090775444635 0.08860278604107322 -0.3767460602160673 0.009338760902422626
Ni 5.1628388715402584 7.224971564677722 8.892784881455519 0.3022869126652278 -0.07514460365363833 -0.4154663596044006
Ni 0.9454962191019974 5.114841949804849 13.729996805773963 -0.25344777967533766 -1.2846031006867489 -0.488663609723681
Ni 8.034804737702261 5.992703585171838 4.954676840925884 -1.4059681687605077 -1.9385745026137255 0.6981923194185653
Ni 8.587256996887735 8.892034636488964 11.2109658658102 0.6450908116078954 0.167359275415686 0.1621201385039337
Ni 1.2807900727178843 2.278709658857971 2.9276865598281034 0.142477938792974 -0.6043030881675722 0.11547955582725919
Ni 6.335771852253659 5.562072352430867 10.259182593888466 -0.4351602384889021 -1.079505944400657 -0.28698242109767347
P 3.3426132898066436 5.408844196073919 5.645150728802427 0.2792950797557448 -0.17843661627577012 -0.0003560977878380964
P 7.804263837541733 7.773663220968336 5.939773802781323 0.9965685841754772 0.21655553463467866 0.15663571835059475
P 3.7986215585413654 2.0560369527841975 3.9586000439849 -1.50006797336041 1.7737714179609902 -0.05020978808517159
P 2.472807409768049 8.141686511250223 4.720886442253961 -0.007007284555768577 0.3221072898252646 -0.39828933360448177
P -0.2667374063782224 2.1127273380695732 6.212009566958192 0.4773931790161842 -1.3696868178309702 -0.216446262750324
P 1.3668994387543307 4.404997674698041 7.57327372820748 0.7393451395077911 -0.5015504929886782 2.7670672449224667
P 7.601969660372032 6.731441669553128 8.893964641665429 -0.680718331003518 1.9152581964852884 0.6643406609764428
P 8.320394862283823 4.7353492895967415 12.652251155192335 -0.3465155434663 -0.47926211390412293 0.2837757412349177
Ni 4.15056147235271 8.033379272265805 12.509558313778246 1.3006197878299794 2.512444213992105 0.26900629623522704
Ni 6.241194096157214 0.4907858741594175 12.430045476610243 -2.6384154133793074 2.0032922545070853 -3.8961512573615673
Ni 8.381070923954026 1.3936644279362103 3.7951948146566217 0.5237807651417883 0.5385340121915629 0.9639052896145014
Ni 3.583535704691888 2.2537827698441535 6.405515562150899 0.10771533850080803 1.003815752656194 0.6095602228014534
Ni 4.445792244754515 2.689543802543949 9.17381914347767 1.718645166410808 -1.1278416553915673 -1.167172591780706
Ni 8.225170019903723 0.304026456828464 6.971579140642112 0.12563952707939652 0.6133669981420533 -0.6076915450238308
Ni 7.514134730912508 2.348904453541352 8.557396309412605 1.6582597233442153 -0.7538942409665597 0.792094663295681
Ni 5.347549182306307 7.452305167606225 1.2402018200272134 -1.0632953960790656 0.48335813835036756 -1.7062794457566035
Ni 8.241225262188019 3.4638997667124776 2.0701987643341475 -1.496224431244604 -0.13044286200531086 -1.5873831509383114
Ni 7.046347616202858 0.5708810889827107 0.6333483605105664 1.3011121540853656 -0.07838933584318113 3.810014673472799
Ni 2.473951533342046 8.503914159165463 8.994025750661189 2.8672901317009716 -0.6402702502908005 1.5277831798874912
Ni 3.606980859896758 6.007136422715956 13.127368163225233 -0.7188259365085169 -0.4462306373704508 0.2650329134097758
Ni 1.7659453584033002 8.387082261748555 11.911980695466854 0.045045984496045 0.25484440291254823 -0.9937126027839209
Ni 8.964358251264946 6.263073114994398 10.652616681187597 -2.9996165838822404 -0.26646141832618625 -1.8571312104355693
Ni 5.511374548815856 5.735763440250627 6.546863589462435 1.3144458950797944 0.05424050651111949 -1.2293310675873215
Ni 8.509025203000125 1.8600260772094024 12.80356431127215 0.2710274404303139 -0.2136483882902127 -3.644997415926729
Ni 6.1597081147271675 5.736813783203805 2.8325676895495295 0.6400720182370655 0.3349188397676361 -0.9507870070649883
Ni 0.4387685772094765 6.0812324912254265 6.784469921595503 -0.742687830727779 0.35306902831410164 -0.19082753374095524
Ni 3.554107345878735 2.2904978828949796 1.837314286459341 0.7728723247309592 -0.7649926648725665 0.11953032885786512
Ni 7.517904711869451 3.5136410079951297 6.022676809391951 0.0750733840960707 -0.07313451520214502 -0.4530129503996069
Ni 7.5978526911180575 4.984749472604067 7.791883857787353 -1.155069894979901 -0.07838239386464566 -0.6145471344930835
Ni 0.43733560932335486 8.581611403514403 5.589286550786472 0.3093839287213252 -0.6301089934870826 -2.5588066033067287
Ni 7.140428335008962 9.232870924795282 8.906633465731932 -0.3276102219213648 -1.1678567623319243 1.0311131549195662
Ni 9.121590840130885 4.245758180546564 9.198662567738959 2.2040013090278103 -0.5464283273379751 -0.32721272937262996
P 4.0913952786777 4.887752176490479 10.855935880542855 2.724197442142134 0.4925842849343258 1.2163086871857247
P 6.707114976512555 8.028671485100666 13.130923386560502 -0.22572074607371448 -2.0568879283453545 1.2388320650992213
P 5.8671594680808 2.528288025044853 1.4653325161726651 -0.1950163750113222 -0.5040943424564543 0.3651331585674873
P 4.344640467138624 9.090427539832573 8.004990002731331 -0.1258722119154929 0.23479674023305372 -1.5093622541781426
P 7.23949818284266 1.268045286348517 10.665093254981421 -0.6443369641610065 0.4976961522395945 -0.5507079285499354
P 8.231856578168152 9.153213665471215 2.461410250919857 -0.09276437361793057 -0.08923450608780116 -1.441975440093052
P 6.383243602512479 4.473119917661311 4.452424410258868 1.5061956835247026 0.6798757804975646 1.013611398590377
P 0.02607288820023183 5.400160110586035 2.3809080282022075 0.44396678103693865 -0.5768581045827421 -0.6610151961476358
