# total energy = -340861.4740642614 ev
CRYSTAL
PRIMVEC
9.33609051045237 0.00000000000000 0.00000000000000

0.00000000000000 9.33609051045237 0.00000000000000

0.00000000000000 0.00000000000000 13.66431216853725

PRIMCOORD
 96 1
Ni 2.2673815847011376 1.7674806246793047 10.678905874355202 0.8411849930644287 1.1791048244419176 0.399817340213234
Ni 2.4021853938664237 9.03156579527203 6.547746560629906 0.6594874466491997 -2.9445492105944515 2.322276682432652
Ni 8.292782290398602 7.010563636006996 3.2408333232233613 -0.05548260644833671 -2.7493690563117554 -0.46120551351272826
Ni 0.5944540826815233 3.6657692118362615 1.2964319184038804 1.849810765514756 -0.7245489550352231 -2.448305217420351
Ni 4.783924749775095 7.848048288501132 1.7121932309888892 -1.1584303268117018 0.8465447147144453 2.673456464143841
Ni 4.555330576535118 3.1055664439746486 12.375521838525593 -0.8634690012736096 0.2173713456677547 -2.191438898981768
Ni 1.39198306912644 8.477842274142233 0.8909580438214504 -0.7822270264729818 0.7851393150237704 -0.5871499734270533
Ni 5.931404947634157 0.33770786247451207 2.538419492079713 -0.30904402888340327 0.7249546751140741 0.7974446147536848
Ni 4.267666959387061 3.715819992425991 0.8126329134805563 0.2214138911682445 2.6864181665108315 1.5434987908505353
Ni 4.097077915750513 0.24712444544935877 9.921205583130178 1.3228017232436575 3.8689176184565945 3.2859726842498245
Ni 7.200095607048237 5.164883918207085 7.022677213290185 -0.6718215427345203 -0.6419466095519589 0.4784455315400986
Ni 0.10769833793115806 5.350961535803409 10.12499563141757 0.6524408242150634 -1.8636623266858678 1.7723513976850118
Ni 6.316154568765164 4.1667531583435276 12.933626786876198 2.701782564782044 0.8423869837923298 2.0919320644336814
Ni 8.865775502096799 6.586378369061586 8.444012016998988 -1.6277620689759904 1.2420906812458352 -0.626650859735153
Ni 0.08285406778989185 5.6780981431274355 6.347892608051637 1.7349619012929605 0.2832365809019961 0.0732818394132867
Ni 5.225260414769998 8.435082980148398 12.412606656779374 0.568972274076762 -0.6006269248675655 -0.19442167885011677
Ni 6.475344246033486 5.938957844761015 1.869687474242084 -0.24731724129756763 -0.6258371055846059 0.3466659530012352
Ni 8.968537849037883 0.5655346090842942 5.483966280350221 -0.1544662215031017 -1.4287139470974555 -4.048200384782744
Ni 2.092273873315023 9.079571972065985 9.34026735850867 -2.4774833816462043 -0.9446004186383022 -1.4095592285458756
Ni 0.23443389777996523 8.660101430768366 7.436828983891671 0.4506223386802433 -1.0690878343911263 0.6974582694660182
Ni 5.5933264423710956 1.6797213749976305 8.42911815199716 0.1405940915066998 -1.0151052095270838 -0.23761749751130043
Ni 1.843317686930819 5.242616206808108 13.546047241907447 0.7064291055060608 -2.0552971868194665 -1.1125536188842453
Ni 2.1218599437662173 6.977728606099501 10.70523645008682 -0.4854157922103447 -1.1260745361888156 -0.737409098827343
Ni 8.268517791470659 6.812302420449547 13.077046873863955 -2.2990837892559566 -1.0616568320343782 0.5532247814345183
P 3.725828281325858 7.565743587237892 9.391959423789256 -0.5653513894947231 -1.90989796061464 0.6988168403764417
P 2.1750476507275467 4.916711963415781 2.0081893088115095 1.2077723675799392 -0.0747504535390132 -0.5187149205831066
P 1.180819376647706 2.1873152735021972 4.0789341576833476 -0.8243568657634965 0.6999098163303042 -0.7162113817038052
P 6.918397751660455 6.697785935705354 11.31808169723089 -0.6534278707186811 0.12058242427146332 -0.23152089769525935
P 8.65452778480454 4.964960878559919 4.5132406802223635 -1.0518069358234918 1.049527909981328 -0.7676185325311877
P 0.9544005124689873 7.071985774693776 12.905328163290015 0.13433525508118155 0.3847043958311955 -1.6195972737770106
P 8.376489676850293 8.456565324139623 1.497772176572502 -0.7819130947769889 -1.3246922553981508 -0.2832957162747057
P 5.401105677297055 7.654091010614241 5.545224103846107 1.7197355712615094 -1.7433951196619781 1.6477256565821106
Ni 1.5213999541357341 9.066109329721199 11.907382258016213 0.2712524119569264 -0.39153658826168053 -0.33081227379843026
Ni 1.5313522264932515 4.299036223103064 4.08433135153877 -1.1732401381310245 0.14189481259599432 -0.39101491143025563
Ni 5.5560941138891256 1.6632338393659458 4.546991580597281 1.7254984418872155 -0.08823897494375126 -0.7894885931314016
Ni 7.474427287116993 0.008797397976068226 8.154027447779562 -1.0510392044195318 -0.536524952181334 1.380403690027842
Ni 5.094060336495896 4.149612096384426 3.329295580511528 0.8740352068252302 -1.1998430854305338 0.6382506487576104
Ni 4.886836474162446 3.720385340627516 6.389801384210793 0.21535894322341623 -0.4399363197213068 -1.1602162150675308
Ni 4.370279928881878 3.1835974874682047 9.920167409878623 0.02642528407106417 0.04807500113035591 -0.48697542338798067
Ni 1.7531870702896617 6.609569217594488 3.1593806026012587 -0.7888141927721963 0.8333788667564487 1.6500525049430743
Ni 3.66861671940572 2.5276717848208254 4.377648905028021 -3.419973438809723 -0.3888973508666206 -1.002110597039629
Ni 2.544467411435435 4.718189337327365 6.8715912624818305 -0.9374000442351211 -0.5334684247431973 0.4781141163426088
Ni 7.78588859867341 2.172461553689055 13.343733229510974 0.1478775125419905 0.7826659137826134 0.2612009412581954
Ni 2.0929834161847896 0.4824704792605899 4.5951854128081076 0.735267884114624 -0.7552798084601766 -1.5967116274280888
Ni 4.947483717346718 5.379417939317212 11.719539185726825 -1.5909364155072085 2.1536897052574524 -0.07295813752528081
Ni 9.430011461007613 2.268604612542446 11.415904318745742 -0.2524411927876943 -0.9324645546067166 0.128565699587256
Ni 0.29552647247591946 6.389620264057195 1.3293323009441165 -0.6651197052343125 -0.9098527307444717 -0.09662077124954327
Ni 3.0463196143491267 6.96466741564156 5.643238115213989 0.3061021726462599 -1.0120265706017604 -0.2795215939442541
Ni 6.39519391002102 2.693854193792506 1.9628924654492175 -0.5734984440818897 0.7488047422587942 -1.8010978736900853
Ni 4.14722205724416 5.687200831259312 8.474756696267788 1.7034044382016533 0.004639555654540397 -0.4495895265403547
Ni 8.857541070371349 4.225449158635941 12.589845797601907 0.466589403532461 1.4489621558235304 -0.00333754901366522
Ni 4.522990359418382 8.765020414589925 7.932433475115257 1.3355505382688935 -0.5035040171706231 -3.242387857680339
Ni 3.64761985211486 9.328612183263713 0.3093541559550181 -0.2278002543105625 -0.07344716134655738 0.779701946058283
Ni 9.015115604001913 1.169055902754205 1.726458777107357 -0.2034845603833334 1.064910305974669 -0.5777770168525856
Ni 2.45686687529042 4.5545556810326095 9.468056029353658 -1.289513907724805 -0.6318074642354279 0.10910039177379276
Ni 6.4381492619130825 4.950919398610851 9.934801731567562 -0.29033693939220323 0.8016398837819548 0.04658684662060363
P 2.6558282976272447 1.9825561390321471 8.541342626550199 0.6845235636822212 -0.3861578404482704 -0.16059624566023956
P 5.850349010853701 3.7431934094543595 8.216856535288366 0.5713878254967901 1.2099752887685291 0.8903313728820924
P 1.5952484291338236 4.141471025562892 11.403729123265968 -0.4281020460905401 -0.33877472317861657 0.9489756648878624
P 0.495774408068716 4.309436627799381 8.264312816358252 0.26999282851821244 0.901305355395093 -1.138612520754826
P 4.189972015147605 1.1328785524864935 12.218627905884583 0.3045553969844303 -2.4901879736970662 -1.6407579670150259
P 7.525178274486097 1.7031642979711075 3.405679737659994 -0.056099414096729194 -1.5606776166226672 1.7821748115333373
P 5.354845349406342 6.735811831870616 0.22278712501636008 -0.1491473803933496 -1.7840722856663664 -3.78257097543955
P 7.839711159781373 4.512645971264415 0.9282949365158067 0.45275712563505893 -0.30046117231039865 -0.38766527823173236
Ni 9.224794858108371 3.199506185495606 5.70877186810926 0.8699944610969532 -0.14022436687210688 0.5436919022434185
Ni 8.100281442612811 3.419007006694099 9.57552656667926 1.1552683841439524 -1.082351384269252 -2.5070662375096435
Ni 6.6185225282800975 5.896609338744412 4.585606584066256 -0.9004455784979588 0.16568754414021789 0.11099375214176367
Ni 6.608925027357463 0.9160553220123306 10.91901518148426 -0.9252060732720906 1.104313747472956 0.7098990663325322
Ni 1.2473483567787282 1.5629175481074793 6.844877907044153 1.8715964939312801 1.6918671269860153 0.47951716733772254
Ni 6.469117073742242 7.047599906590741 8.575270912642559 1.1032642231625192 -2.3567230370359797 -3.405249245225671
Ni 1.8261299445197592 6.652207142413233 8.098810074767083 0.658246375153247 0.8221937966739066 0.2307040582209188
Ni 6.1871391356427115 0.6761243342097517 0.39305500714343417 -0.29861383468901476 -0.5310107072313243 -1.6255555482429747
Ni 5.821127047927781 8.196704584177953 10.067346206858064 0.36512338837547437 0.7338884872685942 2.540644587685721
Ni 6.230645316867881 0.3811150811415307 6.186790899471101 -0.06821933728871477 -0.9721053089267905 1.1136645925602369
Ni 4.4132352807739395 8.84421846938244 4.319795020088937 -1.7237984284769732 1.115264332947189 -1.379271890416244
Ni 0.2523871996031417 8.795773496340077 3.295873310518397 1.8941584383921957 0.33168439199073846 0.8075356804410997
Ni 7.197528182190528 8.59987431165172 4.23202830153495 -1.279462437026074 1.5398665934145868 0.06054279458006347
Ni 7.676562980186985 7.509502978718487 6.252502038083814 -0.06584055264389306 0.057808683478352045 0.8443621052408297
Ni 4.120511502633599 6.0891101865302035 3.2959414639782567 -0.5237378277189948 1.4347568108574256 0.39345565966126433
Ni 2.1354066109245267 1.2012654146054578 2.1144564240856245 -0.9640006775417849 -0.150913728265153 0.821650779686243
Ni 0.18825852831181725 1.155210480703362 8.963009949916977 0.42926521316070587 1.5509007397415615 1.399648654300383
Ni 8.541038270003432 9.25048777886624 13.011799738943708 -1.118359684043061 -0.5243780324061549 -0.31870289212940595
Ni 3.0232314628105335 7.136684881108032 12.819461339130733 2.648039052512001 0.43849958727478033 0.9530652615762036
Ni 9.001008771420102 7.48208288123816 10.822203658558825 -0.02598356854795525 0.13247480483367507 0.40013487145365284
Ni 3.909739925951315 1.3212528483191677 6.529368466693908 0.5809520721464576 1.1482803828618935 0.26824730658201545
Ni 8.547610877639165 3.500763150253931 2.833199077324299 -1.3785951760641935 0.004009121159393095 2.5334439561722237
Ni 7.032186021354097 3.4352237957044256 5.068339407466852 -0.5394009881775484 0.274790764127488 -0.7916580899788948
Ni 2.8587668944709193 2.1415871027638103 -0.004582153164230379 -2.3759060377223338 0.7271755940247928 -0.46394553815171063
P 7.182469068388769 3.058447195767903 11.340149414089675 -0.5538608723566203 -0.17470774536095718 1.3514448409016466
P 2.6867494290044474 8.430470951494913 2.604964343564401 1.5177198821142184 0.36583481262020223 0.7004289220585679
P 0.7614646028709446 7.800004767345611 5.51639238949856 0.18654767541867875 -0.28848754488829026 -0.6600091234806246
P 8.463324653583191 1.5595192112049123 7.079903712954949 -1.820134578606562 1.8197717959505044 2.4144111357760676
P 3.4221532691560914 4.4953088514070885 4.968234111851237 1.5861220248377006 2.5438278705097095 -0.1026276395652555
P 4.063636039967561 2.055050880923445 2.054333869181365 2.042301288780431 -0.1496222631472391 0.6302504041609532
P 0.8490847448057827 1.1857394962841148 13.289786498400803 0.49181809619226263 1.9969863668937156 1.301083100619643
P 8.541299680534399 0.16581830144640536 10.575548818456168 0.2640317258387711 0.4607820528220645 -0.2482685494672434
