# total energy = -340892.2252673922 ev
CRYSTAL
PRIMVEC
9.10660906542615 0.00000000000000 0.00000000000000

0.00000000000000 9.10660906542615 0.00000000000000

0.00000000000000 0.00000000000000 13.32844287740528

PRIMCOORD
 96 1
Ni 6.489396886831009 2.029899570535318 11.59973079846263 -0.1393195956696504 -0.5026707226360505 -0.0010487529794885164
Ni 4.613690419731717 0.3390080902652714 5.960093452445693 0.012824405458177915 0.8922270472429086 0.12638874654059523
Ni 2.779619368939389 1.6772552439668864 4.849767419232339 0.19097511506241305 -1.6322728123621504 0.14441500791468675
Ni 3.382076193349604 4.140183178634409 4.68705326176341 -0.004283714977018429 1.4400864506004556 -0.33729788152277396
Ni 5.050844077736856 4.604893435446388 2.5625132572888702 -0.38417037770459644 -0.15908443700140346 0.03611525766531845
Ni 7.265726196706853 5.98104775973404 2.4997896665413912 0.4261089269199113 0.850043214786007 -0.4473035587196555
Ni 5.227047855104188 4.169752338028266 11.793126032283219 0.037048825223181356 1.110618092424429 -0.5077993021118674
Ni 5.658391496573053 7.800866967455415 12.499373611346837 -0.3292333593470846 -0.420445815096863 -0.11768170568490055
Ni 1.9243084392843892 6.410105642346158 0.554048822996626 -1.0958365632398805 1.0579287324505133 -1.6205645227862864
Ni 2.6036341501878413 1.650673052322086 0.3865154480496479 0.5754038886347187 -1.1590152527808941 0.3410655760953223
Ni 0.7720118665532001 9.094415241585486 4.550796535396106 0.5271118863975502 0.6211432996533625 0.4375871027628399
Ni 8.800900127195776 2.1671361680300567 1.4878805780158353 0.11968742326101968 1.0291282632790535 -0.8134343053137217
Ni 6.830066022576243 1.0316330929392157 4.9373748190477915 -0.017067497005248025 -0.9459631033137837 -0.5352823380234846
Ni 0.7083621336713336 7.332441214175098 2.496897407525842 -0.45445379661119156 0.40154974952330846 0.09783150372819281
Ni 7.914371741919544 3.8227723222522507 3.511191516946147 -1.0965677849789501 -0.19043184096443333 0.9828106111594364
Ni 7.671443840474976 3.9376066616290695 12.80811406530864 -0.3169388582504477 -0.9316490006839567 -1.6419437597930109
Ni 8.144432004859794 9.057624541261747 7.005535807258899 -0.002785533164937138 -0.04394118146764045 -0.06201937912558997
Ni 6.853870698478781 0.5457399529532152 0.24075415387841115 0.23144505015200137 0.37043683016858786 0.5224689883089002
Ni 1.780205458610418 6.656284603200524 9.461967997733122 0.1865715866780787 -0.22804193800772338 -0.18963737008759599
Ni -0.061819304474670496 4.636174637330556 1.1199799494047404 1.3580356067452868 1.450792781274366 1.2927272724557801
Ni 6.38069129530515 2.2113123282455165 7.13440889505628 0.760893040881896 0.12893491000121668 0.3633377572299613
Ni 3.3748819722466945 4.637877573211878 0.6277094511423256 0.8527616421584346 -0.9849479692174133 -0.5717076707300541
Ni 6.043100193398882 5.61392392486988 4.579280186998232 0.5013370914262915 -0.37968688801194606 0.4774741687657648
Ni 5.232338794927973 2.7704125872494636 9.553694316795218 -1.0575451238588498 -0.5068963306816238 -0.4600091792117819
P 0.29475543453428715 5.638648368280512 12.290636473359069 -0.4959287759265265 -0.025129448077776072 1.3037809591667804
P 4.1107415117664265 6.061914447574337 12.384788793056371 0.02212614247507802 -0.1765427416871669 1.1174834520856947
P 2.2842926926995863 8.507612678030842 1.4051506779759744 0.6465861652064993 0.04571215732513418 -0.05407235636437138
P 6.518246624114575 8.079201364657086 5.751956439990434 -0.668447741166281 -0.42147991278833224 0.9117844005495458
P 4.821393957599003 0.8361998000264361 12.803981486148514 -0.2725945278071176 1.5192615155697253 -0.6891366369742002
P 4.105140947236946 6.091875191154808 8.289345473733967 0.37285186736798365 0.5150292442014033 -1.4168704174953082
P 4.7605618095389595 1.1646715436890922 3.6624832547576327 0.8850356717007919 -0.028649545415892593 1.8082121161373632
P 0.10620491669692375 5.595355549137182 3.673372027128201 0.054527441623918996 0.15052060659179237 -0.12224052870017656
Ni 1.5272420740577404 1.111707505797294 2.6075099229744216 -0.22672424763756438 -0.5782835241753589 -0.16065486681231686
Ni 1.5808162547519373 6.5798073008939 5.011854131341785 0.8925636046467209 0.596966702407159 -0.8020656584654638
Ni 6.103677356407177 5.714069303944177 9.411986374285885 -1.0769721222352098 0.09392188426114148 -1.7061038394106873
Ni 8.705672316976633 2.3062578335859376 10.373220826419987 0.3638046695640509 0.988624389627736 0.02644508156540607
Ni 2.452755852424548 5.468500485892211 6.9536754903768125 -0.06547108511961629 -0.9792717447682425 0.6707139114926385
Ni 0.5099892273762513 0.1617561422030721 9.404442459397721 -0.3933872683171741 -0.7915061377820627 -0.6798063607122099
Ni 1.3867544171532058 0.8796701980450914 11.509630009105434 0.5518057895998045 1.721651043116667 0.5309055491120277
Ni 4.094595494025341 6.965982161767283 1.6657353835932405 0.11046873287622909 -0.1285466734238625 -0.25606876223795255
Ni 5.753464494439348 7.976251150013555 7.919014291183168 -0.09707817050193604 -0.35920573733945876 0.3421683222411978
Ni 5.312267502042195 2.9539107584186066 5.090572570121099 -0.34593935924785585 -0.6151464586399794 -1.1281334756003731
Ni 1.0732320828102155 7.6233973714383305 7.445467891667199 -1.0405349624540983 0.2595361519612627 -1.4551307465280876
Ni 5.118078171917589 4.951117602676146 6.609840897346298 -0.40526730758421176 -0.7208874470232359 1.5390055309658721
Ni 8.166524638272021 7.260489896537014 9.014931847650924 -0.0668427686561623 0.305876429788699 0.4796408373997804
Ni 4.650253454830681 0.12305942861751183 10.665659539626956 0.45360481834733485 0.8152420479464217 -1.0884037611109192
Ni 8.313468880951191 7.541783941660769 4.727265315085077 -1.0760316126988114 -1.5619636824239422 -0.5770298542739158
Ni 7.4061318941304695 6.1952078833759625 6.793574019027409 -0.40760006948244637 0.19205060751477893 0.22587732625623677
Ni 2.2978342202692397 5.359612762186531 2.711231467399493 -0.7745214302986081 -0.5971507933935071 0.11769790363481666
Ni 2.3163843827839568 4.9461818206030115 11.472709994934023 1.1320675205474569 2.0897455983053237 0.8203536581413742
Ni 1.061885248007399 3.3483544202558404 3.8876131995901435 0.7460922284236376 -0.08651247917094777 -0.27780923923883766
Ni 3.4169636123942184 2.497114144819828 2.641870980019355 0.8041703635132924 1.7207012776088881 -0.28704284202196373
Ni 1.1550276447675973 3.404742543128264 8.416911763141139 0.10146961470141234 0.07136508200654806 -0.5430103027953616
Ni 3.6048238492700624 2.7486113653249507 7.2785555874534085 0.4583708722774106 0.2330735868943599 0.05589783960888438
Ni 4.252331068358875 7.125520844681041 5.854305618440558 -0.20368844886402343 -0.6625609433682009 -0.06846127809619178
Ni 0.6956493075198635 7.710875457406111 11.653470719440465 1.7018149822273465 -2.107839479692557 -0.16823525026273609
P 0.25200810126951917 5.668053608712531 8.013166610880472 0.45457900933514617 -0.1945198949908779 0.03709253397692321
P 8.445205086615351 1.8393346707891398 8.203763383758119 0.8901722215964089 -0.2978695003238225 -0.7023911879912613
P 1.9701237891182333 3.048464679572414 10.53264203407776 -1.1362123959537658 -0.4355687867812305 -1.2956963823864331
P 3.9230725136793945 6.223392838203184 3.851387109023848 0.5358569795800319 -0.4573612000659736 0.06155169546055206
P 6.8864905718846305 3.820040339554944 10.280867972659312 0.602983083804568 0.8684104044392851 1.7891813247581572
P 6.526488105251451 7.915582920915351 10.365623182538776 -0.8667756970493394 -0.7329261233553248 -0.7103132710518154
P 2.368565252302527 8.500154365267193 5.853345781852905 0.7739179923866543 0.992357117197291 0.8236534119385684
P 6.900651348865673 3.794796819431824 1.563239588738361 -0.40108746517490923 0.651947943739045 -0.5271424825251695
Ni 5.051472433757236 2.8680809686782007 0.6702591709919882 0.572609356608717 -0.7243530369743332 -0.23488338640958903
Ni 1.4245741642929304 1.1243201592498628 7.371201674023596 -0.2734756448604903 0.0029649961655948934 -1.9453956393006175
Ni 6.801179858856713 0.8004918755117301 9.20455603468833 0.27796247698725035 -0.7021428194258811 0.9093580504962404
Ni 2.686923196019751 1.3805892428662823 9.285059368829886 1.2754869973180938 0.323941514820526 1.0488396256650518
Ni 6.705287266181226 1.7961420243447108 2.553569656598785 -1.9798805604513645 0.9562724556595918 0.1729856204635279
Ni 4.013774339229998 6.834182209840186 10.310630192163776 0.9756709147908615 0.06647792911757583 0.7497303393968572
Ni 8.116665954046162 7.296351722743669 13.37429289148131 -0.5277716314687363 -0.8804501092126384 0.7730242769277912
Ni 7.747875609736644 4.117662534599606 8.378312490271782 0.45584219231828593 -0.42281508665998796 -1.3535500601701076
Ni 3.1731068368325657 8.417120304487032 12.523764752868397 -0.04737926061491195 -0.6627486338989746 1.2682907366799707
Ni 0.2909825664293057 4.982753962310966 10.189407566579753 -1.3928372878055044 -0.8472751651225665 0.05388415161296526
Ni 8.678070185124838 2.3762785501179247 5.91421617767071 0.7378289599735809 0.07533152285346381 0.11591278670993585
Ni 3.667531958782257 2.471788665215789 11.669038467510621 0.40802173040089734 -0.5879614135847551 0.013762858112047265
Ni 1.2001053592731685 3.2646737902373166 12.580956989314727 -1.5802725080354592 -0.1918192082302632 0.7390782589996497
Ni 3.20416948010095 8.395546747787295 8.080114757538887 1.1811773907002303 -0.3116056189629924 0.08417226107354536
Ni 5.698424149697597 7.760151318656545 3.617005760117356 -0.20319633971895326 0.9312175695734929 0.49847802471094144
Ni 3.230970230361535 8.434650526794755 3.6039314015889423 -0.43102410483334147 0.10056458638863972 0.42918190941828016
Ni 3.4909457038373017 4.368749957700132 9.474110750161755 0.0865235349145413 0.010245331877092033 -0.6088192308703708
Ni 7.177219063923086 6.006482518645972 11.402202985481916 1.1993103528555151 -0.20605566354461932 0.6676350154569985
Ni 0.4214383828693276 9.1451299470565 0.34377540007207275 0.5141337289703274 0.21641309551954344 0.5337527887528356
Ni 4.651355354518594 0.39981747180283733 1.6316675593578178 -0.6024740053786334 -0.5233650177606084 -0.25459397746463897
Ni 6.095426768661308 5.6187322144171405 0.241855142905426 -0.7407631029012403 0.3555606843877038 1.0997027310635061
Ni 8.071879651028304 8.9871576008892 11.39580559266572 -1.293958830870036 1.2792495496843195 -0.0535607068352755
Ni 0.12950053315686344 4.874130330266025 5.918228549592156 0.006351653249640675 -1.0471954051934094 -0.16308918728542235
Ni 7.924543824162519 8.995499254724978 2.3232544086067852 1.0721325347547213 -1.5715071031380032 0.7213101363829514
P 8.638766060719576 1.5956327075803343 3.717209421489194 -0.1595832310146929 -0.01590484415571454 -0.010290840403046793
P 1.721795668541987 3.3224370110673846 1.5355700679800324 0.011106394325806679 0.1581326146110954 0.07356028988565397
P 4.8804503169057964 1.0685330725708468 8.208867638097587 -1.7342381357530585 -1.00817531517647 -0.19267255736949399
P 8.556770153364392 1.7609176607674284 12.58069016567129 -0.39091001042127516 -0.40573859079367547 0.022763518948760796
P 6.174080550516786 7.819034652392509 1.5078204090625826 1.497104262746396 -0.9448230761720695 -1.1877663567716576
P 1.930209521910573 3.2361336776594456 5.9750610749833415 -1.3691440579536225 0.718144594170776 1.647704573536188
P 7.070016062880747 3.911261241818036 5.860996244066264 -0.021728135705710968 1.6146815816429483 0.1190140513430789
P 2.515964825431249 8.424469337942789 10.46337443410933 -0.9383927471656935 1.103823695210415 -1.199639711170476
