# total energy = -340892.1323643263 ev
CRYSTAL
PRIMVEC
9.04900841466985 0.00000000000000 0.00000000000000

0.00000000000000 9.04900841466985 0.00000000000000

0.00000000000000 0.00000000000000 13.24413850266020

PRIMCOORD
 96 1
Ni 6.395251079544197 1.8211491729751432 11.606977802265646 0.056224112600051564 0.2207999117333294 -1.234796204466951
Ni 4.554185038682113 0.31471456454025865 5.942844085731767 -0.5514100968232827 -0.17158308368904643 0.9321524226829366
Ni 2.541115442711006 1.4650706853099447 4.64175319962201 0.6891510351519036 0.003033644620001227 1.7380829634204455
Ni 3.484836547631046 4.481231931501508 4.981490987591507 0.25617366324693297 0.3540851282834418 -1.775687404036781
Ni 5.220228266283366 4.625753647549815 2.874017609598362 0.19207734698765627 0.10135648616231577 -0.9222464764231343
Ni 7.112421205628509 6.05209457613277 2.6844146377000104 0.4728312706771147 1.3131582866166223 -1.1022843757477534
Ni 5.146388356261816 4.587449194226136 11.659874686827163 0.030969708908636987 0.22574954242912088 -0.24170400887584825
Ni 5.6355325151116835 7.587638940272106 11.853358778505937 -0.7931914959042856 0.052366686527174335 1.4837754068479736
Ni 1.7755964637780248 6.375008447348338 0.37360279768330346 0.005607061774132278 0.9255503439853865 -0.04396303584451138
Ni 2.8055727184928467 1.8799767777606948 0.4584589707514517 -0.4864074666996526 -0.6575794309932095 -0.5202748088710588
Ni 0.25855370258354904 -0.17505488080256165 4.814469816607222 1.2751725514014685 1.7509742175608167 -0.3067668028134523
Ni 8.401181007744839 2.259094041273304 1.1941008380523062 1.4722365529704389 0.6506459370981698 0.779382100825019
Ni 6.897398663725067 0.9430152822507162 4.648785184190361 -0.3123358122607976 -0.7003908697317809 0.9410643804605858
Ni 0.8674759684176401 7.711601308824217 2.589109574423298 -0.337649865545554 -0.08722673162915301 -0.3744089274424584
Ni 7.836052323839706 4.172896013110047 3.753070879594626 -0.5018394849840068 -2.007520176545504 0.5538595868050397
Ni 7.507609508381102 3.7495924406960617 12.494930772201396 0.7670760297641565 0.286237572511849 0.6211152746289045
Ni 7.6388291818152325 8.6470787669269 7.1631988123803385 0.10628889046692662 0.32335247508627535 -0.5822540787873327
Ni 6.756514649126351 0.7777496189311587 0.5519994773548551 -0.2593980837215017 -1.820709734383742 -0.4873469477947865
Ni 1.8680411354422606 6.355743108079236 9.045177230839167 0.9109801594806957 1.091134786888837 0.3826392857720507
Ni -0.10180044163620632 4.957273125925983 1.2479831596483018 0.13561129358012775 -0.7408433213198725 1.383374856841024
Ni 6.449300807798942 1.925728565146597 6.924102288047812 0.1933191898145574 0.5332812484330558 -0.23963581349290988
Ni 3.461680134672082 4.409210872204753 0.6315755539159476 0.030396867124302486 -0.6255386005075807 -0.13508396032174802
Ni 5.950537552827394 5.633885595549928 4.847778312293292 -0.17568579300351034 0.07229607846124969 0.6683402690541393
Ni 5.5157869845583525 3.143978492399211 9.07073887027898 -0.21619043798577603 -1.7000674034086205 -0.03342742642051017
P 0.10540918625833798 5.56741157851337 12.471581615359653 0.43212376565542354 0.01616658245753345 -1.4676589609020851
P 3.8385260970308415 6.100398183938534 12.671077868339692 1.6877734165326157 0.44929102146332944 -0.7166893497814882
P 2.590722107752445 8.65973832993182 1.360398088350106 -1.7342283655610455 0.3231928095799595 0.0510399972959508
P 6.03994175760839 7.743634799201213 5.892410341306018 1.4692548446342955 -0.5225540918235388 -0.153447036209968
P 4.571912046492434 0.9931105937555329 12.428484807091438 0.509380016335426 -1.2531330551029256 0.6544563119831954
P 3.841494171845433 5.94754233098706 8.165978271804747 1.0287246000827317 0.4602038117210913 -0.45202384701346027
P 4.643779272643312 1.0513500129833149 3.9456536900187253 0.2553228852108635 0.39768255325841834 -1.7986653529891927
P 0.13955742994073086 5.8178519400031306 3.4707725784943433 0.7310042237422636 0.1386660212460515 0.5121148987680858
Ni 1.6427027237563958 1.4631341974735952 2.610247153567825 -1.267863676444881 -1.1033683528405513 -1.5876921975382978
Ni 1.8603856741826732 6.472176701491894 4.746235767401645 -0.5520837258515395 0.30831434980623035 0.4276816707236699
Ni 5.9492525936088825 5.5108643238902495 9.214079690707457 -0.0020933921939189754 0.5552410405335986 -0.5275145211526076
Ni 8.7132451176717 2.3615016713853 10.233401642718924 -0.0010438678834820733 -0.14978372842576784 0.8274468175427299
Ni 2.322844306726959 4.966512163687258 6.87475442465179 0.4760037548678254 1.2997127026346775 1.9076040223741404
Ni 0.81698069073354 0.08745685813434846 9.166785047358482 -1.353007043182444 0.6777127114079748 -0.4207957422371141
Ni 1.5507647965727003 0.9967844912394483 11.501593953231335 -0.320376423177087 0.8197149961161109 0.37782283822001383
Ni 4.014809833198713 6.923378367361325 1.4914223031988856 0.7956397003344621 0.7952725468030303 0.18282009005544644
Ni 5.453023061040034 7.808398553615949 8.032742479258754 -0.9740308080842772 0.1452788985768788 -0.07481138868393566
Ni 5.1710650026624005 2.9217800866909784 4.916409612975577 0.5127468759251298 -0.2801378873720143 0.041335368413677194
Ni 0.7172280397392302 7.61636049350843 7.02842559327642 -0.41004827391262283 -1.0129663088072105 0.17393204353719724
Ni 5.050885119697178 4.522884518000184 6.897441194065397 0.3930594526641102 -0.11271613414950911 0.7385735514490893
Ni 8.556362455901649 7.179510555248579 9.32107878777349 -0.16001363368389215 -0.3650087171744811 -0.3501253723047454
Ni 4.837382811235356 0.1564609779701741 10.187192880399678 0.07646640778885541 -0.6115255740579404 0.6342302147443077
Ni 7.938260875762919 7.197092778921603 4.8446926003671456 -0.6778502654271036 -1.2259996892212435 0.019144948359567027
Ni 7.293980513799146 6.110252554283322 6.993117266693933 0.3289790772444334 -0.7944443944747802 0.686167012822915
Ni 2.3398564428593747 5.525035071328209 2.4733428929430645 -1.6278296889891317 -1.2649097360228794 0.7216461795661314
Ni 2.318147871273382 5.3784773283491605 11.372583142791845 -0.14162536098469158 -0.6765207479824026 0.45340735762454815
Ni 1.265485752045812 3.562440845222323 3.7587789942075664 -0.39829087626637855 0.6598723407924442 0.6956055325279956
Ni 3.797126882772435 2.9289197544614445 2.63680237414984 -1.5860073536367072 -1.1663503529897268 0.5565402189609964
Ni 1.3182867171163695 3.224903776139741 8.399684301725529 -0.5638658060881322 -0.19252446182740393 0.04621223689000428
Ni 3.4508665694177 2.631315960247136 7.3088706574193 1.4789895554235561 0.32356407687644917 0.015681929511631054
Ni 4.067022612711501 6.814021098659066 6.095283684288512 -0.7342335293128387 0.2923133463922837 -0.3043018862127276
Ni 0.8135520213821715 7.470689553370327 11.598488022414884 -0.22326868498879612 0.11797815387939681 -0.9710071907666051
P 0.31517334927531904 5.503127421553432 7.949330527960144 -1.135405069561122 -0.301601456562429 -0.4908747584423868
P 8.43401081087697 1.5352276488389989 7.9118495344173425 2.050796984956268 0.48461257958275894 -0.45074318052882373
P 1.887623190011701 3.240766688182361 10.56892892699565 -0.321838095324278 -1.047844608741634 -0.5613548667408202
P 3.834752660452534 6.323193824213117 3.722874337959588 1.4061838843157395 -0.5266220912453253 0.711044235680569
P 6.990639648144437 3.9481819830162768 10.413085091410704 0.3044378975699596 -0.03258924678993098 -0.6998056866522723
P 6.554993228025869 7.589503036039807 9.826713859861504 -0.401107005558935 0.40429954435430365 1.0037833567563617
P 2.1957057361628918 8.451031996017967 5.76219329802267 1.2629071037705542 0.5723226786062338 0.09764252764583828
P 6.985825575579306 3.928047938923391 1.4096527469577411 -1.9119507293786102 0.40172818408270167 1.2339076312144104
Ni 5.157708665996737 2.6846598658325576 0.5623379696587303 0.6046427308951781 0.9232939438510421 -0.7849259134613836
Ni 1.5809884852334821 1.1880895816518997 7.0260954735667935 -1.016210783886437 -0.7175637819666416 -0.04528458286941234
Ni 6.928445812166726 0.8725615112402028 9.207245879427031 -0.4979247233106327 -0.619084617352121 0.5889057797758955
Ni 2.9721468684532275 1.3303761925806823 9.482392749045692 -0.622565891032502 1.8490844288716928 -0.6922067912590918
Ni 6.199901082296006 2.10076353813028 2.647092906708236 1.0520028538843818 0.5217832750957851 -0.00954239227279647
Ni 3.9798263660242865 6.6976689463236365 10.205907135046195 0.3267800127105856 1.0089260772995656 0.5138766186541989
Ni 8.146740984462244 7.203318496825381 0.33721944888138566 -0.871095407470616 0.22435240497127812 0.25278700616288724
Ni 7.881116386573446 3.6761416380434975 8.238357671841314 -0.3326778662522593 0.7390018972357595 -0.6173295823342271
Ni 3.181079427581608 8.170268406773033 12.461145393763102 0.3284998236151697 0.6782007067879868 -0.022145682859103795
Ni 0.4017470241721548 4.848612630884466 10.102046234156077 -1.9196568397736165 -0.5624781817119862 0.6388934245479319
Ni 8.86428211989838 2.267229099987688 5.647936896074618 -0.6537006647640935 0.42509591227436466 -0.17391404581506822
Ni 3.795090855841694 2.6554768131585993 11.42864537055502 -0.1534444651068067 0.4409411068367374 -0.06865616771581724
Ni 1.0695475692398513 3.4872164368878678 12.584580205114937 -0.3635884397881867 -0.2760881427826729 0.3605635369189339
Ni 2.9372629403731936 8.425957193239814 8.073057622289147 1.113596972547095 -0.6077951604812306 -0.7415737717279938
Ni 5.666416781398883 7.831165859205926 3.661633362585464 -2.74088518721046 0.11570015647849752 0.9463724229370605
Ni 2.9900458074265885 8.422907677347993 3.542065192600322 1.2055077399154788 -0.23874286936499528 0.20782535385053238
Ni 3.497043660206913 4.212503523669401 9.465308220844628 -0.16128504419714804 0.25929575381568243 -0.2821484900441399
Ni 7.368399560369885 6.042330695873793 11.312401806322564 0.3063428279021563 -0.6275036946537516 0.04448882644099435
Ni 0.6452712284034007 -0.12527447479636622 0.3925116060143123 0.47516711789914295 1.08213104072833 0.19004566126960817
Ni 4.523092645197549 0.5369238290587885 1.6685367383544993 0.28577400261186914 -0.8841172736515805 0.2506097960059103
Ni 6.083983282372468 5.781257749301274 0.4328756136910438 -0.6043951336607463 -0.3594548772357874 -0.36737721740665763
Ni 7.7052398557917225 8.672633167159848 11.425771405429671 0.6787180127440375 0.5469687732224773 -0.08306205872850211
Ni 9.320569328590375 4.83396228599171 5.85454476489852 -1.916720639963428 -0.3622823193822535 -0.925457012940632
Ni 7.5527097671491665 8.535884549482683 2.7592309357474587 2.58551830826996 1.3734624828233184 -0.6779096579101292
P 8.569230146103935 1.417635782327963 3.296002741462085 -0.13041149454674314 0.12320083573091685 0.7934894867606787
P 1.5729982106563951 3.4688921945111963 1.6383266232065892 1.6294227445078646 -0.32457529174978295 -1.1575165567481807
P 4.812977635092203 1.0917266892720598 8.12056401243892 -0.24120675752445556 -0.23364848556122342 0.6799508567098741
P 8.588033985935402 1.4251826554845775 12.417002520102915 -0.3790212294034892 0.1237811337144191 -0.5403661803042953
P 6.144349218616803 7.787920647196982 1.4234932055824914 -0.056045163820026056 -0.3898687136409543 -1.3631906685836652
P 1.929502001724904 3.1401869578037416 5.875324908204095 -0.9627547209498258 -0.3226883591397153 -0.0967027894403883
P 6.973283649685939 3.8915894833502502 5.887125720294672 0.6398614448881561 0.35118826635162104 0.101578886585767
P 2.4188180917378124 8.379056181764117 10.330295711902473 0.7300158916870654 -0.6556207646049419 -0.14631402470961255
