# total energy = -340869.96498788206 ev
CRYSTAL
PRIMVEC
9.22526837101522 0.00000000000000 0.00000000000000

0.00000000000000 9.22526837101522 0.00000000000000

0.00000000000000 0.00000000000000 13.50211276539584

PRIMCOORD
 96 1
Ni 2.0894126150091292 4.706150803499135 1.5895229900863974 3.6996492989436542 0.4462188102959089 0.4657764207128624
Ni 6.821956911724421 6.5478188325872875 5.083909866156664 -0.5711980780834872 0.19689739408411897 0.03798830631831523
Ni 9.136991918759964 2.743124367120331 4.979579459487607 -2.7835248762578577 0.40805952561736825 0.7655912176885137
Ni 5.202497925312812 1.5068184578658963 6.8752891115258645 1.5564952031102033 1.1223348666407251 -0.46132789802320545
Ni 2.7441022455827264 8.05091950724238 1.9917908236028443 -2.9329627913084324 0.013060689838700087 0.09238924966669894
Ni 4.338127166703547 6.338589742708764 1.2480109299439353 -0.1107888352198092 0.7738526863663576 1.305317964636597
Ni 5.797149508402749 9.006952533798426 4.993432122686972 -0.4552606087832031 -0.01703432977446744 0.40826855630438075
Ni 0.13588451509147711 4.063112687057663 7.21154645872323 -1.545797871297357 0.2446579492978496 -0.2385793472039375
Ni 0.41460109499169395 9.227021314179915 5.58589178197818 -0.22899710283214111 -0.3717097833437405 3.0974804835102656
Ni 4.81891126053552 8.493612467383505 2.47489691751958 0.2752787595075001 -0.13528013549295412 0.29575682485619387
Ni 4.981478942274467 2.4414304109343807 4.595065655224741 0.8545804405347283 -1.8187001601528805 0.5552706082199533
Ni 5.653244544865928 1.3284478911639008 9.504299674718931 0.08818215356388684 -0.3301435298661798 -0.060589074436966615
Ni 7.002440064915931 3.250873920816277 10.812816373260144 1.2519475194352567 0.037603412175070725 -1.2896828292025015
Ni 6.710054404659762 4.998065975061134 1.0516252588894364 0.4039177355348527 1.158334938884418 0.492872505598706
Ni 8.870418559803623 4.144839340815768 12.38439437103474 -0.7105228159594602 -0.49037467887751673 0.22704255020893158
Ni 6.5897200021740705 3.056562090123537 13.266541299542018 1.3120992492244887 -1.7647486456370898 0.4644613014458646
Ni 3.4402041065119096 0.18632736079459788 6.256068793331675 -0.8100044536965664 -0.5593362936488948 0.04270010997168775
Ni 1.91916950986723 1.9414762091320568 4.818755353497647 2.523870453551176 -0.9045809408225711 -0.8081967110638661
Ni 3.2221556599348027 3.2852011449537546 12.387972852690995 -1.3894843121728715 -0.18426402159082458 0.1202101285337091
Ni 4.193751714472555 6.680275237899274 4.3752920834356726 0.07583674462465649 1.8701921573845854 -0.5721231610009179
Ni 5.554349666404827 3.8662546822552897 8.708917319104797 0.3695667688588087 0.2753535786094935 -0.8724627201317878
Ni 8.904930289311364 7.077321569437271 8.674621460880264 0.6942927272538431 -0.48563485019968616 -0.7726039015609211
Ni 3.584496531326283 1.4648619366680338 2.607527680406464 -0.49859423857383167 -0.5586544370905218 -0.24590133478664744
Ni 4.425804118652643 8.458196661561473 13.165572580719157 0.7894191733460469 0.17880505535878238 0.596854859419643
P 7.3989697814171915 8.048262629910589 6.800744329305257 0.3781365128056907 0.4530556307120843 -0.8647378406837043
P 8.362871962014967 1.5142263484819658 9.892188082203912 0.7532897746133413 -1.7315497902876178 1.0737942387278603
P 6.924993935747932 4.961441659063879 12.315371834546108 -1.1025787670597205 0.9181715350228121 -1.3615755015777453
P 3.461726657953118 3.5526416791503332 9.073379079727452 -0.5472996741993349 1.4381838342611037 -0.3343971629362112
P 3.520934431270594 8.761846374672215 4.248413275466746 0.8370781699849068 1.5759486838491246 -1.395337942740171
P 1.5384795794030697 1.107438133394069 6.954195600699497 1.1671471378594094 1.9201669466408158 -1.0012222808974047
P 8.24018511605842 4.872888306606033 5.068720461549741 2.113741446999289 0.6030489040454968 -1.7724552702527283
P 4.673807012091988 2.056054044065534 0.5648382828359492 -0.3939752796101602 -0.3161860392448232 0.045310293901025187
Ni 7.443795361122648 2.306003469161156 8.259607073859181 0.2790202288278033 1.170218063475249 0.2872909534770278
Ni 1.1516179443036039 6.406543070576718 12.440469243165143 -0.4614685373661278 0.6002525722472823 -0.009421036203583776
Ni 8.707841652796162 1.5840155047840394 12.083567590089025 0.18561642185366098 -0.4577080418824311 -0.6957911661762404
Ni 6.249888785954708 8.46212662594808 11.195939007031225 -0.9979878331205071 0.9162738037794672 0.22020675823402078
Ni 5.271097021976688 6.3441710301592265 12.629134287000978 3.1253219312025657 -0.3867170553858501 0.9240804443080796
Ni 8.8497262825286 7.5200053043098825 4.302691065290787 -1.0422249485620116 0.12385723836799314 -1.6599229699792508
Ni 4.083186871342304 6.317510004156188 8.57315273250399 -0.6129167979785121 -1.9650306399227255 -0.16954625576467575
Ni 1.8780524881040652 7.460493097131472 4.553222604829591 0.32174862093426526 -0.4157900614924065 -0.07472397117645195
Ni 8.031380388531502 5.828755278328843 2.9021578484918864 -0.05397568288550704 -0.6627933710939811 0.8479071422796107
Ni 0.13851463914457973 4.898045613841426 0.8814845542280333 -2.6287349528667505 1.476166227042148 0.7097311732961002
Ni 7.317353830881244 8.78088732888338 9.019870677297408 -0.5965944066694048 1.021293597725983 -1.394834006520559
Ni 8.536528416506735 0.8835611621703462 0.9515061872966387 2.0595140531142917 0.6574922705960419 1.6386537761878295
Ni 2.987529405839543 1.9817352809234976 10.509180498052174 -0.9833870524881967 0.1455259815906784 0.5634626571124426
Ni 4.66990472351092 3.707441684801198 2.6176145889987565 -0.2651488701623498 0.10292460198038403 -3.2240443221761446
Ni 5.251816210784178 1.966209154015845 11.693788925085698 -1.0735188735792864 -0.9026266453096777 0.9418069150535651
Ni 1.304812753233179 0.31920997351189195 8.786162337419208 -1.2822536266179658 0.8282209767045929 1.1330728218835195
Ni 6.92171896542576 8.984433653357797 2.825762477407537 2.562593838263303 -1.2456251767616549 -0.10315394438237073
Ni 4.862556005871291 5.817297494835495 6.360589240532103 0.37977456262974596 0.2105574080697148 1.8510466948043862
Ni 1.2593045036577486 3.0811474307111153 9.034453059236164 -0.09883269129919753 -0.6627301219562135 1.1212724868144817
Ni 7.733413440824869 7.207785316750414 12.445194425697588 0.2600277468857006 -1.004000357863174 1.2522506524979724
Ni 8.846746520798847 8.422485647147022 10.63921988301371 -0.6521623737426963 0.3361897360602597 0.9882520938899819
Ni 4.942871193546883 4.467280925887821 10.99612061356298 -0.39217884983136975 0.19798805604513642 0.23637334069155425
Ni 2.7429675375556073 0.8286477513457469 13.35371086172289 -0.0285479868410218 0.7924911274031512 0.4327063776317709
Ni 1.4776204830217374 4.9042080932082195 4.392966775380041 -1.3282326644512417 0.13541151886449582 -0.002307307976937962
P 6.401672128801769 7.850795757386347 0.9985485990258078 -1.2535521449182152 -0.642518680005345 -1.1400798493289719
P 0.9121761000444732 6.454662071141374 2.463109791940312 0.9275969421017701 0.2894432239333402 0.8457924099294531
P 0.19617256735184482 8.518751324081872 12.976164902768016 0.29321220405746923 0.5529694708906024 -1.1234748937824393
P 8.075966111255616 3.1862232390760354 1.4854481233551557 -0.009258799594106635 0.2682776455993186 -0.20744740168582337
P 3.158095395379403 5.627985759676889 12.935577411417505 -0.7157966627638898 -0.31484469472558035 -0.16487996063725796
P 5.55041970201822 7.355398838229525 9.578642423559103 0.11855356676689259 -0.21014757422580582 -0.018621728866245347
P 2.6471723493149284 5.904789941414328 6.052335195906442 -0.48766293637330854 0.24115893500565563 0.6107627277499869
P 1.2136209739805683 3.0069209202542106 11.48352014744574 0.5654696602401422 -0.10394764392825968 -1.0436884204814154
Ni 5.2173782834245435 8.433269986038908 7.7229925775124 1.0351906674230493 0.17466917881353788 -1.576809489187523
Ni 3.626213195542803 1.4409777164874562 8.389348482647742 -1.7557808949208404 -0.03561132144570641 -1.0073996133527103
Ni 1.8174147981670485 5.385923939160021 8.113946541724305 0.5390829427164974 -0.6372684873499992 0.23662865123546992
Ni 1.6437214426012265 7.651686787066763 7.494604449985741 1.943113271024344 0.8121461826299174 -0.5731292336679291
Ni 6.795175957230711 0.39624281065050077 13.273090317659511 -1.9364014062218071 -0.19142942899101226 -0.8149540843923578
Ni 7.149933657904373 3.8567065293441662 6.435660785584813 -0.7100160515263708 -0.549395380386099 0.8486093105529577
Ni 3.547816863717949 8.444248055569572 9.258804209261463 -1.4026393614975907 0.9781294036336833 1.1354415792260122
Ni 0.22932264722704265 6.420085764754041 6.227943717215597 -0.92123397599822 -0.9228249746344237 -0.20039486571441617
Ni 6.619785152258467 3.9931943769964042 3.4459689768057844 3.1497510107792075 -0.4252509497949902 2.1269445759531243
Ni 6.404688791605572 1.9650744459887262 2.134724366365229 -0.552576606327558 -0.4038421451019109 -0.27363351059459323
Ni 0.287649407401512 0.5226059261095429 3.547531802920892 -0.1244665898172179 0.6821530065675155 -3.103120455404862
Ni 3.8420844787508037 4.413589863141215 4.81228844026992 0.007799698550076891 0.33574030722766696 1.6067240173587682
Ni 3.8251837868346903 6.905058130490989 11.15860526788531 -1.608277220778501 1.317122927691325 -1.6087580170696616
Ni 4.611601026507733 4.250256484115675 0.27644993142653285 0.47283924109691466 -0.3414967500954699 0.2855130356409986
Ni 2.2177084242216787 3.385193830367922 6.702866997961157 1.2565577645137584 -0.6156107998709075 0.08378479582713957
Ni 7.313802102503676 6.218384493982258 10.249899713855488 -1.9983423667009779 0.14941580356338782 1.0734538246693062
Ni 0.05525382323273497 5.175246482124931 10.454267087227574 0.8296528240551132 -0.2903461953635838 -1.7724958936826767
Ni 6.7008291361465995 6.288182875552844 7.859742422790411 -0.25198585041783056 -0.49937816792770773 0.05883943873571156
Ni 1.128803855270553 2.774416477916978 0.15235623202172863 -0.0024098949930732687 -0.9570738685149646 1.0718954790432507
Ni 0.6349051197202691 3.069339087014267 2.7134660513773654 0.41865632729660807 -0.8042372121954858 -0.2790803926417774
Ni 1.7283540559409785 8.996638683600711 10.913488038436881 1.5552716151157473 -0.9078045899661915 2.4239882379415416
Ni 8.52817032323381 7.536472408605878 1.3654421404285337 0.5903533108556994 0.4085066404571158 -0.454452768169927
Ni 2.391466356667093 5.034385857197454 10.690162738270246 0.7711000633218849 -1.0726007326403917 -0.1081503691556976
Ni 7.449920939415388 1.0300012294945837 6.4122073854438 0.3624463557639436 -0.9640081337409526 -1.4566561820336785
P 5.099451676020788 3.6601345078657017 6.500471064470332 -1.3797421451844432 -0.47036583985575764 -0.4786049399360983
P 7.861635447889313 4.543703050250858 8.770216460794208 0.0579781191766808 -0.20063012165367383 -0.023888890802455633
P 2.8405616531563522 3.504162893113665 3.3226944812449495 -3.729362252627055 -2.0918590451039005 -0.47545559567383927
P 1.4652862990196391 0.6536268796408808 1.6889390962184923 0.4608118776187355 0.7218027597486537 -0.4583960690883912
P 3.877334229739597 0.22800527888336303 11.280475677578442 0.8870843266997045 -1.1756957987603687 0.5322075557529027
P 1.6433247560551607 6.903083923029172 9.711529648910654 0.29931831695520705 1.2662852762141676 0.5262747352082355
P 5.452650306315725 5.710930148878733 3.0496551315877327 0.9549799621004134 0.26527562554820117 -0.43220758361848144
P 7.543954101370051 1.2565369231038 4.08841298595501 -0.3963054704052336 1.3875007060839395 1.4786578831157504
