# total energy = -340878.7471082767 ev
CRYSTAL
PRIMVEC
9.21947648146057 0.00000000000000 0.00000000000000
0.00000000000000 9.21947648146057 0.00000000000000
0.00000000000000 0.00000000000000 13.49363574958193
PRIMCOORD
 96 1
Ni 5.482057558263026 8.157964563945765 1.2211353578686566 -0.7748245633613237 -1.5644550813872282 -0.4255535686370736
Ni 0.16481842830019958 3.6359864280458356 11.796810873654204 1.2017724412427626 0.5652112643724331 1.072507915816269
Ni 7.754262119580363 2.2911229274413385 1.668447770771949 -0.09142071510584256 -0.5667089319638821 -0.6580653694906924
Ni 8.823435609363205 3.1293393071986575 8.042450052973994 -0.6157208430862106 0.7709190576593304 0.31278858352750005
Ni 4.969113534851183 4.048880690649847 6.110754877092357 -1.3546096117828734 -0.5092445191988263 1.2412224197082686
Ni 6.293823259458083 6.616246797512956 12.5660563484536 0.404891926522664 0.5249254202691928 -0.4667570394585768
Ni 7.314207278710605 0.12693375477351868 6.281449799821132 -0.13397812885207894 -0.3571712234079332 -0.2860681368135203
Ni 8.529721521654407 6.569513270279737 6.024530643496783 0.2685807786620342 0.509220093718794 1.0481937645509367
Ni 5.117242866485852 1.327337275457456 5.4725734826140195 0.47953156551542575 0.6999224147357945 0.27533558088736454
Ni 5.421965009336981 4.690915826375665 11.07040830693387 0.9310607322806547 0.9706359234701153 -1.0656986062039195
Ni 1.0513706803357439 2.5190007322595447 4.638964075348009 1.0339441966104579 -0.3920780625874473 -0.6571675402667715
Ni 2.3259541102953736 4.7706089826991915 12.462560347267038 -0.37950176858433354 0.07057395356382039 -0.6161761854560743
Ni 1.3135725967912109 1.2886431318792706 11.905678141947902 0.4506300519897271 0.5302758859478287 0.036007528442860565
Ni 8.526125925753647 5.958962647377246 -0.13551524365666734 0.7206668463719975 -0.5276865279540977 0.3030021935646975
Ni 3.2719646112621628 6.254087315016344 5.251817723522321 -0.08303274815246345 -0.04074581445879434 -0.3615647244899386
Ni 6.3436453113752895 0.2597771940916208 2.8737265507182514 -0.18390946646488326 1.7859059964409953 1.0284988572251705
Ni 4.109830650906074 8.491986203649757 6.805434146543645 0.9776354947164002 -0.5561591814724938 0.35186420937272306
Ni 7.300903573877791 5.985551618089537 2.0331398435094306 -0.22175481944743097 0.7110977146263238 -0.4128014111777278
Ni 5.71588192553249 2.062000493272869 0.2991793934779561 -0.3817232017156845 0.08522898447283386 -0.4257312318655184
Ni 1.238830299438733 5.428851958408438 1.5626035688778919 -1.2624044531025227 -0.712587926018605 -1.3027656305283886
Ni 0.6029648374995533 7.54010289604506 2.332510080154427 0.5158553396471246 0.09970609504308635 0.7201955631625339
Ni 4.186628891555653 1.027704283727404 1.8924146735873277 0.2143212459875212 -0.45144894834659666 0.48358079588413494
Ni 7.082881389618337 1.0854827440096266 8.827455301190723 -0.1322179516278626 -1.4517219779568546 -0.008377682540733958
Ni 7.080355253011136 5.52110204195462 8.07694011519129 0.8966352036129331 -0.17273365235372187 -0.025435666464285227
P 5.729849432685445 2.452260940655426 2.9624059309506774 0.10685350472114502 -0.802188042975941 0.010557206690556011
P 2.930392220166572 1.1756123479220262 0.2250483474286075 -2.058453730170578 -1.5302267563319776 0.562708038334605
P 8.493129418756666 0.5959654108127392 10.767489493719124 0.3417672301480372 -0.2622988023080644 0.24784868832100543
P 4.974479270272318 6.099402935470288 1.89395340424332 -0.2501961055072594 0.6155802037432881 0.20938935590354263
P 5.7078241029241195 8.644467128272012 4.930331806244646 0.17571124692480708 -1.6209273054423439 -0.3482626080643938
P 9.053821111835276 1.787693403951508 6.367768072078726 -0.5719403555661505 0.04039768709075623 -1.2312822777764214
P 0.3662206619691382 5.176892880531804 7.510935237708556 0.0562397963293354 -0.22158049865309581 -0.8122320574755044
P 4.8609414150983 4.169646615532061 13.010590933036637 0.4477337042785386 0.3336913951184382 1.3313997493253136
Ni 7.731895669182298 7.488879483674223 10.044082334968426 -0.10969225972152077 -0.18553131833902242 1.9142318121033033
Ni 9.323380170672298 0.0556976243981158 7.60991185143216 -1.6881220581212861 0.10812260124155573 -0.508166455643299
Ni 7.137101131906473 3.790053102655094 12.713839027765527 -0.11984940276018068 1.0766319652869716 0.5500702949659365
Ni 6.897551469625798 2.551084511066332 6.596606546365802 -0.013837677214040684 -0.0780545782115817 0.043590482996441055
Ni 2.7638515936246746 0.36544253813830696 5.215209025566576 0.6810474322081626 1.0339976755562128 -0.2782203586343273
Ni 3.1169759889860424 4.1224521144654105 1.0068101837533174 1.5697176153377481 -0.4084076529854063 1.3232277550374825
Ni 5.49663355087611 2.360637781522711 11.240981532570622 1.1428039331283544 -1.0757117674655474 -0.854967648670818
Ni 0.8197294851414083 1.7369494043674403 9.45068639230323 0.5896912517916683 -0.5248014930968188 0.71570898814609
Ni 1.820984934201884 7.774618724064669 6.420555107692559 -1.333212119943704 -0.5144779996836237 -0.2982333114211445
Ni 4.772388341696234 4.834887174032788 8.66298168131793 0.8248662012997471 -0.5737262438219797 -1.022753470100961
Ni 1.3418487317338592 2.433895743131541 1.6093048279427713 0.2230509125510352 0.4598996502171112 0.23032636316652594
Ni 0.9183225686355984 5.435545298469854 4.38052001758267 0.9115038931946495 0.8549527362724826 -1.0666208609078727
Ni 7.88953950073898 8.378798688589146 1.3369614871518254 -1.359219599751059 -0.7939458575718068 -0.7603880762210194
Ni 2.3187997964005267 1.1319396869427876 7.517547446375287 0.6377888786298436 0.5781187164627204 -0.10629557533514597
Ni 4.389614109368594 4.579461572928754 3.808147247564922 -1.8016388337952196 -0.44293062646294046 -1.6322764119065758
Ni 5.509946475185592 8.66927673998726 10.736144194993493 0.7315145877197788 0.7513470490646738 0.949238945851578
Ni 8.630628693792419 3.962761559088296 5.743836300739404 0.16034530599169805 1.2554079671800316 -0.4877349272618245
Ni 1.1594690442752782 8.391457030055157 10.6796057543232 -0.12128690653765564 0.9336148661610759 0.3080587821519985
Ni 0.4491821227716882 -0.059742208812638066 4.812073579016295 -1.7815173804549964 0.8721457031120011 -0.12534744976027445
Ni 4.102796190207919 8.232799056064927 3.4622647511267526 -0.06079964778587593 0.8768055704815156 -0.062068487195970516
Ni 7.922453032445943 2.050208782613708 4.037363720395411 -0.413463727352075 -0.9045578008941197 1.3407955887179166
Ni 3.459608619898524 1.1661347259066879 10.144987663211104 -0.6445544794884512 0.6163746746201256 -0.42774671963365046
Ni 6.41009929920268 3.929092030294507 4.404322862445706 2.5960441475019485 0.4594363374274475 -0.3470266787747636
Ni 0.9254695069491102 4.5602389640746885 9.59130369434831 -1.2103781806339027 -1.1789420736118084 -0.3341745054024438
P 1.7421584086852087 8.435295641614431 8.407749689223937 2.3921507817159706 0.9647072166905064 1.5288964675563284
P 8.027942284488258 5.7408113904444305 4.04969661433502 -0.9369084493106832 -1.1186859570342282 0.610661169175116
P 4.801973642325826 6.087187128884371 6.636629216531935 0.8104276572769139 1.2325488031936707 2.2662765129179485
P 1.3887113316404396 7.324920310599539 13.3980468156166 -1.106086780212979 -0.6859667238866508 -0.4517924477289445
P 2.271273394173806 3.0564224662265658 10.664371491075977 -0.6309985951808875 0.4389950388539601 -0.35420674146297065
P 4.816236172732176 0.21992877203452446 8.747465277718469 0.2948646520592276 -0.9945379268986936 0.3110181218906386
P 3.271439101092051 2.576779192541767 5.969706103539185 -0.006570454128666104 -1.4542190333470955 1.468939884497038
P 9.207482129471115 3.849371215540976 0.5686499453389608 -0.9752117157662558 -0.2359020574820905 -0.7741887295495377
Ni 2.0292621316226103 4.260550655484625 6.053690004304285 -0.20693523793609522 0.4028167891611901 0.568138465321557
Ni 3.0827625110688044 5.233389833557089 10.170841841632907 -0.19730902770024084 0.10081552605718122 0.5994956394765999
Ni 7.632924587144695 7.827188180029123 4.045851170616539 0.6356391792766923 0.9246149766553109 -0.10715843755607352
Ni 2.678940213506712 3.572611745425762 8.3031067851398 0.3075075376342188 -1.3460925754507977 0.3279274960514675
Ni 3.664705097868578 2.2885230350207886 3.878407957308785 -1.1314329722872514 -0.004716431639062844 -1.0506262852518293
Ni 5.731582694299145 4.11485526569047 1.6033813141831847 0.3464587220864356 -0.09137700635210069 -0.4464954609960633
Ni 5.620912096369067 6.491959032543331 4.006489536927546 0.8369192758095393 0.13255348059041044 0.6133567137294081
Ni 8.08505694245034 1.5854365247953888 12.856763042873096 -0.18466768478714649 -0.6475829819021298 -1.1745632278178224
Ni 4.845323621621663 2.0932452997028124 7.858517805644417 -1.1378252489668403 0.568620290053982 -0.4336319747698339
Ni 2.6302337182664086 5.918950118635449 7.729235850163402 0.45230743969215004 0.35699535995170134 0.3126001216657778
Ni 3.9369654633695057 6.48963572442284 13.149211296435295 -0.277995901328347 -0.9176164338502907 0.3163619027010552
Ni 3.555454299345466 2.6414261629421096 12.414738921786922 -0.9249307081235167 -0.4539058945275215 -0.6475027634834978
Ni 8.452213381301343 8.245392861194258 12.553493889544942 -0.0015958837322101547 0.377575240985582 -1.34815254330362
Ni 8.756539086655721 4.043118517731962 2.809712036417376 0.4513021383560873 0.5584058114148254 0.724102611526424
Ni 3.343221946433903 7.66735933250198 9.583733582055709 -0.8455808081392792 1.0142716578821953 -0.08584604923154247
Ni 2.0002668774998096 0.33452133533943246 2.8855062760577432 -0.4564703128205881 0.3954593203548544 -0.3726868025450291
Ni 7.899846875654494 2.7106552132467545 10.364893386553959 -1.0669831293432979 0.46129164546863144 -0.15277212163013043
Ni 3.0557402249530883 8.099098205416643 1.064795160312917 -0.7953270541900496 1.1581277079696184 0.40238227272693283
Ni 0.6492023568880012 6.841386417760583 9.052259332487612 -1.1217843934538936 -1.1154754205167305 -1.3222381374307035
Ni 5.44197127370788 7.327732250983467 8.687917599863539 1.3120226303502824 -0.7759437645674314 -1.1603679101540467
Ni 3.410358175534772 8.919723823690243 11.956967012603084 -0.3494144622806498 -0.48037334469043075 1.309035008476868
Ni 2.9468766444500587 6.238995031709818 2.83656468416239 -0.10785726339531101 -0.08133042074937605 -0.22757219746015647
Ni 0.6226410446057156 0.38932374855302554 0.5662399741377844 1.065443809880636 -0.6123349573331132 0.8659341749846505
Ni 0.7307532377602527 6.050097174246525 11.3248713946737 -0.4994373033004173 1.491449892674096 0.9391077709548471
P 8.649703791019787 0.4529768593684909 2.77785413478897 1.6505217312700091 0.1754122276271495 0.2514865421839088
P 4.511689199937751 6.710451410112884 11.055200780168988 0.4729228019496565 -0.028132753680474132 0.7437684653864675
P 1.9386531149234425 7.724999500634173 4.231361792351783 0.3648763053616748 -0.4725854732148958 -1.1026106487389205
P 7.854929585324991 5.272729340502077 10.96425433062375 0.026711962073547542 0.28501912672371554 0.9380703308292682
P 6.178293997323644 0.08632933562959573 13.088638412774815 1.376851196789893 -0.4742163239500995 -1.4944151459500068
P 2.2092908525306942 3.918572607415615 3.1779941733696173 -0.16532681836668944 0.5884980028145155 -0.28697547911913807
P 7.6271255363201345 7.8972930806172865 8.03327390784572 -0.5723334772395111 -0.5184320992353652 -1.6835071850570944
P 6.429607711833474 3.246500416703442 8.717509354126799 0.7631108744688213 1.1121527839014007 0.38536105557858796
