# total energy = -381173.67857319367 ev
CRYSTAL
PRIMVEC
9.18034851668629 0.00000000000000 0.00000000000000
0.00000000000000 9.18034851668629 0.00000000000000
0.00000000000000 0.00000000000000 13.43636801802380
PRIMCOORD
 96 1
Ni 1.6509754681297524 1.0757073058981068 9.069467083309059 -0.10073222231475554 -0.724942590929216 0.8817433741027654
Ni 8.847533082461128 1.3697905816577822 7.798024654391671 -0.9066874456426127 0.037211833163606885 0.13571568036847595
Ni 5.016179003814373 0.7337815632815303 12.655432289370404 -0.05608115926428406 -0.8198129551465558 -0.4142278592116092
Ni 6.698762410960188 4.140584929014768 0.7375234732272019 0.679018574703592 1.397570945835748 -0.4037912372593175
Ni 0.9365607675110993 7.833572798875551 1.7192230950363203 -0.5383689473686083 0.944398072819509 -0.3109319899347355
Ni 3.203712029663254 0.8554872760679813 10.86318227812988 0.1221407698975187 -0.278753605429978 -0.5378097324310286
Ni 5.072252570909962 3.4538489783622577 2.320232035719066 -1.22532117509698 -1.6543362199200928 0.004160044914960577
Ni 8.408767518321216 6.392772223523536 10.645070056257374 0.152149400444467 3.7937827849949697 -1.4864406123849625
Ni 1.8636749566755448 7.64804714114229 10.959735672787895 0.4963653492433129 0.09037453322951533 2.020670340774217
Ni 6.502367220901915 0.2557801087667274 8.193040350923406 0.935300224283299 -0.6087382411207903 -0.6319308771871698
Ni 8.561923268133874 8.389488787001516 6.5063322133099994 1.109027608008858 -0.19222467119879796 0.7117389477547484
Ni 3.921624442964196 3.7107610240678985 5.291403090169257 2.1921698636105216 0.6664129701244393 -0.32649667714221187
Ni 7.572850908647207 1.0897991404579839 5.451335773058201 -0.9363947428990583 0.43140102855678614 0.3402929595953559
Ni 7.1408145397726965 6.285261165197333 4.412193794229795 0.2547248466155484 0.03128415482526225 -0.13589900002387564
Ni 4.074477241284686 5.04602431596692 0.7417978433712271 -0.005008251847868794 -1.4067376999366805 0.3184905190082838
Ni 4.379852345388758 2.7105529021570423 11.511876701714495 -0.28968876428524304 0.3559244954850257 2.1381340169110405
Ni 3.0977249091461334 6.284939853008671 5.415219365017802 -1.2081068681012226 -0.9921092628525431 0.959993870375237
Ni 3.644524811462353 1.9373931531027844 0.7922098897025971 -0.7203410876014626 -0.11105854394142807 -0.28323298135757025
Ni 2.8752024479755405 0.1403748689825199 2.378814591990691 -1.6964228646774977 -1.0479721354584337 -0.17967331689634863
Ni 4.930306026307474 0.8384228447455712 2.3715997563029987 1.2622224189987035 -0.7557906866583243 0.3780575799386392
Ni 0.871672230028283 5.563382841453482 12.208754183075992 0.3973249128086835 -0.032228521016402556 0.49517055760426326
Ni 2.711939134742411 9.095264779919292 12.869540961372186 -0.5776212080010117 1.5194620616163057 0.4215002245033063
Ni 7.1524093196092595 1.595186491829835 3.2609395665335508 0.4298694224036081 0.43207260070251396 -1.7749443552231687
Ni 0.9918907263986426 7.847655453087181 9.0049999238108 -2.544971754306166 0.599631907944148 -0.5243471791682195
P 8.027966673015873 7.189351040957107 2.1399970126808263 0.041685038443612085 0.42432869509103693 2.288672364114645
Ni 8.860266225480379 5.236562443843304 1.594251932378242 -0.882978274951131 -1.747588074697403 -0.626454941674263
P 7.7821812093861755 7.363272738505557 8.55195249190229 1.013795746687041 -0.02624762084261931 -0.7374641204349944
Ni 3.7635847478838813 4.537267776788244 7.917581247653388 0.5060841191929736 0.8593251543085654 -0.12620079889950522
P 8.477528326694818 2.774484847352471 1.443751139278755 -0.3318684829770865 -0.6162654027357708 1.3384234889413142
P 0.42337195619854207 0.8226583507350038 11.030988945710687 1.4095060067104368 1.0481135461323046 -0.23671221208821167
P 1.7082424804975131 7.29223520376658 13.150442175083308 -0.13855726358232912 -0.12960108283030583 -0.1798484090216322
Ni 1.3152225916747793 2.7554631657836994 11.2171361130203 0.40826212854647753 0.3836582139548683 1.558114483881181
Ni 1.5706198799195867 3.2217330532730517 1.8144875688003883 -0.5590503869773598 3.123540156711795 -1.6144321846363034
Ni 6.064804282382423 2.2202672236522902 7.10470823011537 -0.4060579218063072 0.08503640884605355 -0.3076736308984379
Ni 6.508591497013704 8.256970460049187 3.254825454600731 -0.49039421926154253 1.1685563595021102 -0.13112908943905802
Ni 6.015707779954917 5.214722395362555 9.953499734217743 -0.20040437879611295 0.244572845783211 0.2833057435770347
Ni 1.9416344739931186 5.73887437855225 1.0918206531420782 0.16236002242888167 -1.0981662398143215 0.7816945510082794
Ni 2.89532577133401 0.7085659007501854 5.319484857423464 -1.312128045579895 0.0801698247823716 -2.179772775497749
Ni 8.135073796019189 8.962535304957271 10.05983570796827 -0.9386434297239189 -1.1374596380973057 -0.3724250642432102
Ni 2.595440515481929 7.125749588298587 3.2978757796724496 -1.0118545638002703 -0.0956614926600675 -1.028663407827493
Ni 0.10723840198325202 8.79906084371445 12.698980189317137 1.0861458183146777 -0.454854631594036 -0.906486128265084
Ni 0.7402986925024142 3.1987179202166267 9.024388819309472 0.4217439650829963 -0.21573638116749297 -1.4849450016760426
Ni 7.88571717692122 0.08241933049619818 0.9628330881257287 1.3610890488596301 1.8787341334173255 2.035946807317313
Ni 8.795471327549688 8.665670383678611 3.839979933860085 0.5031106383869464 -0.711945921559232 0.5866509223034477
Ni 6.262319474926888 8.411494081750718 6.094441200629753 0.16222863905733997 -1.603381840359413 -1.7313752123829667
Ni 0.602024287198917 1.4474746885279317 5.70238065819888 -0.119154176465369 -1.308872771867391 -0.16227594735550763
Ni 3.0922350608941422 2.9987240336453422 9.653331723639642 0.2692634065513556 0.6108254626671222 -1.0616712302120812
Ni 6.74387464224829 8.124149181604691 12.13700333527819 0.28924550610023736 -0.09288804367998842 -2.231549393849409
Ni 1.9436082488663264 2.9983935411084333 4.982836897014361 -1.425903474231854 1.156289883429931 0.0128143781558489
Ni 4.388656299358089 0.11773613020424187 6.848516841747155 -0.2006874572541705 0.10690981188037718 0.7372615175058851
Ni 5.937087277563524 4.461364657478105 6.378095600780294 -0.6114659244645986 -0.8892689930558492 0.49779873925572976
Ni 7.266934163996535 6.151218900435923 6.789826875401035 0.8949537021454521 1.849170817937912 1.2308981549641254
Ni 8.457524347863567 4.020203022445603 6.032740998093284 -1.1369292195151322 -0.5703287881046565 0.23962064398425828
Ni 8.536585506970837 4.241550399040519 10.645096679267294 0.030911087756559666 -1.4465273211297924 0.055502918163310856
Ni 7.449916865265243 1.111630008590484 12.090083493420158 0.25467573854516784 0.7357903322769973 0.8770436546342508
Ni 6.087672529866888 6.205649185195213 1.7329284369349787 0.34672740236679 0.36453691974438507 0.1713966787098532
P 2.6365868363271203 3.349367434957723 13.082829828275466 -0.559688791892307 1.4189226720386467 -0.550703043453929
Ni 3.654136636077461 7.630475954596619 0.8852683257827962 0.45489808323746167 -1.2240227680005307 0.8500933512976522
P 4.057025399266233 1.2476093268321118 8.572026241380222 0.3305327948847985 0.7288882058405254 1.388157365831332
Ni 4.390675975972534 7.936328436809561 11.444372683015972 -0.4687054214341993 -0.10919860791455387 -0.1459988074620389
P 6.452655635141827 3.028982461469026 4.879927029229795 -0.33732384966470297 -1.1646621666540267 0.06579375856635766
P 3.6320670788905267 5.984164103376585 9.697402903436478 0.8499689099046459 0.7138598507524931 -1.414960087846473
P 1.2124302323477802 4.104689767367133 6.89991026730618 1.1238201929370002 0.7684176313937153 0.5387594979388076
Ni 7.873984691860945 2.146512305832061 10.031309611858884 -0.010054813132840748 0.0031881679199945094 -1.1209001910767278
Ni 5.578915990688212 2.9548786904153923 9.60771457319793 0.1834081013484325 -0.08243728066030964 -1.6516794990235362
Ni 1.9465367799572715 8.969796960421025 7.166018267851319 -0.41793359019797055 -0.6805080147649248 -0.22039779119890432
Ni 0.6480637336600137 1.4619520977142029 3.149739844281513 -0.30524368130070656 -0.826347413830964 0.9370565448527732
Ni 4.383983502100123 7.93734745546503 4.27558654016804 1.4999031656477717 1.3499150345206816 0.635206462614648
Ni 3.431403026897177 4.959361828510739 11.50553491714514 0.15158710018309376 -0.1572170447753615 1.4127687366221087
Ni 8.969080893257724 5.16347769144514 8.471616182423444 -1.34242181146743 1.4872602800727808 -1.9688446143521772
Ni 0.40684549328343417 6.199645237441363 5.911195941401164 0.3973400823173351 0.01522735847271571 0.022745778336947926
Ni 4.757522691941712 6.947026568616706 7.847053222242146 0.5023760742137671 -1.5586952960853158 -2.085226113168415
Ni 0.5472589197285934 5.852490368463024 3.5181646621144314 0.3867515081682113 0.9901449400373203 1.2485994288986304
Ni 2.09033775490575 6.469244524425018 7.722592486946628 0.8663728051839659 -1.3223404673365227 -0.5687789271190333
Ni 3.4988877668643794 8.197509344450278 9.23508423783284 -0.7607711705920511 0.9154572214154427 -0.5749259205570356
Ni 8.183702100686073 6.915262563680437 13.524376119899538 -0.1407514430201705 -0.8141855816574494 -1.2160461775529572
Ni 1.5222027232623936 5.4053247856766715 9.954817114191258 0.6483188316268899 -0.42555871084339614 -0.3175425532727177
Ni 5.744061275312075 0.737206751212664 10.233056944945435 -1.0993013818600292 -0.18756326116738664 1.6009292650538622
Ni 6.996958482734733 4.230185127910143 3.2067773479430866 0.9665077602343548 0.22087087418058093 -0.0004661410031411327
Ni 6.00146905982308 2.0499258619203564 0.7877234535140551 1.7804938242864885 -1.268981334989092 -0.9331063019557737
Ni 4.996009778714666 1.204746280864642 4.615929590746751 1.2237026656569505 0.604210785564082 0.5626237061509148
Ni 4.737004613608599 5.363076823041783 3.352521802615556 -1.1315322168692772 1.4589920292557066 1.6580020988074544
Ni 6.57704935389514 3.364964846630186 11.893899451371576 -0.2208233087720971 0.022932954647089537 -0.22662526016585485
Ni 0.974246097066992 1.2276328890456023 0.9217335870565994 -0.012577065334062212 -0.633516990727367 -1.4259821499885892
Ni 2.9302937178086492 2.229594457471727 3.1302839322406353 2.6491040034414053 -0.11033015041583578 1.3123692150564237
Ni 5.271043831860826 6.431559194869124 12.878113570565679 1.2262290316232303 -1.1793300530788464 -0.3372138064493999
Ni 2.772492711782769 2.5271295441724537 7.178957050671314 -0.368227738332411 -1.0303713916575352 0.22894002434196056
Ni 9.231115573285456 3.570512843891194 3.811010426930347 -0.8594619369967456 0.21817970050166294 -0.7103238125747767
P 5.2107656652678935 6.314739263419981 5.6329414220897895 0.5843094186544647 1.266782013344928 -0.20589059872166476
Ni 6.002607423005767 8.381180571837548 0.7893447030145596 -2.6609305637626885 -0.49983556718010047 0.7046938679825089
P 1.4556911002094237 8.108028490082122 5.133390936133684 -0.2850134702967608 -0.23538732262920103 -0.06890710738435875
Ni 5.982144426762141 7.599079163590249 9.650979718418636 0.3209554356090085 0.0061824746616280625 1.4449414646999115
P 7.368239306907442 5.406059213536469 12.127960692254424 -1.5071289939722496 -0.7465503990069788 1.1806300028371925
P 2.576565719485117 4.836905163237644 3.551648146277454 -0.21483623795072676 -0.7783847699087563 -0.16904874730296693
P 7.2716069612545 3.7112934842662524 8.278750836266326 -0.1872092202620776 -0.051731881156652844 0.4958207895937526
Ni 8.858274089910676 3.719050878535371 12.979060679894934 0.1230781941101235 -0.7518622981381955 0.25342849640162807
