# total energy = -381170.0552487221 ev
CRYSTAL
PRIMVEC
9.20839405133764 0.00000000000000 0.00000000000000

0.00000000000000 9.20839405133764 0.00000000000000

0.00000000000000 0.00000000000000 13.47741549286548

PRIMCOORD
 96 1
Ni 7.07144813112582 3.528969708482974 0.8667649583000798 -0.11087393873444776 -1.3173270732823312 -1.5774082991137865
Ni 4.611729521553479 0.32863008984931197 0.7718098399130507 0.7710779518346979 3.560223773823759 0.024861282018053956
Ni 4.275273217549787 3.0694616339827756 7.84757578703721 0.8011472604162525 0.07172452222849582 -1.944741550656386
Ni 6.408821299339689 1.6180069291282697 8.621084575663618 -0.10257158951633948 0.019064215720302653 -1.0909712647277792
Ni 0.908960582631902 1.5939546037120553 5.430859457120758 -0.6538965828249834 -0.615165999024005 -0.43697338043824097
Ni 3.999297646062824 2.9901497355103963 11.212158164701762 -1.4779094349855 0.9095645100800916 2.210515455997245
Ni 6.277841101514178 3.523417046834437 11.801148231305719 -0.27447400421801765 -1.1790102078455824 0.39941753367165406
Ni 2.950526015653593 6.094106013830515 2.162532423091615 -0.4513949551802097 1.072685321934398 -1.572529887975563
Ni 4.846294944726232 6.309011515577686 9.826208292190588 1.9537581523326997 0.9696254799277301 -1.0819904013854076
Ni 2.1563572740012193 3.72383774464604 6.904479687438268 -0.5643735989624861 -0.9445824209161732 -0.5970448639432622
Ni 2.53419610113679 1.908356803821477 0.543677400865783 0.5806106296466388 -1.2050932780858796 0.9782877835884185
Ni 5.2495857731827895 7.40301477785692 0.5629920075122263 -0.0367444066088851 -1.7780898428306864 0.26472952323674404
Ni 1.6311841411001697 7.622285058412394 3.1649416308340945 -0.29564703875120696 -1.5459045720785505 0.3242708731354867
Ni 5.442860757164767 3.8164741893960854 9.61090682949667 0.9077835069202689 1.0304017306748383 -0.3282632821243314
Ni 2.935737334712383 8.854128772129345 4.6254758122813975 -0.9145611919637346 0.6728204163126799 1.523329772101828
Ni 7.933316986277431 8.882684002265515 9.278054690947767 0.2817731089825921 0.0361939334220538 -0.14210178640047783
Ni 6.868338582233997 8.900796913480558 6.53370277774592 0.312126781573785 0.1975522540592985 -0.26384094998420365
Ni 2.0443832016194556 1.7711609399714852 3.0928509550230454 0.779811989273586 0.21769556177639282 0.24232415895835038
Ni 8.63866155834144 3.510156959315544 12.456797862874444 -0.16481671149949037 3.412335976869123 -1.9678513972009726
Ni 7.123411099090482 5.862781945384602 8.491499449545826 -0.5230541713884088 -0.8315536406222518 -0.18505592136450064
Ni 1.3675846512975072 4.768161720699976 10.637940203929617 -3.311897631645703 -0.4329547461971512 0.6861760116839796
Ni 5.17671054219354 8.221990933242555 4.83449715019206 0.5419620640365053 2.17439197080181 -0.36124539347730694
Ni 4.853053906003223 1.159640695497754 3.7460207660578555 -0.5732917273877224 0.24788057000020533 -0.9445052878213347
Ni 0.26759593284655125 3.295813169609103 1.0858888253891994 -0.0847849549568798 -0.49155172990475343 0.6042735204812173
P 3.6884683028682153 8.061764875722597 10.513839597343942 0.5758237497809567 -0.048578166019019556 -0.10936315851687617
Ni 1.3197010019237265 0.12986782381698148 1.6044595397131338 -1.3574542803205203 1.1064323364778557 -0.15410138196451525
P 3.525350809597609 6.0436348057117275 13.006379686043777 -0.3439647520199883 0.34157851117599886 1.9398502840023557
Ni 8.946709966514726 6.651637443635308 9.935725565023713 0.5725962439825945 -0.2758415739895056 -0.8458816272091496
P 1.7587480247107434 3.003833409158365 12.465409553046436 -0.6977372341590177 0.90217953046993 -1.1918613527766377
P 7.837024809065579 1.7875150479114534 6.137251023595113 0.4952399773896181 -0.6668068631287484 -0.04298858774638403
P 6.42311272699894 1.4508009088726717 13.671490021721468 -0.22533045261383128 0.4545556122963785 -0.2516580347647666
Ni 1.715496197574465 8.897979144882793 9.873945528098012 -0.6591539745691808 0.32001569740355856 -1.6997074489660404
Ni -0.017995964609842225 1.5891294051982359 12.944141071091384 1.5049458702780019 -3.990788165411862 -0.12924138549804196
Ni 9.276352058876764 2.8697868160941105 7.382443225414415 -0.5742582050660496 0.271425704309997 0.4029815968738286
Ni 5.521684610749298 5.930242640636972 12.1389056813972 -0.4716817304537038 -0.9605893378673909 0.3358171832121894
Ni 4.73196352345222 3.0464222319186987 0.15592021243396229 -0.04661487164506166 -1.4127209141033088 -0.057202417352920844
Ni 3.303087800956274 5.381947230124852 10.986546983961905 1.4980375731939426 -0.218157846124792 1.8782764770546168
Ni 2.964835860101065 5.728228890644279 8.583617461707457 0.0934266897922778 0.5956806366058838 -1.1295534958763516
Ni 4.015789879914448 8.390790005679243 2.7131787366201054 -0.4953333084343727 -1.230113711389617 -0.8311427783370782
Ni 3.526943861778699 8.422687882877469 8.413600118729972 -1.4522912201967635 -0.7232893715965092 0.1627803977957519
Ni 3.8739253602505115 4.603147298242639 5.90151797604917 1.9415430983237465 0.27426368797942446 -0.09942893012229972
Ni 0.751137915974743 4.934538985485643 2.5981355064813645 -1.0925527502822863 0.7644437343476318 1.4332329180137315
Ni 1.7169787490262303 5.829208140458294 5.796043188230484 1.3845058851216738 0.6932594008933223 -0.1669088181418287
Ni 6.404659105201814 2.771708210424853 2.928211314206 0.05352342583943685 -2.2049009380239446 -0.25385709929861444
Ni 3.914405460759577 6.307842049525673 4.201652106637599 -0.5280387690871938 1.071328036575555 0.07248042655791388
Ni 1.9096275622087044 7.399165669118797 11.562732778555432 0.10249214242865574 -1.3544985401263059 1.0398847304646093
Ni 6.869609340621224 3.2983178528071164 7.232291151051172 0.27606166042011165 3.0683339438532964 1.5733456990086387
Ni 4.1668627936887255 1.5071286556456365 9.692526351533104 -0.3830640320142951 -1.5139825265589733 -1.2169702320291234
Ni 5.01403505184023 8.935116598329806 12.029091898273723 0.8116625581252794 -2.4973294698378536 1.6242442856307187
Ni 3.085631574040537 0.6106288719238498 11.662667796477335 -1.8991630906956387 1.2802396815117307 1.0924684180985962
Ni 7.3697080163598105 5.856695196877666 0.23170897931972467 -0.4484736677683566 0.2410398929292881 0.42810924517939175
Ni 9.188117226511464 6.008385073057338 12.209986196374345 0.09231185946154424 0.5611923730210271 -2.0590581965237957
Ni 2.7087872534688833 4.311259621733005 3.62616614999646 -0.08919645376101412 -1.0065256953881891 0.9907851447244808
Ni 5.887699859847189 8.00080530671213 8.545260816880237 0.13043592002677537 0.3541396356704611 -0.2269461338403833
Ni 5.649478704212631 2.336289294917311 5.685434720695285 -1.0540556226483524 -0.6926148253307878 -1.1515251150514363
Ni 8.642271248832696 7.765116459457916 1.7225489066235764 -1.330127053260477 0.803381806173726 0.6232652310923718
P 7.484242022304251 5.165144799190949 11.350032687197686 -0.016033913534411096 0.906398196536968 -0.9570317024231196
Ni 8.975099445556912 2.213817653249756 3.218582368205661 -0.5697312637299737 1.8563663072450869 0.15315701577337493
P 3.7534427317107912 2.990969282586217 2.2671434635427494 0.8115478869242861 -0.2767689708997814 -0.010922817560090866
Ni 5.1131449976498455 4.339151847493232 3.8419667076511574 -0.513568857605793 -0.028066933439545208 0.10255899111084918
P 0.9052845917030533 4.877465358789741 8.244229205019032 -0.5391371929932005 0.6357031997454085 0.5424588011672657
P 7.985233912271541 1.8410434428748739 9.938718293109574 1.2401194164520772 -1.0189590360555354 1.1399446093026884
P 0.7662995368774218 8.245628880923805 13.252086345250634 -1.3558730518763293 0.5519705973124429 -0.058180722105790124
Ni 9.02964076387247 8.744429173092835 11.270206039494537 0.144513481165764 0.5052063445737106 1.6699872961937885
Ni 7.229694383912055 4.851110934845941 2.6586226848739707 1.093338222298059 2.636148214611686 0.3893688911864004
Ni 7.198496344666214 0.922782382191526 4.29363475540581 -0.018425553695039235 0.29300111648792765 -0.0511235581486926
Ni 0.5394940274214545 3.8609783581313706 4.92038844625628 0.787943874352101 -0.7793322214236901 -1.155210020102191
Ni 9.306831843382 9.187325304617975 3.577728155297237 -0.6334961647917606 1.3664107181828595 -0.7001916092367813
Ni 8.663201928645503 5.238231823244737 6.2994117647176555 -1.2373832484678366 1.348468531882142 2.8140922075217536
Ni 6.3182659516585815 8.814956263583946 2.2915245286287034 0.4162495176273283 0.1912257976206384 -0.011403613851251328
Ni 6.220739849635944 0.6233751310513859 10.592804339358363 1.6253897120890717 0.7565301359275101 0.3907680855267722
Ni 7.30163035870205 8.706987842640181 13.176114331322076 -0.018175899578078376 -0.35419954237411905 -0.29504540061146606
Ni 1.3612032341790399 1.928928356263982 10.585944085746158 -1.1191765235174016 0.5207671751264451 0.13127435676767069
Ni 1.2185191674392837 7.260238627176061 7.8133021441585155 0.3867363386595598 -0.012452623941055972 -0.0044876034577084
Ni 0.5737428076360511 6.248853076854819 0.710130174483155 2.365981065299138 -1.2526504590395524 1.4154329137178334
Ni 6.878053438020408 7.405353709960947 11.007692219357484 0.23265526841001868 0.21240011770540843 -0.27654939868980755
Ni 6.024518179538657 6.228806402876604 5.257593392701144 1.220092322597873 -1.9036434950644954 1.0682897639698634
Ni 8.57516968095063 3.8174686959600024 9.630503213002891 -0.6211206739455432 1.002224496909674 0.012418942489643129
Ni 0.5068217242785484 8.17395994956301 5.474323998160985 0.272871178507272 -1.5087683293478855 0.8127043691262326
Ni 4.756098724415427 4.985102277545534 1.347386038816471 1.528012265179162 0.6432339609048148 0.13053773571196228
Ni 2.86144401103014 8.252433884171348 0.5243480607887632 0.2983006743239701 -2.56956204205102 -1.5287915665473477
Ni 2.566941150593168 3.541916710602115 9.223121095043108 0.4800568418912764 -0.6060254701753176 1.0401081593293249
Ni 2.3818248037929544 4.29982279624796 0.7978861703547184 0.4414748678530203 0.36515681271657113 -0.8657601113006316
Ni 3.2607291880486984 2.064107581803809 5.127766085818247 -0.08539507773705293 0.9963215011616775 1.4134930163826431
Ni 2.103979928301592 1.5577379896760786 8.245118735890092 0.1098390697120302 -0.9940684434614427 -0.864745296882872
Ni 7.260487253817041 4.026287449200238 4.924647328532314 0.06853095499186261 -0.8083980284413949 -0.6849804487139816
Ni 9.128511291435217 0.32020717175658175 7.36876323512409 0.6524359391190571 0.8058238399563153 0.11557211554106546
Ni 4.689135282445018 0.7902450449219564 7.473011464847278 -0.2640661786211323 -0.09321637355368462 -2.5611303663438987
P 5.860811349044989 6.72268941259071 2.910191407771471 -0.6838720461411512 -0.5654825157559487 -0.11972470425685831
Ni 8.144005043522066 0.940526957642156 1.4329191283497977 -0.29090309630831834 0.9126580614037508 0.9732504782748271
P 2.1228571362277937 9.358675102223225 6.608057797668702 0.5468677288682388 -0.7809751563437517 0.2735658905814514
Ni 4.0938310199996 7.047405014103716 6.568110863178625 -0.640820980587948 0.2567259362059772 0.1481060836130288
P 5.089580717121478 5.5055883378444195 7.670199095486739 0.19848042230052268 -0.839553885218909 0.0910360780729142
P 8.320714126499537 7.482160925235313 7.602381114542888 -1.0837012134289272 -0.297378676730333 -0.3410414077256062
P 9.26088195677139 6.078368868295939 4.425174823593229 -0.24754375548607688 0.8038227503658867 -1.350557296090371
Ni 7.462887756362367 7.782244072503152 4.104843338516158 1.2431124376421299 -1.434741127128142 0.26496272229347273
