# total energy = -340866.68770962674 ev
CRYSTAL
PRIMVEC
9.28725379351741 0.00000000000000 0.00000000000000
0.00000000000000 9.28725379351741 0.00000000000000
0.00000000000000 0.00000000000000 13.59283469681096
PRIMCOORD
 96 1
Ni 9.226041396422021 4.446542032272245 2.617245604727145 -0.17395364080375203 1.3302039292449994 -0.5383560918528019
Ni 2.2881378395022383 5.047483069243809 1.6651219292456987 -0.28686877833794466 0.4835095763265673 0.5464434968466266
Ni 5.039254562478488 7.607523834895344 4.635700171710911 -0.056060590438993765 -0.2659302284130646 -0.48865126842850676
Ni 6.849591061624716 0.4521610903811842 12.805048059780017 -0.6637860740245536 -1.0077981343427094 -0.008671559632068936
Ni 5.987120960870518 0.39286197559950353 3.371811748536792 -0.6576485936682481 -0.8123675546121041 -0.6224887579376635
Ni 2.555954374029932 7.306746837037942 5.305867468928546 0.10315960080932557 -0.005249164214081282 -1.7132977860559657
Ni 4.848912298194926 3.9473614339322998 11.26014127096432 0.2040707719041066 0.23176489538526535 0.8597547856468161
Ni 3.592467608849706 7.421704463156602 0.15423063577837684 0.025688920125671883 -0.6525395545764567 0.14625386089563844
Ni 4.123754243180296 6.38701153005918 11.625135913155221 -0.24768208083615403 -0.31474904968798056 -1.7324180518251842
Ni 7.455677237138025 9.470212583066527 8.693148067203845 0.06861271607239151 -0.1484711802619314 -1.4425395401266383
Ni 7.813180780506235 3.8713824115315276 7.074880332801307 0.15624491067007928 -0.04231984381413357 -0.8803956018256192
Ni 5.900359436940924 1.5961352801447115 10.659419413179732 0.1377864468545756 0.008317004506127611 -0.14152637351298206
Ni 1.469020638951781 8.169291235821625 7.493566445998609 -1.4524035774049115 -0.39399919086956015 0.619632776546107
Ni 2.1420214772688504 8.905426824692471 11.532350676485237 0.9212296051228458 -0.43964449951250084 0.8605919368361308
Ni 8.322280165782255 7.444179617075423 7.041115593302438 1.2747390634084754 0.5280899340401035 -0.6862351470566891
Ni 3.9597413430950215 4.970528885206062 13.55583522006505 1.1376848667342343 0.11221322637116159 -0.28103777347846437
Ni 8.268636988495022 0.6411019080836101 3.428166803900181 1.2235612549830799 0.41728618642195875 -0.7268115258171547
Ni 4.973779423995975 2.4485287106501827 3.714717586562191 -0.42551217387617685 1.0682260006114634 0.40960167329350744
Ni 2.570173159422376 5.965398074500221 7.163464944629357 -1.533652751294391 -0.5817781675921786 2.724851530786365
Ni 2.442464133993575 7.5435625187635615 9.686349265736094 -1.0331456119685627 -0.0905668517459795 0.17808231826014492
Ni 2.993922683328992 2.7606825942722764 2.3215338750297945 -2.192075504124502 -1.9917801401024275 0.4483481979340859
Ni 8.610157168270549 2.2611583675459683 12.729064393752402 -0.2572296153152731 -0.4302340048318784 -0.41926850695931017
Ni 8.201434420827011 6.194208143548971 11.83131201624713 0.1726061256369221 -0.13307721430436434 -0.042700881302636134
Ni 0.7266050091388243 3.8523435414763285 6.6000685594066475 2.1569359801088916 -0.7088572553315792 -0.1588761776453393
P 0.7142780373221096 1.997883300070466 1.9148088158540004 0.527437388057769 -1.1802664488501866 2.057080761082451
P 6.9661739571383325 3.1948245550529255 3.5859665312698814 0.49988338969890034 0.028121697936880602 -0.8625632016298886
P 0.4672380180141647 5.685656706240391 7.6757108514540136 -0.9554599870606253 0.8744321851533327 -0.19551131236986974
P 1.739511902540888 0.10212264152535014 5.749456424158048 -0.1978967818829108 0.609021576689164 -0.8518653555964103
P 0.6378262937087474 4.002611306107118 11.992944593212822 -1.380611949383906 0.2570020726854993 1.3205435233371
P 2.334174756021078 2.7495007408349794 7.808974583312089 -0.932091230427698 -0.27684250445019415 -0.18041096639332155
P 4.150780151404994 5.790769843452462 5.956502742920284 3.308371363659999 0.3019706669763896 -1.8157351639872856
P 8.365475182673343 1.3848688333078014 10.2484259322101 -1.2548101856950327 1.153638561850013 1.7815605749881058
Ni -0.1963409014390028 9.12699283586656 12.24639653246521 0.4187087778010982 -0.7889100949201123 -0.8395608271974444
Ni 6.689776000205271 6.173088928668228 5.979053123593956 -1.3014883064778617 0.4119953703366647 1.0957941400377191
Ni 8.538914645249363 3.9822907950433253 4.768053752707812 -1.0752343136084965 -2.164649289592749 0.9722999414360998
Ni 1.7246337221367765 0.5042737282610537 3.4018244375467344 1.23395879616732 2.3023953701276927 -0.20560186383665235
Ni 1.2782511609986873 1.7522168655826014 11.263103904889983 -0.6147934461759348 1.5929315915603663 -2.2969536302868314
Ni 0.7160472591491902 3.544823997443281 0.5900136542852472 0.7962649926232866 0.29266918706980566 -1.2917767356170529
Ni 8.668499695922627 5.5934900006658586 9.541353875022542 -0.4625268034273131 -0.11161595910679488 -0.6016345401964736
Ni 8.630607700885939 6.124498017385886 4.648055934014051 1.3087820119257976 1.9483557503702056 -0.2821754866273334
Ni 6.589835863296004 6.746613992760304 8.397938777930879 1.3495491665408306 0.9892296273119029 -0.047726616652001674
Ni 5.602145721100709 8.373109305202794 1.121362513215531 -0.6742818313495549 0.16394459330718217 0.18549995088045473
Ni 7.3163312828413405 7.6036789118695625 2.760351039315706 0.5330146250352304 0.421865578262525 -1.2708453847810244
Ni 0.7684366571888864 9.743072096345427 9.325662980529875 -1.1221744298034608 -2.1077764876651055 0.10503727744801265
Ni 0.6153920037061432 8.122789956618512 4.212636975851651 -2.4150999343129764 -0.5857826607658815 1.642632044109287
Ni 9.419689923017607 2.8585145245949426 8.983436040748884 -0.6081162912660752 -0.039843871469815245 -0.6882976860126726
Ni 3.8692649176912424 5.678273339560449 3.6343568378726174 -1.268245742374648 1.5552453898635021 1.611380028073541
Ni 6.279762324499455 5.657590625602923 10.447235385678699 -0.3507151833699444 0.5203403720016716 0.4558475916349246
Ni 7.3871373049393085 3.541824214502876 11.031890294587434 1.0307336600929604 0.17416164304950008 -1.1180493518914938
Ni 1.867536694594994 7.424184159890621 2.4458539815887694 1.7124076701415283 -0.2704155178779279 -0.4590676412341191
Ni 3.5862730106415017 8.774253653638993 6.922762547236373 0.6893112148788516 -0.7522387076410078 0.3983507829700365
Ni -0.07665049084223101 0.13106636763609528 1.1126603565122521 -0.3464648927340227 -0.7505572061735267 0.19754659763234367
Ni 1.6768600891787553 6.111050074049335 11.83577082674152 -0.053368902539443576 -0.10019537597467906 -0.09638885774439529
Ni 2.956049262799674 0.7428316987780652 9.005565708830606 0.045567918437786036 -0.8441757002616365 1.3136462819966344
Ni 2.7472532254430972 3.348714348621046 12.320667628913224 0.3674975450346058 -0.5057974411904902 0.05116700979211833
Ni 1.3888995014072922 3.1974528478459114 4.067845904719178 -0.9643418629312875 -0.539366278284871 -0.5233812157105243
P 5.866869600151145 2.1356782830016794 6.098737961838517 0.144083592717197 0.5153215786308415 -0.024474073881964303
P 5.52282328737317 7.728443877880071 12.499127780831607 0.9940836129700945 1.170783706170732 0.007550558653748287
P 9.16922197837436 7.6959199154735805 10.19794227862666 0.08780471561981008 0.1184718056863637 0.6220472995248706
P 9.203027581789444 6.690853321632784 2.2023245441739294 -1.2312619660614472 -0.2723705847217696 -0.1706582578819319
P 1.5166363885971492 5.605154791294799 4.141817951598521 0.4207494623802108 -0.7431727407839975 -0.37951436698982377
P 5.318596578829841 8.916878008486647 8.351654820464006 -0.06853892541166261 -0.13655077467526158 1.1395612578213405
P 3.645042751963111 1.4969938470523951 11.066021880606879 -0.48313496659596794 -0.645823576008862 0.6108583727875866
P 6.556290302984113 4.620789485918901 8.534899765481137 -0.5761258544024078 1.3708134752362457 1.4496149589161809
Ni 6.917908099734982 8.527444886947816 10.7737213591882 1.1763007793342193 -1.4897028280760023 0.28958643437942383
Ni 6.392881074388392 2.575355446978864 8.401798560562558 -0.2585804729162128 -1.341269957251174 0.43185945625044336
Ni 5.8467719831758025 4.1758928853704855 5.207251694394826 -1.2441167105369282 -1.4669264536114348 1.2342357039777905
Ni 7.613272644926646 3.017577318465866 1.4912023156541405 0.07961086695510806 -1.086905579298838 0.034041920076057504
Ni 3.1383209036305697 3.9377955626362726 5.26757705070875 0.6379038069411531 -0.06502448450050091 0.8856005430653263
Ni 6.156278999497539 2.661634033716815 12.910828021806703 -0.6429390553722153 -0.1746835769912411 1.4316210934419216
Ni 6.531121845496508 5.6835113506390496 3.711822749588432 -0.6375348536375085 -0.8338532352897058 -1.8353732499331876
Ni 4.398721963045797 4.0765935689655155 7.4980930534449035 0.32699624248644976 1.1800941849383806 0.305876429788699
Ni 4.253887241821003 1.7429574736581948 7.545328025689168 1.1966896274032164 -0.34163250434238585 -1.5915077146296461
Ni 2.6662590860521753 0.03926465113140008 1.1350900028880138 0.38886418363583997 -0.10597624432251426 1.061916256343352
Ni 3.4392743593079946 3.0854114193844873 9.715478736920547 -0.28854873714352886 0.545442566385938 -1.5289185790435154
Ni 1.4544489379192895 4.351486990801533 10.12267930348504 -0.8794926303953756 -0.4566384629673362 -0.0853238581794853
Ni 4.297620919425848 1.014177389706235 13.133831699851301 0.08763193748737166 -1.5086978811212661 -1.1128922331705866
Ni 7.736811693450674 7.566539184381396 0.1602599208709794 -0.04036220586713049 -0.01935989258385053 0.18170140306997096
Ni 4.168063730513641 0.7179622908591327 4.991288683369178 -2.3276299763247654 0.28551637807510827 -0.7925060398014868
Ni 0.3948085839719766 1.3002340904721779 7.143918061797564 1.1889259242973977 -0.3036521684438706 -0.665744483302505
Ni 7.198243852230679 5.300254252801053 1.0938954604407745 -0.7828726304767808 0.8864240674078863 0.45640732079313656
Ni 8.03166342345675 1.4922852094338654 5.601797449087505 -1.3439698726808402 0.5096448399610385 0.18596583477327971
Ni 1.5497082989710826 1.4190180651092488 13.376531785512029 0.29847730911115045 0.20992260269919333 1.1678271946455694
Ni 4.405891722890974 6.845402510212573 8.57522966461026 -0.6304396373536238 0.11376411579804924 0.0077891570271156185
Ni 5.849604595549868 9.22870683822975 6.229745819776394 2.864700002376292 -0.30628369252944665 0.9398675319390072
Ni 4.590568762426404 8.827014541826108 10.635427650734076 -0.7367249282761247 -0.537738512873461 -0.27754672960607035
Ni 4.5468443720752445 4.292837983777834 2.1721753325348114 2.7024281687858425 -1.7931212832425116 -1.0281167912954037
Ni 0.14840381281611742 5.716081749313969 13.90329459857243 0.7073963545153366 1.2180765777194247 -0.7326394453528414
P 4.141799377091151 2.7745484640246727 0.5766214344708097 -0.01694614093603533 1.2113379734440104 -0.5103994587388757
P 1.4557955897036816 7.620145212653888 -0.2521535811871607 -0.8754475137917246 1.3198130729289785 0.4706710298010023
P 3.8491394389548437 8.85527565479097 2.990002533548358 0.1596127987010477 0.18634044450387907 0.21975964339427315
P 6.4123192963520665 4.737576701013596 12.732856379432176 0.3857444070599357 1.084298994913926 -0.9380747017046425
P 5.230061189446324 6.2309949553970885 1.9022626648503087 0.4629320092855318 1.7596987419180083 -0.5438477110949924
P 3.0694652048065474 5.4300621975627665 9.509764210336808 1.7115388943833298 0.6132831801789954 0.15122637440956535
P 6.987525353361211 0.8744422994801286 1.258346718900003 0.5538619007978848 -0.30915715742249983 1.2890914754754057
P 7.387768838189921 8.078331873226201 4.834604355167102 0.04226353665490141 0.9003561041079462 1.1717342430094595
