# total energy = -340890.03329164453 ev
CRYSTAL
PRIMVEC
9.09101919012645 0.00000000000000 0.00000000000000

0.00000000000000 9.09101919012645 0.00000000000000

0.00000000000000 0.00000000000000 13.30562551905425

PRIMCOORD
 96 1
Ni 6.53539712285326 1.7132297850046465 11.494956120255166 1.1013158411868966 1.72343667426218 0.21415258162014086
Ni 4.71756607437038 0.5259263526622596 5.968424819851679 -0.11509594723559533 -1.8257156722387653 -0.4463103415684507
Ni 3.076128065629214 1.6861749127544101 4.565186961056422 -0.3682385369656884 -0.012559581832565465 0.3753964881667083
Ni 3.502378668853959 4.436380859753506 5.1270301111938945 0.20375709731842973 0.08177599292722691 -1.0592538790198402
Ni 5.3228370217993115 4.325852251951632 3.082368141003059 -1.0569429714984764 1.1624530748178497 -0.6815688519292713
Ni 7.0780945871846175 6.176692790065093 2.4143991635176065 0.5955245706439938 -1.0681493817372574 0.9323617104802652
Ni 4.989605723972557 4.894659122567493 11.308969328266922 0.7852640135270927 -0.691561701475925 0.36228000538940835
Ni 5.419038183812753 7.8122670916149275 12.311229616383018 0.09225889473642175 -0.31297061763131906 1.2449811154197528
Ni 1.8185492389760813 6.318876325681256 0.5310409598961249 0.6116183908820627 0.5424199775095303 -1.065675723385784
Ni 2.8069702690187457 1.774585071569447 0.3479660212619637 0.20376609617949423 -0.867990543293047 1.2450335659242426
Ni 0.4977987401816709 -0.18368403690054752 4.774231304284005 1.3268075019689407 0.601529639187493 -0.2602172371886874
Ni 8.871298065463904 2.1920082954410405 1.2672489434584338 -0.844549024440655 -0.49936119864684325 1.3078024216213477
Ni 7.081603720480515 0.6535742581571509 4.829489244471711 -0.9991170616289439 -0.09092166398223696 -0.2799100876319244
Ni 0.7097158453820621 7.695602046054684 2.3150852366323633 0.36126673363354556 -1.1523548100415832 1.6527642474472828
Ni 7.6285830547143805 3.931338395711288 3.8750640796104183 1.17562200809964 -0.453749057234683 -0.07342993495537677
Ni 7.727020607377539 3.6566350775710332 12.910102304709222 -0.8592256526162234 0.15626805059853088 -1.5681351013419766
Ni 7.595037194968623 8.786733407644112 7.084353753698155 0.39856855540779745 -0.1361280853155462 -0.16434902783445243
Ni 6.891683244613683 0.6883101322770866 0.4399462231995371 -0.38755652056800993 0.10909113580241213 -0.11118967020265366
Ni 1.7029842067028935 6.820164198917241 9.183609110595013 1.1940203081011695 -0.5767837997013808 -0.3923495710812791
Ni -0.1688656760914462 4.808994451460645 1.3131722254382958 0.1898577136285182 0.8891406950081009 1.1842480592057538
Ni 6.388249890916993 1.9195050038748975 7.0665508113837605 0.7035245302647561 0.8333963502579453 0.4911686355337218
Ni 3.4858602875103166 4.323688589453126 0.7205505217086184 -1.101468050494045 0.8054217194218902 -0.3132174435348025
Ni 6.147065159465792 5.6531319205209485 4.797423402603084 -0.25951609735660464 0.06746600406245801 0.3947453250069653
Ni 5.267318169369138 2.8626073046946354 9.540186144960277 -1.1144760327179386 -0.8802143390527485 -0.8675773670150283
P 0.12278057397514104 5.672695793196524 12.566749975539663 -0.14774484361886814 0.011795707083347427 -0.9671114552566247
P 3.9019744046601237 6.158928939131974 12.773972478579427 0.03966672246200266 -0.002439205569111928 -0.2331761739104952
P 2.6231407758157776 8.346118994555331 1.4701913947994723 -1.3439331059056339 1.0644796461951538 -1.0242135995862554
P 6.342476610749002 7.747484490924341 5.5257194724156005 0.33839754234485586 0.5881035955895743 1.4184878984940732
P 4.757693831800671 1.1795778844800715 12.638201747696234 -0.8583010839194251 -1.216911096656414 0.20340871284007547
P 3.941711248277659 6.285212282689782 8.030583365019936 0.1498462062325871 0.4892811887030219 0.85190057970972
P 5.020815191860682 1.1037769688811223 3.6970082925116587 -0.7403866933984281 -0.028931338322369528 1.1163423965027162
P 0.06978357018818573 5.610722317346435 3.5819278115459094 0.3214460020921819 0.07347775747417667 -1.0054574020246747
Ni 1.6486744597865923 1.096122330966237 2.5901931051137255 -0.01872148766890324 0.18058940095271478 -0.24975490420478275
Ni 1.6294287727725631 6.363595047656697 4.980441976920058 2.528357285677936 1.1615249065766253 -0.8941592312686149
Ni 6.137601408789549 5.501202812642605 9.160337011309602 -0.7984314041469863 1.3854278827153108 0.6140467978178973
Ni 8.632467907908136 2.296127734917505 10.323222875985017 0.10549364825914088 0.657906475315325 -0.05265773540503189
Ni 2.3604285116063233 5.012442363452595 7.178344889016693 -1.1782586743915386 -0.12641677156505324 -0.5989068568526653
Ni 0.5258599882242802 0.029271262658370847 9.4989520105297 -0.8593614068631394 0.5874417936358592 -0.7902018171483423
Ni 1.6517017690807216 1.3676801565666454 11.599791022919161 -0.4224481902388725 -1.2421732136573123 -1.3164392713607391
Ni 4.246024014979413 6.865092014327413 1.700299628821343 0.05445262252192558 -0.3721579266247526 -1.314621244315394
Ni 5.507121065947343 8.009914933547854 8.216011059345751 -0.5316791940532586 -0.7685898953055215 -1.3956660155035512
Ni 5.473238838502239 2.895689522476427 4.960004457328069 0.14021382534914562 -0.2890881545867666 0.24127514886854573
Ni 0.6502342178128172 7.5794551885718136 6.901840640032093 -0.019000966582535018 0.09700977915784584 0.646785425701499
Ni 5.134552929334712 4.677001948032828 7.1322543322890475 -0.08890694754505334 -0.8151574586524156 -0.7251392803210543
Ni 8.177253318463885 7.08304919248582 8.98472943560096 -0.06168179328051312 0.6689727604318156 0.7326199049688157
Ni 4.901704662215992 0.4252360455153611 10.586726967940772 -2.7058503070935136 -0.5770532513126836 -0.6581877540011697
Ni 8.313927696625866 7.046257838992302 4.949918880958979 -1.0046292496964246 0.5196867975780727 -0.7553417720463637
Ni 7.109158598770322 6.243366322687147 6.98100886903208 0.3259035236429032 -0.35986856773443826 0.1345867089703553
Ni 2.230326940109974 5.4090380630213355 2.708013619176323 -0.7948773682471407 -0.7063290895930867 0.20773485101925512
Ni 2.452193256395936 5.468320597276642 11.317085789941991 -0.5618423479002002 -0.4626095929491065 0.3744513506446196
Ni 1.110804326491819 3.170520114881299 3.95589505596745 -0.36918007494335126 0.45307568531674225 -0.4249498736148037
Ni 3.9004107494091023 2.743214953464005 2.387068833394661 -1.0070957089590464 -1.4202879278172893 0.5461318791434787
Ni 0.7857085814798284 3.2061750910121556 8.391258630705902 1.7958494808069525 0.14890955335093062 -1.0790346611911934
Ni 3.850037413677059 2.5582854469739806 6.912631679467924 -0.7486558753857558 0.7926466791444091 0.4128579754472761
Ni 4.360679945362471 6.895883295346079 5.911383221755541 -1.0988912909058042 0.5440387440598758 -0.10676814409619031
Ni 0.9449114135810943 7.529400038501315 11.472375847508145 -0.9311669188412156 -0.28444705627032946 0.5696708428056834
P 0.3469514635525799 5.6634047718794065 7.901026345555775 -0.7079897651249614 -0.8422980236229494 0.5217902170743206
P 8.509420967079189 1.5223729341909817 8.052883634384798 -0.2043559072446932 -0.2858645054431464 0.24399049091717978
P 1.8109491471746038 3.492005816287588 10.330966605885134 0.4197055944967288 -0.7601435643103812 0.6682669926140427
P 4.046267056661385 6.162228978993142 3.693734616605304 0.1695385424551919 -0.831420200368181 1.626061798455432
P 6.8555464444810585 3.863546667764375 10.345748602618631 1.7301179429370976 0.36613151792501464 1.8926995944584821
P 6.257611949305468 7.777512126355299 10.19743135654977 1.7602785256808782 -0.3315728061135386 0.9259120982001796
P 2.4683298149457245 8.306036692219548 5.89811760697478 -0.5426809444804008 0.8135980845850956 -1.4203799733104636
P 6.903237929637221 3.921311001863166 1.7502084134875302 0.4704658557687317 0.30618444794742106 -1.6224655964637413
Ni 5.321318821642796 3.0273456582048963 0.0869701414210729 0.7063789689944158 -0.7638369540015684 0.773033790009488
Ni 1.3240523568593587 1.0578218683351057 6.873419387640993 0.20666115833910212 0.05352522561164975 0.3942141350938437
Ni 6.808718606120518 0.636883147454384 9.261114592237952 1.3510843722384345 0.5861809246455646 -0.1384456777051293
Ni 2.840207034121859 1.6458016978137848 9.356343015228957 0.044440489701562176 0.024972096564305383 -0.3087262405326683
Ni 6.478287342115361 1.9586236582071448 2.391738889804253 0.4287345374682165 0.39603884700740827 0.7692162160356107
Ni 4.287915430076553 6.907074339613566 10.189980357458271 -1.506108266017219 0.505407147730607 -0.21360673641899985
Ni 8.22715392121306 7.251278497254176 0.5998481546543122 0.21377334390385117 -0.4292790971177768 -1.2605771700857966
Ni 7.702320309022737 4.022521315291218 8.23920224856294 0.18094087075486256 -0.19202618203474672 -0.04855939696594218
Ni 2.9913543143746923 8.47755694583017 12.514100248674735 0.8454514816502665 0.004298627375353887 0.11136347677635659
Ni 9.322294422137958 5.0738249230741 10.284130585607583 -0.6736508826337754 -0.6602132690716307 -0.14858276613913118
Ni 8.444929278993442 2.348828371488278 5.83317318614775 1.5819866625130883 0.17751230468928783 -0.06755290734930947
Ni 3.5017968436442763 3.0384639743211728 11.795423385961675 -0.028646460092099053 0.10649432160951337 -1.3706674365766844
Ni 1.0345943150423118 3.2851487722076547 12.759163208789229 0.18847163191426894 1.6561447338837414 -1.226727054305571
Ni 3.074182587584338 8.598322040914894 7.912895579833297 0.4702707090387901 -0.2556995518239919 0.8743990179225521
Ni 5.7885426470556505 7.918459283400886 3.4382669853582875 -1.5155547561420994 0.3315648356937386 0.7117173504881936
Ni 3.0253910891411193 8.352464525748431 3.5418909643046317 0.7107878966953888 -0.5767133514747615 1.774060667066635
Ni 3.5095242097103725 4.409807811505038 9.159871551141856 -0.042950535419597 -0.07916015257093463 0.6708296111348963
Ni 7.414216829021981 6.2638756613284565 11.27602529397243 -0.1322331211365142 -1.0204369061526426 0.8950660593536004
Ni 0.758373705847432 9.026281755693082 0.37745637747585564 0.010822030316168458 0.7786282533781299 -0.9608505619485773
Ni 4.663210872359572 0.3237957293091062 1.7270435882251554 -0.5954482088801035 -0.2221476840104755 -1.365261435069765
Ni 5.835943219606973 5.229708624174505 0.3869064916237457 0.270785756733153 2.276171146323841 -0.2964687633215539
Ni 7.743402623437662 8.655750007314339 11.857893231443773 0.8394512982027736 -0.24498216540648776 -1.2771713269990521
Ni 9.154746943787199 4.987269332114925 5.766418743457474 -0.7647854339577668 -2.2478884973290643 1.2509141930747358
Ni 7.754866398272188 8.916634976724634 2.619970737524898 0.36175138657944794 -0.6631553824190901 -0.9836071389188029
P 8.75018751166093 1.3928895519799203 3.5828987323645674 0.4649454401711347 1.8483678624206425 0.22946170117338544
P 1.5052272725431506 3.4552144627940704 1.5134346444072344 3.166499690992456 -0.4101740008572097 1.6891538418199104
P 4.750875567624703 1.0616219142358445 8.190463478029349 -0.2047667695298667 -0.07374746619579557 1.0672610655950328
P 8.663904651268796 1.5209092801478743 12.472533382952372 -0.3463093409927649 -0.2889017496075734 -0.4382293643325291
P 6.248730023838908 7.784094024039833 1.1742096378188602 0.05844194618697677 -0.005279503231384456 -0.1106422823396159
P 1.885695504581003 3.053064150676643 6.058384088287496 -0.4407994390525505 0.2189762282610293 -0.17776632968162287
P 7.080040065229493 3.9882390830144567 6.166319028396832 -1.24353615544311 0.6982753660506749 -0.9649717832058026
P 2.4447568029346813 8.598112947480166 10.231892681898884 0.952459766781721 0.8806218589038125 0.711584167344439
