# total energy = -340890.3569643888 ev
CRYSTAL
PRIMVEC
9.07623460344627 0.00000000000000 0.00000000000000
0.00000000000000 9.07623460344627 0.00000000000000
0.00000000000000 0.00000000000000 13.28398678200138
PRIMCOORD
 96 1
Ni 6.456987696032492 1.9971346940472179 11.495470630947402 0.20353341134339786 -0.48273516005438794 0.36690079199087133
Ni 4.497591986069297 0.4501957654983298 5.850613528723818 0.031196737317778528 -0.011388444342599741 0.6458423450619393
Ni 2.4352717740587675 1.5142971578995905 4.616690338438356 0.4959447167661265 0.8659179770347346 1.5411138355581264
Ni 3.2792073096731666 4.051558581826603 4.478430239268386 -1.2445316865871598 -0.16092637530614864 1.8380785646794926
Ni 4.995214708622137 4.351001718647207 2.974882066181375 2.447571167467804 0.6242941865775183 -0.8437884921255467
Ni 7.2880531307736005 5.930275641110895 2.581384631533089 -0.49610669626528753 0.5913010194809494 0.34238866578212
Ni 4.995668520359558 4.624886178416198 11.50817009860742 0.2799298851262663 -1.0345689746786506 -0.3686172604613458
Ni 5.662617478379335 7.846196186629053 12.49034848854577 0.347991099570562 0.126954132125762 0.7626701873869768
Ni 1.97521558712973 6.550118940786257 0.44457122282472017 0.7892980743871504 -0.24996367778147915 -1.0066246828598986
Ni 2.5821161760538134 1.6825887026052055 0.34255525187570485 0.6667659825884839 -1.9874347186495382 0.1746046441241896
Ni 0.528598096502323 -0.3642020717507395 4.535073205086464 1.3775039998825438 1.3392349290990162 0.23486873112156967
Ni 8.680438303532116 2.8011529492379683 1.4786402620668608 -1.1264843700327245 -1.6071639331096643 0.2776115214057348
Ni 6.763020179280465 0.7666631958365873 4.777825272044823 0.8261298985035191 -0.2906652692658994 -0.2461021379435439
Ni 0.7079444951315405 7.269383315896055 2.260841971792781 0.30036912681722466 -0.5947354990837951 1.9357439751434664
Ni 7.525342212036874 3.797696295912675 3.8446385820316182 -0.04632845075289441 -0.08463454542194455 0.30004336804668974
Ni 7.698643838323628 4.094207808909533 12.857517581435774 0.36694167253113574 -0.8144061823086877 -0.36941301688976375
Ni 8.091408820827715 8.894737282177584 6.955615157771985 -0.5855003536387723 0.2653530157533559 0.30626595191763384
Ni 7.141372101004026 0.7075977829641501 0.5518368879522344 -0.9963729232249033 0.07045414015650447 -0.93243113026562
Ni 1.9930685408799158 6.331218311123329 9.287353414431797 0.05924490170424635 0.8835493169632526 -0.34666338189807394
Ni 0.18847346029225098 5.055072476788113 1.4555793648180189 0.13049814072327848 0.3719260131196046 -0.3940331294312891
Ni 6.5342446062112325 1.8615357469054916 6.806861115985865 -1.4274242817517546 -0.06820956709670188 2.0919392635225327
Ni 3.4092969823225885 3.9962117023306023 0.2625437044508128 0.12941879161617065 0.9633797561283344 0.21839567316721098
Ni 6.031557344668762 5.747062766478841 4.821516450876874 -0.1903577931933883 -0.4552546952459321 0.369789426392576
Ni 5.1714842636716325 2.946399933917289 9.484394840326578 0.2570951466199379 -0.01758634562319552 0.03992049034402157
P 0.0655948561504665 5.820852554983677 12.569161972983867 0.7824921072089105 -0.5806826205351547 -0.13672689524180967
P 4.008673372640213 6.03342704902694 12.857292490814013 -1.0395769694162034 1.4929501313687061 -0.40101907383081903
P 2.4663760305416784 8.47380874324908 1.5426558533710981 0.5708471225019718 0.7584420082382421 0.24416892547657307
P 6.198224243354406 7.846885980469934 5.950469355802704 0.36626984327509177 0.2206818980982264 -0.6428261839434348
P 4.7498931596064935 0.9012501428038622 12.712948591492163 0.17995433847187717 0.554146264807523 1.2061374030796777
P 3.9561673546204754 6.1804983568906975 8.186031290950648 0.5281547258397679 -0.749230002721671 0.34564856748031436
P 4.790200718124324 1.381647987051108 3.7965499674639465 -1.2808852855155297 -0.3698925276293436 0.5619251374219935
P 0.12518124489746427 5.649647538923811 3.7781651463575017 -0.2870955496367701 0.3357498203093637 -0.5660234758610833
Ni 1.3325818620010297 1.3321189740288593 2.6523335585616614 0.4431725672704174 -0.3582785975394991 -1.0144742608113044
Ni 2.102745761580091 6.5523335420648765 4.557935332794314 -1.3383517551631143 0.3552063863720786 0.3400721018338014
Ni 6.007459941411647 5.722493399014809 9.392788403010549 -0.22897781955843147 -0.9924663890816456 -1.3054408633677064
Ni 8.513680642498988 2.5045688263631236 10.255251256616944 1.812956315690568 -0.5082387036421312 0.5028964654936113
Ni 2.3552284598122557 5.195917487614438 6.767301439211305 0.8488304254248286 0.9883899050194268 0.9398266513987427
Ni 0.9996837238976674 8.793419273680724 8.66971473217683 -1.1010289060740974 0.12076831503002426 1.6005541411026305
Ni 1.5559207704559463 0.9603745512021642 11.241015666904401 -1.23886934609506 0.6141146749413552 1.1632321190757193
Ni 4.140923189159764 6.907441226597678 1.8361395344558755 1.067493236210497 0.6933941266989736 -1.0897795584125232
Ni 5.776106717673857 7.815536665648814 8.072771680395263 -0.643396454624608 0.5404422849578693 0.35826291381021524
Ni 5.379575097749165 3.049669332885064 5.110216956249223 0.05515530501590501 0.2160351433548344 -0.21736697479238049
Ni 0.7199051572830376 7.277733451864622 6.885674600423964 0.5841456393830907 -0.3424480582651457 -0.5393405672532582
Ni 4.900250064449186 4.374854063566113 7.24662738013476 1.2299406761468623 1.1019951266421086 -0.13835723175638107
Ni 8.193661681503665 7.242526737275414 9.29746252469461 0.4493151898330456 0.20061778035849967 -0.47556743866135515
Ni 4.806737617835986 0.38641524867407684 10.66754648105273 -0.5848208110732445 -0.2763874191906466 -1.6366182338150395
Ni 8.074681320186336 7.193896271493261 5.108437106615053 -0.31209541411521735 -0.528239058023458 -1.176284067163671
Ni 7.250704424783761 6.045734423345828 7.06304237987802 -0.546773883602852 -0.14877328488338248 1.05655422070049
Ni 2.5584725845341216 5.230661314231475 2.401917518981717 -1.05939734657624 -0.8088040056305619 0.34167852708897284
Ni 2.4336925092125385 5.144809209745961 11.560814983018812 -0.45192974463775715 0.4960159363236941 -0.5327014646701859
Ni 0.8633958905385344 3.4691729029580616 3.749166576336229 0.38626274145725087 0.7247723838999389 0.4479771877479124
Ni 3.6176328747383306 2.7548459995514163 2.4667699391297613 -0.8713440331463123 -1.9141449088164517 -0.6706591469953029
Ni 0.805776321861524 3.4105767314221187 8.018586558947064 0.4101130657122873 0.7759334801547862 0.5130834333289421
Ni 3.483023237184184 2.589159334218605 6.8259366385566675 0.03901006271461023 -0.01899505304526406 -0.001849394503912944
Ni 4.124903634828764 6.961934940027325 5.946337853745213 0.20549567727609125 0.01073795524279441 0.1443309328413127
Ni 1.0746715753892966 7.566947672123732 11.694053201502468 -0.7748055371979301 -0.17385722443520382 -1.3926588532461113
P 0.139125064341496 5.609185684415256 8.136853528213164 0.10524296570091553 -0.15867100361306866 0.7266793711146645
P 8.761824900521397 1.5826321293206118 8.186257289195884 -0.8411289430155127 -1.0012019691824305 0.23137820146980798
P 1.8523233686358227 3.301952353952763 10.479299019005715 -1.5782858166227334 -0.3976447580419474 -0.5224697596398487
P 4.037081987402837 6.0129782921387 3.8065928212130977 0.6120428800139912 1.3933440522385938 1.2870819012445447
P 6.976220933521373 3.955695390413556 10.72796153003226 -0.6832961190330232 0.8688873440757036 -1.1505848626253539
P 6.370200739367888 7.913169722837807 10.273131439071374 -0.10770453986753063 -0.2905403136522609 0.3754507384434114
P 2.3292250472579688 8.504441035525073 5.946337853745213 0.16213787911574656 -0.03292966084848522 -2.256447956863301
P 6.642124732431216 3.97350296299 1.6316982543706902 1.6322879818708016 -0.5031188659170626 0.4149896770782982
Ni 5.442872758884802 2.8196049344815513 0.2250243652477025 -0.07635430769102333 -0.2986349177349373 0.41318142022496585
Ni 1.517283239131828 1.1561580109608105 6.960065235669146 -0.1450744958755566 0.8172693627890956 -0.516080311173737
Ni 6.8245752033444 0.985061909717927 9.144364596957889 -0.1841616916850054 -0.48015994312804405 0.035547300976990395
Ni 2.773597500541698 1.5429962121741647 9.3333554026308 0.9955260018435759 0.5209497234508964 -1.8992412522317417
Ni 6.401967560987435 1.880632144816214 2.5250066917696654 0.9845178236585302 0.9617982705738274 -0.13120570831326436
Ni 4.255628643910577 6.726978451094402 10.562430068313647 -0.7546169780651972 1.5464830702898398 -0.05466910940810584
Ni 8.254526911726717 7.581088445861805 0.20115659072972408 -1.526836499703506 -1.8026598188605663 -0.6636253800769732
Ni 7.361452641184253 3.7004353643483685 8.390790239252029 0.3783154615857162 0.06963267269647364 0.8863911572874218
Ni 3.1901240656172067 8.355264041199677 12.401452214925627 0.47063914812180235 0.10598447185263037 0.6398329056430658
Ni 9.202575936140496 5.036802016239498 10.321152889501908 0.4224091094708209 -0.9086342849563382 0.27057364072234696
Ni 8.52875626841615 2.1131471266018056 5.833556560761071 1.9167892884178344 1.4716362003822785 -0.40856397605761247
Ni 3.596993516920373 2.598308178845034 11.451620618007254 0.8739362193535207 -0.3692556653762931 0.750553863739417
Ni 1.0964000813770671 3.328173596141012 12.669031414414876 -1.0705081117774211 0.548585482890294 -1.1218777244986486
Ni 3.2398255270996765 8.305698723238436 7.870124771919846 0.7398369915425452 0.346183614048178 0.7846916859633905
Ni 5.565710519970218 8.127967894394441 3.7432679313732167 2.4590637414884355 -2.031931772620649 -0.26367871337472654
Ni 3.493733194187346 8.650150908176563 3.655540676788674 -3.6422429931100435 -0.47251605342954106 0.18904884457397764
Ni 3.13760897136272 4.066498064222539 8.945303708831581 0.14805980375612565 0.6549921298820074 0.04576872159468247
Ni 7.255097322402007 6.073308024511595 11.338999066754685 0.06254696949428583 0.8622053040698378 1.4401165325074423
Ni 0.49582653569612284 0.07752919722119311 0.8916620084156078 1.5926300011595473 1.08774555870163 -1.0372048696396008
Ni 4.691932324502941 0.32150655587059257 1.7665447816517705 0.009281939522558206 0.22380116045349843 -2.047294885340281
Ni 5.902874488405349 5.504790832338674 0.3103046669440653 0.3201409101275132 1.268419806058667 0.9038759443357466
Ni 8.05700989113112 9.05182875320362 11.215643960288606 0.255025922795735 0.07725805045221533 0.30954205156574427
Ni 0.06653424644693026 5.054591436346445 5.956367093142242 -0.17640390211645748 -1.3609316973461594 -0.826853149822789
Ni 8.04563736899132 8.772144579430377 2.6701747132066744 -0.5736416545279733 0.47876691943525934 0.9776234105315422
P 8.551700989860212 1.612992134554151 3.713272790776565 -0.4586079279888811 0.09176961380482905 -0.44727116281982326
P 1.6943878077781802 3.3901007458296335 1.4847113554900937 0.7308206469765478 -0.4757921530776515 1.105538878129309
P 4.788648681982341 1.2741036815168167 8.076584606613084 -0.18292267707158175 -0.5775785276885343 0.2276930393087369
P 8.922710237672282 1.5126089782363803 12.777096695823728 -0.6985797846649711 0.17843378806229268 -1.370226492384524
P 6.494917281046232 7.750469138737232 1.5913552985373394 -1.3804797946814162 -0.06085595494510809 -0.7607413457953801
P 1.6373436723842212 3.416911943276532 5.936268678915292 0.0900981396396771 -2.0723564562945986 -1.2349142181020538
P 7.0813781893168235 3.9695820295786732 6.327428983115854 -1.1447895960998156 0.3900265793750573 -2.0978134629151226
P 2.709119928888765 8.579074913861513 10.0107992108902 -0.5323011439079736 -1.3414075112703028 2.0280463215233135
