# total energy = -381172.3980649258 ev
CRYSTAL
PRIMVEC
9.26144056467623 0.00000000000000 0.00000000000000

0.00000000000000 9.26144056467623 0.00000000000000

0.00000000000000 0.00000000000000 13.55505442715853

PRIMCOORD
 96 1
Ni 3.688285294794809 0.007072035905658423 5.8345972542398234 0.9423594451229256 2.324506085983803 -0.2891493468420053
Ni 8.72751838095497 0.9246260920389011 7.234508428824184 -0.51225142434595 1.988795089332175 -0.45263602667616243
Ni 8.472578710479512 6.169786379821279 7.567434058366688 -1.6163746530746548 0.9428507829370472 -0.8288992337185401
Ni 6.9664277005350295 1.2483588158192829 2.5933802114590843 -0.8680527639895502 -0.9632496583083733 -0.8337208234768997
Ni 3.9072535306741725 3.823752383836278 10.143423137002769 -0.22708188808729926 1.3201146633297973 0.3456166858011145
Ni 1.0191289039531861 7.063126399973191 0.36090999791932116 1.1431484609519666 -0.018734086074393544 0.8557554346794359
Ni 1.7595718041908566 3.4989166225017265 6.040227163624518 -1.361541048795384 1.3718174910207277 2.1028083450265527
Ni 1.5358709722562398 9.003046233486842 12.499264998393862 -0.35410158334367403 -1.2360246775574133 0.39426632848801774
Ni 1.893927520381777 4.80452040156469 4.000123550642193 1.3567197161473408 -0.13581338228860482 -0.8247458736717989
Ni 7.207956805280532 1.62180787792492 11.74178104778111 -0.20988635014461918 -0.4455302688693165 -0.6425274217560935
Ni 2.9196320470340433 7.114842283285391 10.776023972687442 1.3555532066430653 1.574930012776623 1.8609359288936402
Ni 7.329189060394556 3.157132425196307 4.15223807884084 1.5699137905089544 -0.6257877404039094 1.439284009303818
Ni 6.389458485172657 5.612164313498875 6.244094620897051 0.8432624444187476 0.8820539633646486 0.18215545988825402
Ni 0.8826523179058019 2.583460282623894 0.6229513409097851 -0.5047587155133306 0.14929804703860095 -0.13698683377141568
Ni 9.266812056683742 4.090491129408394 2.791826021509023 -1.113697245570385 1.988519209962969 -0.714743281798711
Ni 1.329016700447857 0.2981202102954443 1.7843869076555254 -0.6137475214099236 0.32558342129932316 -0.29750131835112636
Ni 9.126214129648906 3.665807778892461 11.007842457151275 -1.1501236067182192 0.21953467186766065 -1.5941983740879317
Ni 8.406192705540068 6.259927979441201 10.148018663739787 0.36381726796954117 -1.545261796288229 1.1862941431015053
Ni 1.7699631403434872 4.867683425237543 1.3611446372691365 -0.2578574787072591 0.7456556551068513 0.9550069586836067
Ni 5.069971806918255 3.8434792519335175 12.451022155239626 -1.3970089026846908 -0.2931471551474887 -0.43387854356300115
Ni 5.0928383033182945 6.018695240789179 11.099583507531948 -0.8250132684005727 -0.43504788128075395 -0.03469960826471444
Ni 5.036139765059467 1.8604196289377326 10.152193721081684 1.5543498746324262 -0.8969550488461971 -1.1124124653206906
Ni 0.9977071922588593 6.230050572642283 5.653799118912556 -0.2729678519861363 0.599803914745638 -1.1991709990641737
Ni 1.2837282567879964 5.498387517923948 7.726950329749989 1.4201300620831865 -0.5383674047067114 1.373560184743447
P 2.890477032587981 9.065357204640941 9.498135054085038 -0.9512310365809425 -1.096601209320047 -0.6127586751340931
Ni 4.2492877868709655 0.586634454585979 7.972811936324549 1.8449727206961646 -1.534708446252415 1.195187074715761
P 4.991240301897299 1.6345886657062307 12.276718141935731 0.08107536731577651 0.04260189383092663 1.2870893574437123
Ni 5.305036426249733 2.9851752608951547 3.1278968362185804 -0.7521168373511629 -2.4439795934618043 -1.8851503213563146
P 3.06681485820838 8.613537833690776 1.176459475397075 1.1808745147478308 -0.4385222129825996 -0.12305531129198807
P 4.004665361024768 4.560592583750086 2.6439949095051998 -1.3956428755750996 0.8622492699338957 0.06101330645857879
P 0.6325776820836214 1.9055876738721174 5.2592793537045575 -1.2109723625744757 -0.7930310590670213 -0.15588649888939604
Ni 4.775800674818427 7.503396754718071 7.20025499142623 0.7608609020923799 -0.6722938543852486 1.1886898970271915
Ni 7.066441995643994 5.729756822527351 12.146751422360436 0.8647715221351171 -0.18753343637071573 1.2161320523985444
Ni 2.673157333103598 7.164835538679242 3.1383474455899067 -0.8678689301135181 0.9349703517477058 0.4825204729404206
Ni 1.7854667916086422 5.148934847949741 10.404818957595872 -0.994404743754939 -1.3231472795085342 -0.14419877813882262
Ni 0.3232872484961203 6.560017171970202 3.0794909917129303 -0.5728119595378264 0.7981326419596448 0.5488351370072547
Ni 0.5900602613977955 0.5375747523865896 9.373143580304033 0.5796564932634856 1.1674474427086474 -0.2513914113669412
Ni 8.1300999051425 8.120403177021462 8.915254261301788 -1.4495524811093614 1.2188952169659781 -0.7080275603414322
Ni 2.480973182922459 7.793807742006875 7.577722592530643 1.5606259374491251 0.2792464859059965 -0.5183919900260492
Ni 6.371333846268291 3.4157303646381534 7.809405859964326 -0.45810013511452724 2.1962077811253207 1.4321659102017978
Ni 6.080543139922216 6.076884870955825 8.79859901004394 0.4239818532745795 -0.5590591287281081 -0.07625274911615255
Ni 5.6453017473260685 8.107928016774052 5.180877555962597 1.0343524877924704 0.35461169021087313 -1.7972229641157111
Ni 7.565281699612791 2.148487471799964 9.397732704622424 1.0680974454533991 -0.5235627355937112 -0.18473864723439795
Ni 3.524867178562039 6.063427998023764 8.890326168263979 0.8846813736851667 -0.6611046705376485 -0.9025780514599295
Ni 8.608879329158892 8.583623381130172 11.158371426749806 0.034664898372037074 0.5892744759692238 -0.2077451354319003
Ni 1.5759359635185215 9.129631601164343 5.007345020645792 -1.8102947096980049 -0.7654125260188044 -1.0886511012350346
Ni 3.9170521346398437 2.5359768775841998 6.945460725565386 0.8065951709047011 1.6549699968493499 -0.2028474410199668
Ni 3.730434110151869 5.47015864752001 6.38223456164409 -0.6921700244838854 -0.4762091860104121 -0.022170879670084395
Ni 3.112742341257306 1.3151523241372616 13.523822958721977 -1.6831927391404689 0.004179071078354093 -0.472126017079974
Ni 5.936073930791301 7.054207632847537 0.49309390633146083 0.7829896156706192 -0.9831348272680746 -0.10531547081006377
Ni 2.7039238381829556 1.9766970134263937 9.02137647636856 -0.2690299503843109 0.8728039055212903 1.2236792686181828
Ni 3.5664973532555106 3.568386687101443 0.7527068996434758 0.7354699728231011 -0.0103934274191821 -0.8499375424460781
Ni 1.8609938382438496 1.0833199475127966 7.031535626696343 -0.13205751479059838 -0.1400652155864233 -0.059688159889252045
Ni 5.148230978477727 8.132591232615813 2.348982838615123 -2.6357175548321705 2.782506205185356 -0.7840049443090111
Ni 3.108787706197437 0.968413256206479 11.241368751228787 -0.42871936795956483 0.3363792263632465 -0.1690754867758443
Ni 0.49818769856314254 4.695392849081226 12.89042286072895 -0.8459063097994981 1.088703551739525 0.6705020525921486
P 1.1035932405948896 6.780532068399912 11.757450478829806 -1.6415570658775536 0.14298753143954085 0.5158995626214987
Ni 6.669904162568208 2.4495583770136147 0.32269451630916096 -0.7247942382768099 -0.2209048127423099 0.553814335389401
P 8.204209951393258 4.558434668131937 8.808873652047263 -0.7766773002993462 -2.30442577029416 0.7697458632868356
Ni 2.3620933336754297 2.633092341841316 2.543511059366878 -0.37140176518501844 0.2162187201205502 0.2339099667527262
P 6.476478979370622 0.28514400612124574 9.291379879689163 -0.22155298784927002 -0.20164416474048497 -0.5548407197713864
P 3.4024865048357813 7.35335215845357 5.217516740413062 -0.32640206054587656 -1.6580481215540415 -0.380996350851989
P 8.853825905419832 8.84297149724614 2.8050967394886173 -1.2142548899804895 -0.26091066371128613 0.5366005426142759
Ni 5.758948882735098 4.714934488370042 0.8407239248307669 0.18764579357886393 0.36492361365984244 0.2540424758365431
Ni 8.235032025115142 6.07198556897299 1.1187366218276582 -0.5012417034990077 -1.1459548200525103 0.8708120719022423
Ni 7.036101516824013 7.501590773835928 2.960369418870907 2.9642502885678046 -0.45112113269353277 0.8503604889161097
Ni 0.6417048316187528 3.1022861750217268 8.480245330860214 -0.06263181589860825 0.07968748582931437 0.5229263875612928
Ni 8.092729993042798 7.6666203807019935 5.62612037806964 -0.5010887228609111 -1.0858581118709298 -1.3971384862840195
Ni 3.2783554188699093 0.5891155944748291 3.3701659300537403 0.6384036293957069 -0.43855486599274796 0.4733064105413203
Ni 4.824886309050996 6.30991197339463 3.6684046867865763 -0.665332592576067 -0.35041642118260297 1.237289917423082
Ni 3.74306671488644 6.5520801175292 1.1485251187985326 -0.16722274983782168 -1.0558584801850461 -0.6432023363359309
Ni 5.260618557989468 4.220994086384079 4.913233041517283 -0.2255230282406116 0.33444729944785623 1.7694663628277332
Ni 2.8887080974675245 5.4846620632196705 12.673569011697756 0.5172707319374124 0.14784640219373893 -0.20627652130617377
Ni 8.530870216490793 0.7213532192414118 -0.004085221369808709 0.6178700282187295 0.36805393175870804 0.8868382721271695
Ni 6.404832476271914 1.9193131285763942 6.259575118561152 -0.44218320677395456 -0.41446414359213135 -0.9932554606418441
Ni 4.873305119573236 8.047561948108415 9.949640462204924 1.2132832700958396 1.3504179422990292 -0.568180374303086
Ni 6.7668436594573205 9.045667382305385 7.102116138002566 -1.0132403884042034 -0.5051652069231299 0.4057527318610625
Ni 6.504800464178772 3.831457902266749 10.761682632195154 0.649388667652301 0.8131198593970964 -1.6098715618488144
Ni 8.513254956809595 3.3297749360886306 6.571273526658176 -0.3360732650870535 0.6585438517890078 -0.8090608588363744
Ni 2.2342021028985344 3.2057920331694985 12.1809918937418 0.2912720496119629 -0.2667002738098697 -0.6019579849741633
Ni 7.923366032059593 0.6598998574703198 4.702736245191226 0.6051587512996481 -0.2277020381698014 0.50479728206075
Ni 8.157208141255467 7.720966513093827 13.17136495133108 -0.3818407011301553 0.2027281418332831 0.13428229035605904
Ni 0.42641616601874766 8.191280980565207 7.15270397787146 -0.4011365732452898 -0.2659387130534968 0.057952151034751806
Ni 3.321467424030779 2.918270615292121 4.717159086359223 1.4257497222628093 -1.157649225671303 -1.7212640920908935
Ni 6.52152662557953 5.004660129067674 2.9893910685749026 2.157164294069614 0.8213437899687854 0.11219857108314225
Ni 1.090923590098634 7.537525162670337 9.513085797357045 -0.26100887985204724 -0.6120480222203136 -0.45959111783775686
Ni 0.3608368325399934 1.5144214762406492 11.61411950072666 0.6044442417311268 0.4681593191227421 -0.21025144679352178
Ni 6.194949713445785 0.11331187126578009 0.15778901274474028 0.11148149041145962 0.8656107302069609 0.08848477240597019
P 2.832018820649118 4.0693194766054415 8.189299958459104 0.2245195266767617 -0.38387007285535824 0.08706938011568231
Ni 4.218391621625711 8.366637093500954 12.71605031276594 -1.4396128533981465 -0.044195463570291624 -0.24411081854512795
P 6.221844936429065 7.941462886642695 12.034664839662385 0.7470479074686877 -1.4204964442836696 -1.0807045926944485
Ni 4.573716044826982 1.3868914416401823 1.5236153081468136 1.789154842395596 -0.5538536732677687 1.0808573162222288
P 8.218611491248284 5.229750177065477 4.628834581349946 0.18071204257350815 0.5077982736706028 0.2651655823328981
P 7.976341471269082 3.9527642489041432 0.8956220390717056 1.4398882185467203 0.3689340203708162 0.07513534768225769
P 5.447384765524182 1.1290158945511917 4.525476906248915 -0.2697470310559935 -0.4245400397708946 -0.8978287097004023
Ni -0.050457253558954494 1.9555346220638616 2.9431950037537606 0.8211483861285278 -2.134464281368937 0.806810629349617
