# total energy = -340867.9950807006 ev
CRYSTAL
PRIMVEC
9.22667841913747 0.00000000000000 0.00000000000000
0.00000000000000 9.22667841913747 0.00000000000000
0.00000000000000 0.00000000000000 13.50417651335737
PRIMCOORD
 96 1
Ni 1.3580747703289202 2.933114879500728 2.1314180337971504 1.0660068814729577 -0.872039002330808 0.3558345068743807
Ni 5.773049535443118 1.2798233121649176 13.152689806303982 -0.8818004525929458 0.2468097055335298 0.8820501067099068
Ni 3.49422609006383 6.434362471706145 12.285546286499603 -0.9065311225704064 -0.15319892475490393 -1.092610600103415
Ni 2.6740113011300726 5.516243399954533 2.210228628662573 -0.2809043332243936 -0.16473649308085822 0.3875655194290744
Ni 5.332457196067164 3.541586629476143 7.316954218889843 0.4231259330321874 -1.0977327518213287 -0.09636957447068564
Ni 8.99607587196202 7.997906139789362 0.6706078919232583 -0.7003939550555743 -0.2243043253421621 0.018013148747968978
Ni 3.7176408769973475 6.371482659492058 9.428791396123422 -0.37459713219386453 1.2696441653840715 1.438112100482904
Ni 5.799280981682979 0.5445041123966842 3.0083113844990548 -0.2843889493388844 1.170341733537307 -2.276640372650776
Ni 2.5726193339370265 6.419036959147437 4.556768510990009 -1.182338500887867 0.020470609149526035 -0.08267613614399309
Ni 0.055260421322467355 5.492447796770361 5.697803206382289 -0.12618305828769236 -1.4316725155051473 -1.877456809366799
Ni 9.03088812896624 5.725753582778494 7.997672704829858 0.22948252710899186 1.421514344025223 1.2568189885949452
Ni 4.798629273063426 0.6782420455000648 6.022822174108402 0.39779542468719875 -1.6918355024171314 1.0905053808349543
Ni 5.955313337420681 7.978050328214201 4.204606501213801 1.3676823858064315 -1.0098491033344672 2.103878952382912
Ni 6.478078473213167 5.4870317366427495 8.185084070598212 0.03417098945475405 -1.7511346543980808 0.9713769154011981
Ni 3.9708762880065707 1.8047290373093723 3.4341124359864676 -1.2560525427425657 -0.5662476760567474 0.3208088827288153
Ni 8.576815612679827 8.318468621924954 7.750991926043215 -0.12278354568784015 1.5871818335607828 -0.2823778324461266
Ni 7.855031027223675 0.5574851260142925 4.029024659618548 0.6031820871892515 0.45172919859117683 1.4379889446414782
Ni 3.458408125131315 8.413983195078327 3.4568128324634033 0.42496427179250684 -0.04093324787925209 -1.0011718872754436
Ni 2.49071411118949 4.549868801001206 13.638407983622221 -0.7083206661018189 0.012003452218779326 -1.4885406894471007
Ni 5.852214434753004 6.482045944856901 12.761203693863585 0.3760395210673459 -0.5222694707035844 0.2839395205062916
Ni 8.45358409808975 3.0641706172393786 3.2020291848452995 -0.3686789669372167 0.43072894219042596 0.27873586481816515
Ni 8.399478856883087 2.987054040499049 0.7782426296143315 -2.237478357739334 -1.2321821638828716 -0.8011423753202461
Ni 5.521825540290486 3.855478223243314 3.6859915252942272 1.9067553012206002 0.5394416116074967 -1.4536477342246579
Ni 3.4435347198064274 9.025019961604807 7.7723692168603575 -0.3006136387278629 -0.34718480161918275 0.7967319049573762
P 3.1159322821727655 4.65043036715254 8.281571135638213 0.5592031105051402 -0.9245825807554786 -2.997266081372193
P 6.714272209510809 5.43273273519302 4.762760561400584 -1.4717927805648006 -0.5702927926603985 1.030107082252555
P 6.8971818789652595 9.0437870251475 6.191583655147727 0.055054774882298735 -0.11645477525633491 -1.3345745475088693
P 6.598717291217451 2.5026072994424555 2.106611186677738 -0.32279197459711506 0.01277915404253928 -0.216748110261459
P 4.605145830344508 9.083341794767719 1.3336517530243437 0.6595825774661673 1.0488388543341032 0.3686645687595135
P 4.540309962343276 4.539119720850155 11.638277277187575 0.6056068945806602 0.3242880995266673 0.8101975435439788
P 4.240848893345413 5.69572074510324 0.7944197645747072 2.358114775177184 0.3440030614570914 0.3530733991894758
P 0.8329273062145451 7.198774310636851 6.53030885340121 0.7851459998919897 0.7388813124974952 0.11790076367424211
Ni 3.0143650080931357 6.5885402651173575 7.093635389410035 -1.0295604657204656 -0.2476391434133606 -0.7659938524435711
Ni 2.276415282358323 4.424496697059163 5.936705895411561 0.3609713138803138 1.0988090156046433 1.7352647772453602
Ni 8.172327265261865 6.060931123248218 3.4854275296929784 1.8312821105829495 0.5650857945381622 -0.7942867858509934
Ni 7.956755154833407 1.0284055567692199 11.971911194387538 -0.7698695333488934 0.6557917429651673 0.4741412477377899
Ni 5.532039473103546 3.9058005263710665 0.3099398074764454 -0.13578150060940486 -0.19167754044607635 -0.4761060847736445
Ni 4.409789371942618 4.846838666873933 5.662328473880349 2.227253851797848 2.0143539116378855 -0.30048945444517283
Ni 1.0730073193874003 1.1300281909182974 8.659337177533876 0.6818529588285934 -0.9726123304701958 1.0321107429461451
Ni 0.48446150374177926 4.732815377168621 11.995462290598317 -0.27677308466483946 -0.07773036210294355 1.001966615262597
Ni 8.993455495341506 8.596938997923981 10.927012027594268 2.4102757734514553 -1.5688228714376207 -1.3686514345879204
Ni 5.886057890541893 1.0092601994186354 10.742288393197589 -0.25092295637095496 -0.7055325618337204 -1.776008277711309
Ni 8.486311125811449 1.8126086205273957 7.434710622611562 -0.8486699885875642 -0.26530030813854955 -0.5249845556419023
Ni 2.814515157387759 2.7830429579068707 9.647518107842563 -0.36298423054528456 -1.6512467823614916 -0.7098134485972614
Ni 6.89000352329357 3.059308157806242 11.681409229961925 -0.42562735929780243 0.2617143905595041 0.9119942025675067
Ni 0.4268169087617741 1.24702247101729 13.423650588882461 1.4059753678493594 0.006587166299214462 0.8462194701645427
Ni 3.2827506247744838 4.025885743680877 3.7101644996184664 -1.4203632611399153 -1.0711223483226522 0.4145939843017763
Ni 7.265879941485428 7.228816374990345 9.455907680806618 -0.1371426426229896 0.748250412417221 0.864193281034144
Ni 4.713586979713866 4.037566718334293 9.61978086771373 1.9193693904401847 0.3958457571599957 -0.13043592002677537
Ni 2.9455616684481685 0.6764502245856149 0.33632164857163854 -0.0161041046507142 1.4541933223154826 -0.4675553669901561
Ni 1.073782360359665 3.4188441288328546 7.795947070438036 -0.3396090461544538 0.8339362819218153 0.6846397775451112
Ni 3.550582640761357 2.7986544974910577 1.1900541915523681 0.7405227047556602 -0.2972069270391591 0.46313538354558953
Ni 0.5736152049156378 8.302238894898602 4.427695586405403 0.07375209418148589 -2.947639676594317 0.911045208390676
Ni 5.728087932373529 7.255269261507997 1.6568004730709562 0.3162086649526425 0.8662056834784824 -0.6351031042675643
Ni 0.9838591542204868 2.8111381931514625 5.4190772513959775 -1.7164188481834504 -1.1768371114536635 -0.5188722720965774
Ni 4.051941883034154 2.2561996303317544 11.692118635396538 0.5200166701136657 1.8197620257584919 1.0200504693475012
P 4.167367627832134 7.610330293587604 5.490743629299202 -0.05887646262123408 0.9520987838978765 0.1009188844042649
P 8.179367220759936 8.131176280305912 2.6946504576879144 -0.23049836996801593 -0.2894925891140369 0.14265585913173498
P 4.078643889864318 2.718760690600113 5.486260386341782 -0.6337069952509861 -0.03976776681624118 -0.4042391234300135
P 1.2689450585184894 6.427691583337725 0.18411282829710857 -0.6140154303593296 -0.26312001265777907 -0.9469288096611628
P 7.536166253884473 4.681579632894985 13.05803885023399 0.67903862930825 0.5542488518236582 -1.1878946548194058
P 8.349839327945187 0.9314516218102125 9.766611457241439 -0.9385778665933062 1.6121279619831592 -1.5911217920451373
P 4.964054387250716 1.8838939366192584 8.71541969588764 -1.4372574657920925 -0.3142217164296008 0.5980072278565314
P 1.9707262055476196 2.667857106743162 12.794329314085305 0.1697277756478625 -0.4614621096082246 -0.733404348543324
Ni 1.4694223233442707 8.481568613195448 12.771871579246113 0.4461401345391736 -2.0379458400252126 -1.5882105319356132
Ni 0.3197782144850854 4.740870267273229 1.3062263746200655 0.10583020566295322 3.1013849607709942 0.49743904192346594
Ni 7.00134184963068 5.205258209833355 10.794684853593974 -0.6923741700748914 0.45960860133925363 -0.011963343009463268
Ni 5.149261499587236 7.24344066000272 7.649224433045751 1.0526196615327743 1.4048438253480773 -0.25050618054851054
Ni 0.7321516811280138 2.492051979534471 10.913035455394429 -0.3583788705627892 -0.6503492317933575 0.320048607524023
Ni 3.018959893857276 7.595576835079853 0.9636351981835007 1.7047141581520124 -0.05329511187871467 -0.13673846520603547
Ni 2.84563674309548 2.0165827964066096 7.189987744947713 1.0878543163653522 0.38435961089726706 -0.19343257546397008
Ni 8.729406417433543 4.004396810057015 9.645371059815826 1.1088329754995483 1.0660462193513254 0.8071672413580874
Ni 7.517113163316301 0.46329734919201043 1.0188384141008724 -0.475349152002962 0.8557438647152101 1.5659190675272645
Ni 6.485533629232092 0.37169581028074955 8.190823064464267 -0.5270108420433116 -0.04681824590511937 1.1713020405680472
Ni 1.247705245207142 7.248487653000681 2.289133335646056 -1.6326206826198721 0.9968418924415219 1.9883546593606467
Ni 7.837214311539831 3.3882853704978495 5.427990222577019 0.2008689771373573 0.9785618631854115 1.0337451932257744
Ni 6.093233723770818 2.091770997394519 4.881043808449878 0.9063519166800649 -0.8723344220840396 -0.15453075619245
Ni 4.52071249775887 8.672570079467471 12.067656434496943 0.034172789226966954 -0.16537901176086356 -0.0010999179323981057
Ni 1.100954927780133 1.142724100178251 3.8580616931508627 -0.6085523503622294 2.288625312926794 -2.5286434494597874
Ni 6.972637653622165 2.800176899400863 9.305903113963922 -1.4342438757767493 -1.499010478630173 -0.6919206274772406
Ni 1.4383284176712734 7.762616617959361 8.602646621084016 0.64153677570805 -0.4126157775294829 1.5837409262000337
Ni 4.809322993145028 6.171033074701 3.411654701147276 -0.8578544833003098 -1.2621049195842327 0.6601826729440115
Ni 8.237855134131191 6.867352028211313 12.164386161174688 -0.4755124170537036 -1.6721349386644107 0.6255031192839551
Ni 7.30226073379066 6.798770128844135 6.406854053197696 -0.336300293496195 0.19045986598889134 -0.9447909373825535
Ni 2.435483215237395 0.7495107535710931 11.28991020017199 -0.4526807638711688 1.791117879659238 -0.4095489656787011
Ni 1.7360271911250584 4.888340265603055 9.729704744276457 -1.343717647460718 0.616615586986338 1.5512316407184188
Ni 2.6188080852127014 0.47287925454554386 5.228236329325353 0.5477408755018115 -0.5044450409276539 1.9353346555201894
Ni 7.118456076546808 5.331331541321733 1.5384637112878623 -0.39427918400382417 -0.4794516042071098 0.28177799407859855
P 1.4123091850309613 0.5994240692920495 1.9114890859031752 0.1657605634699984 -0.7600314642125491 -1.4364496251788166
P 5.124893842352106 7.946006074682356 10.036290654212209 1.4888253105670552 0.2426000383275564 -0.6867478250270495
P 1.0812375163785914 4.555700061649674 3.842586708404646 -0.19887765773894137 -0.20936338776161362 -0.27087266002000443
P 6.919842600725759 8.506351470951435 12.797137914941938 -0.4000711080952529 -0.13420515726122048 0.09189354097720302
P 2.4809153788972873 8.087727852467886 10.667651024900682 0.07131314572269008 -2.3415082769687547 -0.6812567200054912
P 7.903674074911521 3.950300795528593 7.567727029476477 -0.2024707744068384 -0.3083027798420045 -0.6293266067951033
P 9.45946733327209 6.291284372219152 10.416432565754995 -1.2672232146474045 0.46912502547012114 -1.2496309554869383
P 0.2655982371846679 0.6964056842857806 5.82817247925979 0.0752037390263479 0.36377664453959285 0.5819010663232882
