# total energy = -340891.9215899809 ev
CRYSTAL
PRIMVEC
9.07343283294340 0.00000000000000 0.00000000000000

0.00000000000000 9.07343283294340 0.00000000000000

0.00000000000000 0.00000000000000 13.27988610766331

PRIMCOORD
 96 1
Ni 6.381191008321837 1.8011399159213897 11.569543179491303 -0.2745691350349852 0.1482454374043705 -1.0227933221999612
Ni 4.616344823420943 0.3106906697144033 5.665000462691465 -0.484738563637662 -0.15853576358678503 0.7196710581176314
Ni 2.6218046883240858 1.5539523873735481 4.7979831517159415 0.5602415790719835 0.9314301998049315 -0.05991595962934197
Ni 3.807339412108581 4.269467489192554 4.884992835121203 -1.232373453958071 -0.2656201533718135 0.35697067736135296
Ni 5.294756317088805 4.545907764942916 2.6901993170889344 -0.30485698738524913 -0.64192064141003 -0.3431751662391574
Ni 7.323457926508703 6.456981392125387 2.786492029545963 0.3981425236139724 -0.46774280041061383 0.022213817092877872
Ni 5.180376623777712 4.551134062209866 12.142862545616218 0.9877602418552278 -1.0013798895211916 -0.7279214710518819
Ni 5.8067701274604495 8.025632740562235 12.40756996547093 -0.43575262065726245 0.42471024680017183 -0.010540494520007654
Ni 1.874562133775853 6.4623800846146855 0.29063566129575275 -0.10091657041141976 0.720127943149392 1.4208851950816563
Ni 2.616778006577747 1.6095997504607233 0.4516754825500702 -0.2108602840221143 -0.5098338160433928 -0.07395906798596939
Ni 0.643386228546533 9.307255117223495 4.9011943566487535 -0.885735525981294 -0.8389849000893164 -0.8545850685204186
Ni 8.626421017010014 2.286414319963684 1.6427223167333032 -0.18340013092863253 1.8268608415868022 -0.7373810738028849
Ni 6.852183829207566 0.49822672930023365 4.788952364094768 0.9177475601115163 0.07150700690105104 -0.11617658189428377
Ni 0.7881047589609336 7.388632393988759 2.519632391441737 -0.7781983649295631 -0.32351676857828154 0.7652487467474304
Ni 7.6333065816634305 3.952233059775155 3.7246232770830447 -0.6664173409998136 0.6633343311991157 0.24930213293808035
Ni 7.574628692036044 3.717004315598567 12.400225928998932 0.6775826135880136 0.12108584627044307 1.169431563018212
Ni 8.25832092356739 8.623962116733374 6.850230319135387 -1.3408994612856326 1.6707825384015742 0.545384716564809
Ni 6.916278558189762 1.1293883218957883 0.5108161172479682 -0.2874071673399179 -1.5735968957874964 0.14094504708821531
Ni 1.7962221153681126 6.590197531836117 9.34909271565737 1.2436888789708902 -1.244982400971333 -0.31758034848918854
Ni 8.869806777233459 4.90233942386245 1.3041008989688019 0.008017213877521676 -0.4809922092213523 0.033889967879225505
Ni 6.5152872710098135 1.5924328156880287 6.898183411246218 -0.44067294077701524 0.06656817483853697 1.1269566816834526
Ni 3.300179888260928 4.210290560763635 0.1108800702974412 -1.1871189529956458 -0.1431464256149083 1.6008053378814882
Ni 5.9033205254077235 5.754479934492671 4.802086158007809 1.771371550270246 0.03886890915105564 0.4535742222197156
Ni 5.224319258610778 2.9686638756869637 9.111821541767604 0.6525596091811148 -0.15531185733284864 -0.21917574586634514
P 0.34583842617792687 5.563511395295576 12.411899807581674 -1.678696393932012 -0.09931837268636443 0.7841656382565914
P 4.126197985989147 6.2533826345331605 12.75896949858447 -0.44186747530574866 0.6268295514048624 0.1602982548038465
P 2.2012238598258254 8.459497074613997 1.3996069448059612 1.2954032766260464 1.1232995445468397 -0.35724861361308796
P 6.356474977496879 7.788598383267378 5.944196339969556 -0.32911894525640734 0.011454521693844788 -0.98939983434118
P 4.612597495693077 0.9159811834952729 12.48735538171656 0.18498830135135882 1.1156240302794527 0.6361248606638593
P 4.123004137659343 6.035021401848348 8.448477390532899 -0.6584631191497434 1.5359130080834775 -0.20203137287657463
P 4.525610495869703 1.171806620025993 3.4995948860097665 0.44831734469615053 -1.6599983033018764 1.1837798613200838
P 0.21556752273951033 5.523624584904051 3.575649306706491 -0.022658103719148077 0.8594583374523199 0.2357966422524778
Ni 1.270271512284598 1.1437061987833739 2.6782205711656197 1.1899461380317957 -0.6087978907141322 -0.18968364994449916
Ni 2.0630173320997773 6.428545253870828 4.835139766191451 -0.25685526269498987 0.055559739543175286 -0.5481406820433915
Ni 6.425623608523679 5.694522690846812 9.154887682996524 -0.5145530758959332 0.5745001458735267 0.5912508829693043
Ni 8.541575347316849 2.600119184039339 10.066499101276928 -0.346587534354816 -1.4411100067689633 0.6614893075705769
Ni 2.3990156204547723 5.4738205125111765 7.028459758744288 0.4328768417713642 -1.7068201487514219 0.5809587570146769
Ni 0.723935627830146 0.08448817644261217 9.238935797950512 0.4402078282151386 1.2527908412721585 0.12915113977708081
Ni 1.565130856527861 0.9141211297804726 11.709685977767295 -0.6798477554731065 1.037989056103793 -1.3673257737979612
Ni 3.868185852164442 6.925134228558762 1.6515135657297428 0.8617882711370772 -0.28202070621702396 -0.19181997956121158
Ni 5.5640195075298635 7.775768549351633 8.041807949134796 -0.0004142047192831576 0.7604814072657742 0.6465643108296284
Ni 5.519078795093735 2.6616642784173457 4.9404097330163985 -0.6411721932797796 -0.02561410102367847 0.2464528364147433
Ni 0.9317508096236784 7.276938436773182 7.183926677600407 0.39971501030741485 0.027615704834739536 -0.6821998006450509
Ni 5.061260598568445 4.664479384186875 7.198362509113809 0.8402105449663012 -0.4799804801273863 -0.9262581686856887
Ni 8.586915290794204 7.340016941286805 9.301072480144152 -2.968338856814882 -1.5620109907221098 -0.4044352986012196
Ni 4.381043491782314 0.43001810590686484 10.26742391823622 0.30328707179496794 -0.6929961199296064 0.23072616970810586
Ni 8.630640163241146 7.221944360844377 4.900702576593425 -0.7427194552966628 -0.6551903619357426 -0.4334941636403889
Ni 7.433591253290398 6.261666678638589 6.986309126880359 0.312734590361113 -1.2940125669261069 -0.19136540852229625
Ni 2.265463763732103 5.2642605095988335 2.5416772036635864 -0.07497388240372894 -0.49003375059833026 -0.07360142753623454
Ni 2.4025179654982503 5.4301047134969895 11.541787548693378 0.5133312876736902 -0.7409993872817625 -1.4027236936812808
Ni 0.839561103458517 3.4214644638986695 3.649697591421057 1.5108735486163463 -0.6289679379041038 0.5155061838378219
Ni 3.459327898785802 2.6706923440086934 2.5556738810316406 0.03198143800260299 1.4322962651320752 0.7645728037263284
Ni 1.076236152816272 3.1388905476058446 7.9740938278265805 -0.9824120901694372 1.3389420804489458 0.09967498469483478
Ni 3.7685141933494055 2.618247902684077 6.871597345930429 -0.1002920494535434 0.06266575446033723 -0.19708868415931866
Ni 4.205980680204951 6.882434654013149 5.982854607566038 -0.3788255684529153 0.7075045979584268 0.5570379845330213
Ni 0.6886445111290914 7.435904978642954 11.328831359900795 1.3166516444818614 -0.8646110852978529 1.0592343386358145
P 0.07497921891524226 5.4351676889743485 8.247127936920668 0.48773981235783104 -0.06989929609429897 -0.43047414586714244
P 8.486889768101717 1.4886145981039005 8.091713643974527 -0.06203531996518994 0.39466690636054613 -0.5551094000517407
P 1.8797521373117836 3.102678477480145 10.417406854335145 -0.9201834232465185 -0.030713112813140653 0.38432618655617035
P 4.0945498525392745 5.994735360415597 3.6877715299481086 -1.241955184109235 2.077818250740118 -0.008121343555553755
P 6.510169854935923 3.9628761963969157 10.51270330387566 0.863527622425687 -0.23762495371046816 -0.3458182602889593
P 6.556598610343893 7.7907850805613625 10.262071500253972 0.015482154795999143 0.036718181356639984 -0.31960586355964954
P 2.488978706221826 8.464550976658602 5.769234243495777 0.3663929991165174 -0.7063000361273643 0.43267295329067423
P 6.738230587235964 3.9276984976053004 1.2665504975117214 0.5927449510163275 -0.7846235517296164 -0.18912289234502266
Ni 4.877369336920348 2.545079740946758 0.6767338159514402 1.5246680312972773 0.7026446987629641 -0.5088940778379429
Ni 1.4524660420074866 0.8710767647901646 6.97868653602278 -0.22119611873048356 0.6670804285051092 0.4321602753203138
Ni 6.6901776873648275 0.8527829096692836 9.323143605320992 0.6516496957723358 -0.8145306237016939 -0.07076215831522652
Ni 2.651474813433341 1.6670980938299438 8.905145983128115 1.021167870781396 -0.1769258360581985 1.1895856693685836
Ni 6.357146411520758 2.1605748810828698 2.813928275510907 0.21286651581886568 -0.7474189176548612 -1.4360004534565398
Ni 4.204973529169133 6.917403663851396 10.507856276097872 0.522742553685261 0.04717022992789941 -0.21418652018186982
Ni 8.311699928465783 7.202699609970758 0.4303828579036208 0.17377674890625558 -0.4835573988453672 -0.5868044171621765
Ni 7.4184295471565855 3.7793478720590232 8.096826523332041 0.9596403436905602 -0.20779167239911955 -0.5393020007058389
Ni 3.151266709883833 8.36306463129254 12.517992734757513 0.509730200585993 -0.6122148868154811 0.4186249598380403
Ni 0.27379537010224275 4.745632166748703 10.447206729532798 -0.04030795559042735 0.42019641809021824 -1.157693191535361
Ni 8.499175196052155 2.3548280029373183 5.907198510567264 1.0841979505596875 0.580710902669929 0.24338268212985179
Ni 3.908961858965969 2.693330558732728 11.185568208100316 -0.5667333574439143 -0.15036068397516042 0.774583393884795
Ni 0.9489812584256587 3.366361506776802 12.564206449809184 0.8764733839530775 0.1672222356171894 -0.0006700294838311041
Ni 3.0627100061938237 8.341560595662896 8.129388351460353 0.7865624206235421 0.019082470552747782 -0.22427424343517505
Ni 5.494861803070309 8.07056437956561 3.53659271541206 -0.25370231888830497 -0.6251825027197426 -0.34843384353493545
Ni 2.999168756609691 8.442792884911814 3.517230917255901 0.17550941532664613 0.029596739820510316 0.25603739477938486
Ni 3.2969315993345933 4.203049961425047 9.225071592700683 -0.7733387228444165 0.6744764638588643 -0.3378748370721665
Ni 7.1874925366731715 5.977813408327291 11.538335107530054 0.723733144002147 0.9396371610957559 -0.521353129536902
Ni 0.352909352323995 0.08274970672673042 0.5285764545228477 0.6366344533104261 0.9227756094537268 -0.16297220209158383
Ni 4.512853249415999 0.20888856888846358 1.4675469945897783 0.27825866807143046 -0.12249738190598902 -0.36439370929830145
Ni 6.256540189131943 6.00258387974878 0.4929278445712412 -0.9597005075045343 -1.4047746626730386 0.3915993231788159
Ni 8.1284528805433 8.840608470627469 11.674879382375364 -1.707907982498962 0.7044179886133031 -0.5867740781448733
Ni 0.19767562068968136 4.778677608842865 5.701971071795492 -0.23676054882764386 0.20511592533916934 0.8650330033266199
Ni 8.055420820297307 8.99739738863601 2.635698835902007 -0.7266292346030195 -0.5059812750665221 -0.4987353921373862
P 8.4454241804108 1.6682050526260688 3.8524017085436286 -0.15281017395691746 0.7876672236519466 -1.0373527080713747
P 1.6939736016506208 3.340066698652453 1.5697492338002188 -0.8852033076269079 -0.3116423857381988 -1.1489524692282536
P 4.770275610111621 1.1358576794501916 8.120875656849497 -0.5471988869554124 -1.9124194414849127 -0.1612783593289287
P 8.643705906408524 1.685580676352131 12.434900052272637 -0.9404223760012127 0.07467177778227785 0.17565365421399426
P 6.419734950665603 7.917894800027894 1.3741759274798997 -0.06687387900441387 1.535628386963523 0.991969394840569
P 1.9440011146508165 3.3718690804591622 5.89160853840741 -0.3522046234312773 0.14481481445626673 -0.08867966202559566
P 6.890891093340924 4.023985766002676 5.878925694102298 0.37774133424980105 0.518713892141842 0.8190750485392668
P 2.4426497585741633 8.422023797335337 10.383701773679686 0.14621195191410946 0.08523258401725967 -0.5791078198488672
