# total energy = -340887.8292860161 ev
CRYSTAL
PRIMVEC
9.13150307459431 0.00000000000000 0.00000000000000
0.00000000000000 9.13150307459431 0.00000000000000
0.00000000000000 0.00000000000000 13.36487777614965
PRIMCOORD
 96 1
Ni 6.6618698049493945 1.9207020936709385 11.297558611064723 0.3558900427026645 0.9734240277382139 -0.5381586311300152
Ni 4.772178295719245 0.7165125202387769 6.1587897323700505 0.39414240131564376 -0.08600597184817446 -0.7307597118316254
Ni 3.106710844481896 2.0444613548387838 4.667095697789546 -0.5786465639417325 -1.6241103311560159 1.478813177746692
Ni 3.508962686413922 4.52837629513485 4.510753407351494 -0.607995706527811 1.1844812582624824 0.4162006666672639
Ni 3.7287123079002495 3.0167655391986914 2.741122900544042 0.2555044050940503 -0.2581223023328716 -2.1467284434482705
Ni 5.527718860098166 4.640145892765959 2.5977044264072413 0.17099867194048615 0.9447953082579277 0.02517727059657599
Ni 5.352731866682729 3.062605684632365 0.6728721538957348 0.540751845778488 -0.49530091253454045 -0.8440024079085658
Ni 5.33161983157463 8.045128153671266 12.213988041262457 2.036156609335274 -0.1830689728414589 0.9777560794546644
Ni 1.9050689604075024 6.541069150777668 0.15808549437496153 0.6273512282362874 0.21287062958392372 0.084675425962209
Ni 0.8913159704424177 0.045466666957929475 13.203523371923827 -0.32573485927552287 0.23713567277887546 0.5561694658851389
Ni 8.187616127644782 0.10208107286913169 6.878087361046529 0.5066993841794692 -0.2288155829489543 -0.019290987019128066
Ni 9.103003653341723 2.3336286626969818 1.183731353944193 -0.6654680897126668 0.1996093936986433 0.14155851230249816
Ni 6.9326827916279745 1.3717252603388579 5.006469835851613 0.0709544768316907 -1.70491290442638 -1.905789851983537
Ni 0.9559496623535906 7.887262728520399 2.2882679211747154 -0.10587571418890798 -0.19305436618894492 0.3169920800858863
Ni 8.005150433211382 4.288044265718741 3.608142680756305 -0.780151632001192 0.43557367187723695 0.30692621120945207
Ni 7.782734412827319 3.890193808268594 12.596397127013729 0.7348297681359409 -0.4985140201551996 -0.5912969057158913
Ni 8.288491842108089 7.093799031873342 9.266872128613725 1.1219954810234354 1.4341903968309944 -0.5971330527816942
Ni 7.1116328573777166 1.014856988686784 0.02899069596072272 -0.7510631992756678 -0.5752354813776545 0.48076286681936553
Ni 2.047182542754966 6.620193624917664 8.735417736531183 1.1836636474571938 0.1753646622186657 1.677058344107957
Ni 0.3145510601045179 4.881829384637085 1.3070185164030896 -1.8482184813269718 1.2474342049459355 -0.07517725666378665
Ni 6.6440907684634665 2.389449540991015 7.0170551405848505 -0.14445768822716412 -0.39514538865886145 1.552949394740474
Ni 3.5884889466891945 4.599757254667724 0.5924099145553329 0.21551500918530625 0.21356688431999996 -0.13409048606022714
Ni 6.528422019019572 6.039667448463404 4.948092136696737 -0.44937972452239383 -0.6253987324956068 -1.2376385590117525
Ni 5.446996372920142 2.9955165315444763 9.451027151115898 0.46784538742674914 0.597522317800313 -0.10080575586516832
P 0.28307020325539617 5.4840337493900595 12.451481999523029 0.19169270995472795 1.1777889338439715 -0.8113954205068219
P 3.963620224490142 6.235793871496163 12.57002808558568 0.2599171894497653 0.16321877088475115 -0.5238548129128333
P 2.6136462044745934 8.809498881523169 1.2643652655423943 0.034116482067734794 0.31497684942807047 1.4044877275602394
P 6.49861679298461 8.294317741069579 5.770111869758175 -0.48405053643170187 0.02246758497489679 1.080291673526746
P 4.91954249233451 1.4160678392683241 12.650631863223735 0.23912390685349785 -0.16741224014080844 0.8117378914479052
P 4.307339131715027 6.759239022232117 7.9075036182351965 -1.0600599198609033 -2.205209213292983 0.25654724453626787
P 4.993251985151365 1.2590607754064538 3.8052215195597276 1.0062572722181509 1.1164097594055418 -0.6873466349533129
P 0.43591056226440106 6.294911222400068 3.9332168850038043 -0.07532098133050254 -1.1876776537125933 -1.3187571208606386
Ni 0.9546164629047228 0.03295102884410607 4.498858711446733 1.5088048390127757 -1.381157794585047 1.6956286509109766
Ni 2.353818415994562 6.852343827579078 4.701843806438701 -0.5068755047460174 0.6662910998345943 -0.33229528610186
Ni 6.167499360002449 5.911461145298308 8.971254326983745 -0.30231262369684064 0.05556333908760109 1.0155304699899608
Ni 0.18039010378458142 2.4432340940994495 10.23316595765004 -2.1749804963154284 0.1594302503765964 -0.6133957944974597
Ni 2.7843231284388965 5.498543707775339 6.712897557279656 0.3410732894048062 0.08234292117429044 0.2678395296206355
Ni 1.047593427208641 8.902055796685662 8.804113121009864 -0.8178568598614495 1.2852862427967027 1.0284062975113646
Ni 1.8176256869666931 1.3810302619717094 11.352460860149467 1.4766308253833924 -0.63473080852981 0.13686213526809332
Ni 4.499840348027234 6.960122958366658 1.601593500381969 -0.42895436678850646 0.09266641458748556 -1.6526225796630958
Ni 5.743651513299379 8.31872624878755 8.161089111213544 0.08214314645865853 -1.6646694835253009 -0.7501712835890177
Ni 5.4562648485406955 3.2949111228460435 4.693571577803568 -0.28290696547671923 -0.4246032889086623 0.09949140792911898
Ni 1.1104638258761397 7.71190134347891 6.772838569760876 -0.4490089714465364 -0.29743318411735226 -0.922263959924631
Ni 5.2904915417273655 4.988777548644891 6.893804504138251 0.957342291685003 1.0920842952862997 -0.6995200370910534
Ni 0.8855402947478364 7.341052740619873 11.110088852946529 0.5538765560859042 -0.05688977120850848 0.23074133921675746
Ni 4.4732402795713995 0.8865867650001668 10.608131042095033 0.24405656826842487 -0.9050357689718026 -0.4367445522568865
Ni 8.26526129828672 7.789026018445606 4.700467688925383 0.2224510741835072 0.28343944094142154 -0.2044402394283834
Ni 7.499283425893719 6.711746074741971 7.037128923793385 0.4491048735944524 0.3397121473912214 -0.34649600308227424
Ni 2.203367771340137 5.752783016373815 2.5750646908347896 0.7649867513352954 -0.5021094508159417 -0.12294372541478828
Ni 2.3554620865479605 5.356375336409429 11.198270864986059 0.15075406275883713 0.15760271024955438 0.4130263827043403
Ni 1.0064925318705997 3.598515337064926 3.972442169610356 1.6416375414065019 -0.899201935898845 -1.7769061069352299
Ni 1.6562720276413907 1.31710974045065 2.6380401017876447 1.3883800233650994 0.5256461004853012 -1.1037571036385379
Ni 1.4271260894914677 3.7776571643792316 7.880533723904846 -1.0309702015837987 0.31148014912872163 2.347651670862331
Ni 4.235236783439272 3.1008484195081074 7.20842678996675 -1.4617937603705597 -1.4095147484611854 -0.5550574637678828
Ni 4.462090714317512 7.227758181975332 5.547988057472494 0.9694200487851434 1.0490789953693676 1.5583921630225999
Ni 8.656363574964859 7.3450888649787744 0.2470455104764346 -1.0741197403880791 -0.7817225760327376 -0.2993088038735104
P 0.3369515502964194 5.747906793732065 7.875454781894844 -0.23213436290954215 1.5599003721370104 -0.7240787002670239
P 8.820274055151005 1.768982170089167 8.20468473319152 0.45698376212189684 -0.28632113336459075 -1.3005282565574379
P 2.0554739475465547 3.500698676131557 10.125699124267605 0.8632609990278618 0.2779462790373342 0.7707596492633306
P 4.489740905626907 6.3725563930420055 3.6101479588314516 -0.4662885844625905 -0.7336051517002204 0.2901793307684164
P 7.19949617995995 4.203769623844762 10.139825559523759 -0.10449503179129746 -0.5551855047053148 -0.017793062317362905
P 6.500808353722475 7.975801782330142 10.359811686939715 0.25985831118737185 0.3960614727152276 -0.7523713765641301
P 2.80559039909926 8.890212237198117 5.613823455188262 -0.43846770559558035 0.2737296698528254 0.15892502860540372
P 7.393851091396268 4.083471202342128 1.3986878494667483 -0.6735554947064916 -0.06181394798300322 0.6955212003443054
Ni 2.9258888206018936 1.7522806509660218 0.35115377702809136 0.4619454770025464 0.206946807900321 0.3162220346890812
Ni 1.7618869922003295 1.639397009959831 6.864668617278645 0.3298558234224319 -2.4570593094638973 0.24361331008341916
Ni 6.998164800174762 0.7879090033268779 9.019862230999282 1.9643541826809912 1.0242632218772683 1.8967976757872562
Ni 2.9292218192240633 1.9437134814185197 8.944725484251892 0.23143682262188525 -0.8544904519240832 0.7177977523543186
Ni 6.738811849854602 2.3639726474133353 2.5643461325260155 0.41260035091051517 -1.1485565193414156 0.30474334462552033
Ni 4.2657542667140405 7.067755985105047 10.198938344676128 -0.14348169746714 0.05404793088433917 0.29909488809049134
Ni 7.537927946904737 6.281150047266891 11.320906951275749 0.4623154587474554 -0.5157895194061956 1.1300178371072798
Ni 7.778259976320845 4.393997095891434 7.787459965668339 0.14281475330710242 -0.5125483867610786 0.5124319157878723
Ni 3.155683095470102 8.565760801460295 12.651393430580143 0.05824140014039647 -0.014109957038820859 -1.5384059497086602
Ni 0.14551689354330638 4.868214313553099 9.902746171502764 0.410606460408938 0.41300529965841776 0.686195037847373
Ni 8.925331998022402 2.3844272143000746 5.8136152635551 -0.24547478877219014 0.857261586911317 0.1681465472036717
Ni 3.913314774053069 3.170193053855382 11.496080227353906 -0.9328923861727547 -0.1637291348622664 0.26497274959580175
Ni 1.3643378743516383 3.5068441777006525 12.790094570228689 -0.16557492982175354 0.10053270470943974 -0.7838699613930437
Ni 3.3169363082615853 8.753714529241433 7.770046189305388 -0.2853986215503214 -0.07001268174371168 0.6159329590970166
Ni 6.083471268711478 8.336715309844191 3.6164961797688 0.22475812505012904 -0.5981573802811505 -0.29468236084509253
Ni 3.7510479644203225 8.715124797248862 3.229689362136877 -2.4687760836801935 -0.7916159238870496 1.0604026479123028
Ni 3.814785855879893 4.667777821069206 9.183769058584199 -0.39114732324306184 0.6017762079806604 -0.24168138316802892
Ni 5.62260430854464 4.79488834386537 11.468802601369946 -1.0566591217094705 0.04327398019728676 -0.18421079975538598
Ni 8.021778900309931 0.030222535725464277 1.9206527835543366 0.32862169390501467 0.1830286065218267 1.3748200252924774
Ni 5.231775976958736 0.36348404562950365 1.6037987583744455 0.04639478521445558 0.9409234840073473 -1.2593607811801923
Ni 6.369141210892167 5.620878454463572 0.23664016272311358 -0.5300627414957582 1.2678402794061132 0.6478403493285746
Ni 8.423957690217362 9.069262749481679 11.117987603105918 -0.62349380216341 0.03900723450113282 -0.239484118406394
Ni 0.3947567042085282 5.032298292297659 5.771382061835828 -1.132343657026979 0.7386005480322828 0.4293181778858284
Ni 7.772461471868577 6.470491763515344 2.5019989689846813 -0.22788484360456882 0.11392352419404894 -0.13646849937410044
P 8.968907530693617 1.5077024726203 3.706762000809918 -2.6240612015401648 1.8279638448429938 -0.793240603974666
P 1.9265279926324292 3.673001007643109 1.6511236862080232 1.2763699141436793 -2.0882232481235263 0.42858027127853926
P 5.054122584645563 1.2264978354430112 8.322843643523813 -1.4061142074200685 1.046858847789597 -0.8383994598994916
P 8.847896851951177 1.7214070390713498 12.342625351372666 0.3638265239409218 0.6800357031141966 -0.13165050916016682
P 6.529946980033003 7.761092750540903 1.0686835467093605 0.6333642671995866 0.19098308548221302 -0.21123052287733943
P 2.011606206776959 3.5158478397320474 5.9343401262513105 1.6038042726088122 0.031792719030564597 -1.8995269017929608
P 7.171663358589066 3.996000534392096 5.678442536694516 0.7187326054637622 0.7627254661049444 0.2746277561870625
P 2.746692204269141 8.703518656841252 10.24113136778187 -1.8597046275897007 -0.14761268891637805 -0.22348311499244736
