# total energy = -381172.4661642711 ev
CRYSTAL
PRIMVEC
9.17555490725332 0.00000000000000 0.00000000000000
0.00000000000000 9.17555490725332 0.00000000000000
0.00000000000000 0.00000000000000 13.42935208606838
PRIMCOORD
 96 1
Ni 8.496839159908504 2.479519392483218 13.137760536845024 0.49070300875121303 0.8329358656817591 -0.6197225080464359
Ni 3.7076674239225382 3.5731813148690743 13.189168418621227 0.8403776666717849 0.6762626092250096 -1.0581143660987584
Ni 1.617613637285217 6.857938235115335 7.963404508957647 -1.1654316978301993 -0.324667337242957 0.6098828962481948
Ni 6.07759398795965 7.144270603207195 7.402930415094214 -0.40787260641754275 -0.22477637988257418 0.02780468091709405
Ni 5.56554296784383 0.9697277015367646 2.8512532383682903 0.12385492437514797 -0.21065768109300495 -1.6689305727944999
Ni 6.200381264438701 1.1784165235543653 9.566573987624324 -1.9121823857734424 -0.7294024264727825 -0.4843508412809401
Ni 6.916964580175097 1.4129253572303173 11.828788711982197 0.4370196602951441 0.22751331919776302 -0.23420178696153215
Ni 1.8433965181939007 0.7662037994063299 4.591509178364185 0.4374595760460402 -1.2995340109649685 -0.8782237909852811
Ni 4.811899585622686 8.384099116111006 8.726701492552547 -2.974498448658374 1.0384665099608439 0.8937432267771188
Ni 0.8993291736591774 0.7233282661877295 0.6224971751732369 -0.5363280056791796 0.7225460656725814 -0.22722252743022156
Ni 6.157632353878554 4.857162598241963 10.551966196589351 1.9004553271445008 1.2899090862806946 1.1909637806630327
Ni 8.630627926784982 4.34590985140769 11.024611878372568 -0.7978019980931035 -0.8507127300492059 0.3909663175805073
Ni 5.555596666266839 0.7958307488177188 7.27873560848425 -0.4875770615277216 1.0891118429215372 1.1840688533154125
Ni 2.6218781276926397 6.474427564438688 12.867360602386269 1.5328791063531602 -2.017695574416609 0.298808210088008
Ni 0.5490826423801914 5.776241236397741 1.5947224627702015 1.487725135524341 -1.6137567558358337 -0.4172041682311138
Ni 5.143247226349894 3.741057268423156 3.6689530048784444 0.33222843741966657 -0.6184613819458252 0.7220606413957307
Ni 3.5828431742422953 5.704662732152257 7.486608723665878 1.636305844780943 0.8323954197972567 -0.03745017442665809
Ni 1.67015286498803 2.510046463836215 6.190877224610799 -0.49742490085607877 0.2609525726928151 1.1582652619887472
Ni 3.211756204981926 0.4664797088498778 6.426132948460521 1.2266851453240424 0.3710803772898577 0.34995002306914574
Ni 8.419516758257855 1.220679129701616 9.895673617386251 1.3881851337454738 0.14090956586458958 -0.250257297762498
Ni 3.172438951976939 0.31752558473497583 1.4474557232125032 0.6398336769740142 -1.410845551457467 0.2712048465484426
Ni 4.247190055589568 1.570497162563955 4.466078424501065 -2.04592217336247 -0.555543659375682 0.8400269682005855
Ni 3.4412643612045013 8.404211932584037 3.7572502878171345 -0.5742852016492432 0.6009380283500813 1.8261681863951518
Ni 8.855851098841086 1.1318322310208024 5.2982691449600585 -0.9617126528385567 1.0975815709554453 -0.15601196872366682
P 6.263866929209181 7.103797230277207 3.5292469226080527 -0.8104461692196753 0.29551565537966523 -0.46494466884018637
Ni 0.6300605851270317 2.601691906779928 4.032834410828471 -2.6722945826252555 1.7736642029591647 -1.4512818050956424
P 2.9305254454480063 4.984803743295026 1.244037339964112 -1.0636700058096649 0.6299930367345085 -0.007650831677038436
Ni 7.571952395462841 4.820258516191542 3.6776284920934303 -1.1122515142627942 -0.9441005961837483 -0.4130754907747209
P 7.184367778383809 3.1391316874709645 9.736764016139396 0.29584167126051625 0.010354603761446684 0.18063130993424376
P 1.8286972791474625 1.751007855298402 2.525725652152416 -0.3302492022061087 -1.122314812036067 -1.4545882437610562
P 4.3386519874340745 8.054696693035387 13.290532609378916 -0.9297898359880309 1.249136275238707 0.15666734291947856
Ni 7.303668343977938 2.4007105509289985 7.700215643142212 0.3754502242227792 -0.5486119652528552 -0.27397238199125074
Ni 3.704098133042972 1.6257890567548654 8.576185688983397 1.082037452573259 -0.1186507544663892 0.5943223228057765
Ni 7.503805548772516 3.754728845314038 5.8045551638943085 0.4189247504666462 0.5196541445679245 -0.9489802928735527
Ni 8.300619917081983 6.5980222897542475 7.243081237019424 2.324397842540713 0.6766829845918797 0.00750247902463224
Ni 5.482256455468972 8.943385893162574 5.377179835174338 -0.7054034924550239 -1.0681018163287732 -1.343857772583008
Ni 9.196108203434768 7.927762065714271 4.953403159109806 0.123023172502472 1.0077451696175872 2.209204450495305
Ni 5.193813709736238 4.616974096045571 5.948531549443234 -0.25258568878535853 -0.7038469466011813 0.5323055147833476
Ni 1.943052220617976 7.523679800816577 1.5362237121206581 -0.08914246059462712 0.32094952207173755 0.6733873445597435
Ni 6.424934620982702 8.46869773284519 12.58976244506114 0.3049035243524684 -0.46982539397125533 -0.5706710019354236
Ni 6.945619838316188 4.831700433227065 7.932611346510801 0.20489609601887937 -0.027269634349230455 0.3403994032662331
Ni 6.746895668985498 8.138542914262825 1.3630929182407994 -2.1623383820713857 -0.1771034992866434 2.4809551422448886
Ni 2.6737016621085474 7.274912154732283 10.308961716575638 2.2472390366705235 0.40422883901736834 0.36352030555441267
Ni 1.5821684684734867 5.508929793738633 9.915656140978845 -0.6126871984662093 -2.964582732206559 -0.5426058682680913
Ni 5.442049173632834 1.5680656404994693 0.22892642603809074 0.05358333254309481 -0.21283926212535603 0.3398836399720791
Ni 1.4138337371713892 1.6330836229483225 8.696284527859074 -0.6805028725586022 -0.4592887561059896 0.14188658506587823
Ni 5.061850878296863 4.874550274891776 1.5812931205302718 -0.8849263998164373 0.514268711886295 0.06525511245406826
Ni 1.5801773730470965 4.158499141343079 12.041482663739979 0.49804633649016167 1.3424161550404752 -0.4232678579266904
Ni 3.5581334047341437 5.663225925951434 3.597012066212027 -1.0515513681692599 -0.615411796486224 -0.5266655428887511
Ni 0.15013960581577576 3.6478703322461086 8.821821718159734 -0.44652065780704386 0.27334580415084536 -0.1997574892407334
Ni 7.707622151106186 1.3104252327685417 1.5821391066976136 -0.5456729372291893 -0.5904345577155959 -0.758545623695642
Ni 8.547240483305561 6.2293117892286025 9.637426705472446 -1.3387276504452943 0.19305436618894492 -0.9634723158421407
Ni 3.8433280040109232 2.364402879950998 1.8130024923878287 0.335360555290745 2.4653416040773477 0.8879657008633932
Ni 3.0797474957677493 1.2045576796363275 12.768641724123643 1.0700201163974088 1.3571992268869206 -0.40678143023589297
Ni 7.327176115786286 9.121492590497416 3.8546533914984504 -0.0066478443338208095 -0.838962274381497 0.3139376095302787
Ni 8.71191416817849 3.7325148267550943 1.8005136445313321 -0.6346876139967004 -1.7062457643051905 0.8932570311693198
P 8.802587002296407 4.8496845209493 13.17658506254864 0.0574304742033269 -0.45798726368574677 0.2618437170485168
Ni 3.917980319168116 5.051234761207769 10.989775966410203 -1.491971826615837 -0.04421037596862709 -0.12997080746489875
P 7.909098986924972 8.353461938098485 8.697909518642547 -0.3649184714535199 0.15216174173964114 -0.4548955121343004
Ni 4.650373116101149 0.10876519338868439 11.256737820425323 0.9167476580920921 -0.22647125108649382 0.39466999168433964
P 3.817985121210509 2.975228749214703 6.226505904521735 -0.10580629440355327 -0.02452909548961582 0.6454618217940691
P 2.790249561214578 2.813399486379475 10.647864509257175 0.6474382287941495 0.44161884963005227 -0.9939013217559594
P 1.5373642336022264 7.038146134536092 3.872420936123621 1.5635922191663008 -0.5900146965693581 -0.741546260924168
Ni 0.74511745655201 4.940054561753527 4.000940181786387 -0.47034115726540937 0.8650407166361037 -1.1804749653165671
Ni 4.852831736300691 6.849184755683186 5.254811881556972 -1.7392114205979339 -0.6048574180091454 -0.18040788106952801
Ni 2.70184308917186 3.090776512830059 3.9512105090124243 2.010168412801628 2.3469199349026293 0.1409861847387959
Ni 5.245673946371987 6.156237669524584 13.022012746131532 -0.1526502513402855 -0.36429549315754034 -0.5471706048206383
Ni 5.046775441497051 3.721173840824134 8.909099596942331 -0.8676280177473058 -0.547877915300308 -1.4101552102586619
Ni 6.327545280633827 3.7250092227975498 12.822909626380982 0.31240240383267487 0.6054294884625315 0.8212838832651275
Ni 6.331958722569743 7.505631484209621 10.092937038367257 1.1597850410673833 -0.37378543492584654 1.126943826167646
Ni 4.251254826436992 7.368236724233735 2.0837786245999554 2.6036427857848126 -1.1624134798291657 -2.329300936269285
Ni 7.571053191076729 2.4064085705593596 3.5959504545031176 -0.6349529518429452 0.5269067123652796 -0.03791502987821858
Ni 6.230734000247453 1.8802088446947194 5.348924631229517 1.2694040243488074 0.7969548196014598 0.6731875698441117
Ni 2.301164955164447 4.935668646482493 5.61130696576394 0.3415695123149343 -0.5129391944415941 1.5951088017173431
Ni 7.293602760186462 5.517481410961654 1.3517445918658713 -0.43343965625336967 1.1481153180389387 -1.054742621413048
Ni 0.11792790257206359 8.995337885347926 2.593006326454485 1.3993383221488158 0.9009204612518483 1.6206532258453508
Ni 0.5064429209240714 6.68852996388288 11.582937057264292 0.38576857542965176 -0.32087058920468614 1.8990142238226007
Ni 1.8350834653998476 8.481075556486667 12.504956460784856 -1.1227979223200728 0.2226143392342489 -0.4385540946617995
Ni 7.559739731810649 9.178491137910948 6.55098564236114 -0.0871421423351467 -1.9614128406644804 1.8290028276304693
Ni 0.9499268539323861 9.163635914430182 6.8136368206559 -0.6511473022146206 -0.3449083468801802 1.3397751178732025
Ni 8.389182373559025 6.873041198580028 3.233331604915631 -0.6366984737791421 -0.01622443227866238 -1.3795431417997595
Ni 2.4662240133457094 7.411508641426622 5.9514998414728995 0.4515862452554093 -0.24669143478811065 -1.7888532519947773
Ni 0.5353826212689322 8.278093929654387 9.914353212174477 0.2995525444532002 1.215277674818049 -0.40504850670518633
Ni 2.569981188837049 0.35116133410853023 10.507501457251625 -0.3303900986593471 1.294750473533396 -1.3254322188879688
Ni 1.1158208876150375 1.8678034943883617 11.53182462835781 -1.5355782504518778 -0.5720431996926019 0.413521577173204
Ni 4.93134696009618 2.69331899861372 11.138331871439826 -0.38537288265312986 -0.5709875047345779 0.25395428699811107
Ni 2.619942085596011 3.808460895161693 8.29134893635007 -0.7093668479781461 -0.6550875178092912 0.39517598478648075
Ni 8.768206197860074 7.7048052557333655 0.8395999810894547 1.0963482127689763 -0.03147801600362321 -2.436724454561287
P 2.6227589809688308 8.705408699711619 8.336619289413315 -0.3415702836458827 0.6253588803966069 0.7164733771159403
Ni 7.4704615820467 6.302762106685993 12.173170228530543 -0.35003152703935847 -0.2130835169256782 0.2980636186124996
P 4.869237628569749 6.055609358274715 9.18475070150488 -0.0009140271738371354 -0.001486097627223247 0.10796139307334311
Ni 1.495257611889301 3.131277412424927 0.6698210174366022 0.8457487011757112 -0.42609555718347264 0.8686672576450976
P 0.14625926362305489 4.176997060143092 6.7396680843432515 1.2216213576478898 0.6919753919745759 0.1237381962916256
P 8.629572737964544 -0.15832695350687256 12.382104037865584 0.5153938266296737 0.11195123095902655 -0.2246434538491357
P 6.305468895399288 3.1982406125253693 1.871098436174614 0.8533499105617368 -1.3459241681937335 -0.6532347808712684
Ni 6.948418382579087 6.167138228817449 5.49139622576495 1.3447376040848003 -0.12082847884399836 -0.9761581388399253
