# total energy = -340862.6869263896 ev
CRYSTAL
PRIMVEC
9.33450661177249 0.00000000000000 0.00000000000000
0.00000000000000 9.33450661177249 0.00000000000000
0.00000000000000 0.00000000000000 13.66199397272032
PRIMCOORD
 96 1
Ni 2.6269355063336044 0.2392004645123734 9.362796653327209 -0.16138583144107047 -0.8128797183618321 -1.23276734696238
Ni 0.6657388750659647 1.3943605870528775 12.56902043563233 0.4659723387737523 0.7673207987851108 -0.557515438390072
Ni 8.840711167032275 4.306605286523786 8.679273676354972 1.1954665536293927 0.15684423481697501 -2.1120753721507755
Ni 5.797904724246741 5.931108132919057 9.09724861058649 -0.07423700423770441 0.665914433221466 -0.3183012858156131
Ni 7.337388884854524 0.028557055932110484 9.944155322854684 -2.3877976469535973 0.2215180208462766 0.2763092576545435
Ni 4.057971369677549 7.513979080037626 3.445732285534115 0.23678240320451477 -2.6668219895464587 1.7266099297838393
Ni 7.956724060888126 5.170532538061291 4.315960329002511 0.6123156740594035 -0.871023673692416 1.928851104678375
Ni 7.132029740440301 2.609928035373481 10.49540367455775 -0.8164149852086005 -0.05752200547586868 1.084192808353365
Ni 4.566636635885014 8.88080287272587 7.898941598353902 1.1742870913383001 -0.4051626636855474 0.9083306376729906
Ni 3.261439255534166 3.7798124085684845 0.20614604331759145 0.3093042245233254 -1.1721633601270782 -0.5592365348462369
Ni 1.9819584407679174 5.999427386463044 12.509126507713265 -0.8392134711603547 1.6248531228593115 -0.028373408936370487
Ni 4.563864287435422 4.953421249882638 1.659631394948636 0.1548732271335333 1.0773994395806155 0.10478659488978727
Ni 0.5759082511445889 0.32131891911033883 0.9623484218499905 -1.6047563521094363 -0.7255833098370085 -0.13161914170159913
Ni 8.32592246451864 0.11889267665861407 7.685622920192316 0.08610007422387753 0.5858855048923329 -0.569707866691206
Ni 5.720054939500623 1.3487801914994844 3.139567004380233 1.0184928950523944 1.227222505884751 -1.4773833872787008
Ni 7.685173930426574 5.098218115707793 10.384358517567728 -2.79150686602207 -0.6202624397103059 0.3304682601954502
Ni 3.8162916602217023 6.936229130747905 9.737668570047493 -3.272712991026441 -1.5258042017842497 -0.5262289695719647
Ni 0.1350824448437062 0.14751507413667453 10.038094996565656 3.3087274614478366 -0.33111180731672 0.3288001284644079
Ni 0.11543704232851655 6.653598940994549 2.5548609807988076 -1.2721491911941123 -0.4099292318362553 0.539118166829807
Ni 7.30619296391669 1.5990663160075997 12.685229441653712 -0.3420173984856303 -1.4846066445000174 1.994423491262546
Ni 8.23891552883296 0.5545350314643505 5.041508187977805 1.0501786561914492 1.0322542105025447 -0.006327227769608458
Ni 3.1027993164741794 1.0047102795400187 7.126246080173071 -2.288133718002356 0.891252342034465 -0.8192339427146343
Ni 5.641934454064139 4.173663244035271 5.524254329808225 -0.4720275438288967 -0.3970953132963806 1.814659928645236
Ni 3.362139912349649 5.958747606855899 5.546496592049598 0.15539541818559047 -0.9847672206651749 -0.7227386412993617
P 5.464345466678658 1.7504066709343176 7.670854797356964 1.5845166280237937 -1.7633877607338213 -0.2275976513814532
P 3.4061427762936787 3.558827300165653 5.759609911066771 -0.5704324035620563 0.7795991019318316 -1.5054114970605108
P 9.060473455075186 4.947269810056775 6.397966011126412 -0.5883715045389802 0.2188646423838295 0.9291349760128514
P 8.641531465963608 3.080676535916829 12.149474503946042 -0.4608607285787999 1.852703513681519 -0.3858385094356387
P 8.177979869981321 8.20007464701898 11.612831854664108 -3.17087005214601 -0.9707829905709409 -0.34326464062917017
P 1.7157476480611353 7.8043475757327725 10.316404243230405 1.4613204202785672 -1.7313232760991086 -2.626984802944863
P 4.599662120109446 6.57027913540176 12.96609260931445 -1.2979841499793452 -0.8703341038245592 -0.7507672653018038
P 7.28108314125877 0.6955215517099657 1.253694240382417 -0.0831949847619406 0.5719097594385312 0.43152958371485034
Ni 6.481769344159231 2.7754848437976016 1.082698214983289 -1.503459258430146 0.2612279378413888 -0.9736867944812972
Ni 1.0717040331518768 3.9397871820671644 13.119476287728087 -1.1150720144307247 -1.1682779090297426 -0.28431824400194905
Ni 6.189552616164356 8.27457334390852 2.3324028872601317 -0.2176467108163284 -0.3339078820046185 0.13774608053494342
Ni 0.3898734022197448 5.57241104917336 10.546622112075967 3.889858996594952 0.9927854629839613 0.11874022885640194
Ni 0.07029163478101905 4.196644799196535 2.7702565866709463 0.6638423811837858 -0.9045040648380487 -3.1579826546603806
Ni 5.865346534173685 3.747571022895452 3.2941940390682345 0.10083738043405213 -0.05410372382293908 -1.2665063910860381
Ni 7.513932407504805 2.35411588297931 6.584930576905059 -1.3996813073105312 -0.4621971880020363 0.710048447426203
Ni 1.8095221010059208 5.53200197025658 1.134555132750506 0.2119378333570092 -0.32700909800225614 1.412820672905967
Ni 2.0526859970054887 2.484789640372705 4.360102277094348 -0.6641861376764497 -2.6485057077357745 1.6523382156534572
Ni 6.2788371714517215 9.016750626328085 6.161928077438018 0.08987471077496134 2.1985410572441877 1.5775502240082895
Ni 7.86672074859531 8.1325114885067 0.5450278365286284 1.7984588934053414 -0.9222572750564118 -0.5474439130866829
Ni 1.8865691181875113 7.133709951621872 8.057351908552407 0.06129484225473959 0.3933029361334839 -0.016428320759352355
Ni 8.791107599149676 7.370629062729934 7.009996002322806 -0.7422615418236378 -1.039714780545648 -0.844184956233017
Ni 5.755526064444897 6.804360556514281 6.098030579653532 -0.7955543397095073 -0.5213379600282505 -0.23143116619493048
Ni 8.11845372162089 4.687714520530326 0.6514664145291763 1.366689425765543 -0.9368554845855607 1.9908990230490555
Ni 4.7134777586477465 1.5861566934291966 9.691914552672005 0.05020901675422321 0.220949035716684 0.16462053632828422
Ni 4.6532141842687365 1.241349355451153 13.601088287010947 1.7806542611237526 0.040482019274446404 -0.0972226664996003
Ni 8.203687101059357 2.2898758088039157 2.54846777725293 0.4106180303731638 -1.251592192978367 0.548823567043029
Ni 2.0429687756720702 7.903648056563614 2.1795522091713133 -0.5111059978875973 -0.8838485933712262 -0.6575992284875513
Ni 6.213308935370456 6.64734482159648 11.506227122446715 0.10591788028075305 -0.12278817367353045 -0.009987450230015057
Ni 0.4389505039321182 2.726786723051738 6.438050249214755 0.9889434635300517 -0.42848411202030723 0.1929929168233902
Ni 2.8947611686760077 0.499060992403474 11.554167281259561 1.0449981404317743 -1.2160677748195121 0.8119538641134533
Ni 0.93629768093039 4.538987827441608 4.654394999349119 1.400870699632942 -0.46348839600963404 1.9230998040168943
Ni 2.770481548279146 0.8780447592653265 0.9094320375877275 -0.841621566381215 1.0477229955621052 0.31071473171760683
P 4.066251077000068 8.13569455524512 1.4516007147557162 0.664948469763771 1.542674495177027 -1.5109889911482879
P 1.3569945572760531 0.5472718519066819 4.717814570397513 -0.743783377784803 -1.4286005614480428 -0.17722922623123025
P 7.271020543182472 6.170286194615676 2.622569757613489 0.11214200681359397 0.6883858748511048 -2.60472084934034
P 5.288464693994441 9.102338717015995 4.319581184098796 -0.64828694994769 -1.5376266483404746 0.5700246266006763
P 6.754710316098861 7.790831210227691 8.004725827444293 0.48278529656603303 -0.17422514929758381 0.8443934726993974
P 0.9576363629363405 2.4943855131207884 1.2698560050478163 -0.09026243313168326 0.27867930054861684 0.18601185751986676
P 5.535791779921679 4.200537288433841 10.41446976884279 -0.03700691624165239 0.3318085762734285 0.3198963982168749
P 4.207948886645881 2.7837178785872987 2.096897020445901 0.24984463570511162 -0.9815363724327032 -1.0271760246486892
Ni 0.08270279470888951 9.011999362486865 3.091039705104496 -0.4574306198513283 0.35748078422855206 1.288447928354136
Ni 4.84854806863292 1.7099509194847156 5.6266781365354746 0.17303601408548908 0.16428243626257513 -0.9778753786413481
Ni 1.7529923292526237 4.872220377279941 7.1523677633425615 1.0026276458853636 -0.816190013681988 0.7119464357798642
Ni 0.7206341747198557 6.746803989038913 5.339202404424601 0.9671772754975535 0.47234018997330907 -1.2260945629278948
Ni 8.652592856242283 1.9669672232256792 9.005508146622063 -0.5473387549673864 1.9620759281697757 -1.2740356095835477
Ni 8.36561278642997 5.968007437367667 12.457838994846469 1.2284957161702197 1.723607909732722 0.20640661912613487
Ni 5.21390065555895 8.401167921933325 10.215933215276404 0.8369820107266747 2.4116536276355887 0.9567000301153138
Ni 6.3103878036389975 6.11166549339198 0.4738932958048546 0.3282676529997056 0.647233568982511 0.7495105100765672
Ni 2.9561822218689886 8.05313084468404 13.184998923105415 0.7032921025389759 0.133094440695545 1.143000879630509
Ni 3.3131990944331142 0.24420282658017256 3.0573216004929935 0.06352990223284542 2.9225979031343408 1.665597394656209
Ni 0.812008726026964 8.334678231675937 12.012813594042317 0.723932661607463 0.2576029394942918 3.1250316536556566
Ni 2.692669101559284 8.29813363847677 5.548381228924928 -0.01903516225458012 0.7417892301729095 0.1546431134005982
Ni 3.3627746587960208 4.842798012589321 11.270680183803602 0.9652060107037957 -0.9204999260456728 -1.313443679067525
Ni 3.9967090030961607 3.2028278888170343 7.749492414457108 -0.8834333602106786 1.211906701463287 0.4067518625495382
Ni 6.456995563737624 3.5963053440212485 8.346262354322212 -0.6398444756072916 -0.9401279846892454 1.427180798282381
Ni 5.7592131945377885 5.893135360215554 4.010915188636343 -1.5945431590218604 1.3465857130371324 -0.8250613480296887
Ni 6.656950028851126 4.228176762370682 12.633560147468437 -0.19357861412353114 -0.40845907504863205 -0.9481110028947219
Ni 8.79586819749746 7.2537423715319855 9.22860845421236 -0.5702251726472566 0.17974376512296786 1.1334006375365835
Ni 7.062263638378852 5.390192146531995 7.2210603971491185 2.096620728158602 0.5187411458353517 -1.0906282795660638
Ni 7.531238582674986 7.686406085293059 4.8342009320436174 1.260101516000959 -1.0938311027740775 -1.8876450627537102
Ni 0.8139353681818319 3.2382896792547444 10.498737026851854 0.7914218055983724 -0.3345658273035915 0.31189589650990157
Ni 3.031754387013423 4.033253596295328 3.3868492846759626 1.6535936853271136 2.776328872730051 -0.9234813772714998
Ni 5.771245373499149 8.45998464779487 13.105526801118422 -0.5281835221951742 0.6940124770092628 0.001085262644378776
Ni 4.7109854453950835 2.9327806139123314 12.04537048603722 -0.192754575560339 -0.4794022390264131 -1.0716609944349416
P 4.113735711892574 6.8306931995321225 7.369443580396271 -1.9125238282732606 -0.028339470374641518 1.5919550865797099
P 5.690688581849388 0.9018281485404627 11.55333370982337 -0.9722060961707127 -1.0720422890337602 -1.04480916434942
P 7.1343260290551145 2.6430655336766855 4.538555639787681 0.5917306508192002 -0.7981994906418381 -0.14846449539371206
P 2.510067484148783 2.4464808254328885 11.812460545498517 -0.06946323699814488 2.5930629533864376 0.6814061010991619
P 2.647630107386619 4.008918537682242 9.247680718024503 -1.2493255084313775 0.5417928854484927 0.5769792035416386
P 0.766895055801785 7.333151018874339 0.39330570028343165 -0.29893290859133037 0.0010580089508691456 0.24737869066312235
P 2.1704034592876593 6.028308349772934 3.542786884085589 -0.3601465039861733 1.4509627311933269 -0.3910285382770104
P 1.055079276960889 1.2007815899227798 8.18593847027803 0.6184873500877541 -0.278907614509339 -0.8185878244902031
