# total energy = -340872.91156224365 ev
CRYSTAL
PRIMVEC
9.18441195834446 0.00000000000000 0.00000000000000
0.00000000000000 9.18441195834446 0.00000000000000
0.00000000000000 0.00000000000000 13.44231527562466
PRIMCOORD
 96 1
Ni 4.313697796229172 5.1018856480180546 6.444070790450031 0.10468992141092291 -0.39663714271303946 0.4616076340471534
Ni 3.044687617925438 1.2480697194014219 10.288210022794964 1.147031855166773 0.899933928968863 1.3659800584033444
Ni 6.949890330558929 2.800621058771906 3.996414024653121 -0.00944211924950632 -0.23697343616939834 0.0195799790144566
Ni 3.3121468739316837 2.994549913913278 2.8276581302265673 1.589909774014907 -0.9088204328252155 -0.5255324577255723
Ni 9.098399782759788 7.345224152046271 10.924099202804978 0.33734981780663187 0.41779603617884176 0.7915935552895464
Ni 4.498286104570696 2.912478010075092 12.34181970319761 0.7550622931327319 0.7827368762298649 -1.6689922792703709
Ni 3.109483643169216 6.592019724800769 9.431974863985365 1.2568405858615 0.6679679733163851 -0.8581486175019607
Ni 5.845446442874334 6.593819869513424 13.443927994961653 0.5713358892129322 -0.9432053380629885 0.9414346193158109
Ni 1.8927695056504672 6.030842979454192 11.186600713321985 -1.2157325029672805 -0.9692490704249179 1.5992349080705748
Ni 0.3367271713550841 6.175791366470111 8.525707621899299 -0.8375954759409574 1.5120043197866802 0.2828699415911967
Ni 7.286645973590591 7.662462920004504 7.358067633506355 0.07956355865694038 -0.9249780164216845 -1.1525885233189441
Ni 5.000250947047445 1.4422924757203701 0.7386443792201348 0.45609750286220163 0.4560049431483953 0.2911257538420857
Ni 4.342821566044625 2.8317011083006016 5.324756421621253 -2.2376223395163652 0.6692632950890409 -1.0128446956276813
Ni 7.311443885448592 1.805462487086703 8.684124948818832 0.23940261443618122 -0.47136574187518177 1.538057565230306
Ni 0.3071248936848897 1.3437161838789138 4.585886105870856 0.04045322291904001 1.3245217912585574 0.666817918872342
Ni 1.756123826901079 7.5622518028627805 1.8014856367776235 1.5965118527124569 1.3033266452381813 0.17291517223690867
Ni 7.673621980340606 4.931496440318186 0.6810847520329935 -0.6681299528155462 -1.2879779306962527 -1.035957370385745
Ni 5.651995177146523 4.862227606528167 9.44294380699722 1.0191935206638447 2.0267358302420067 0.4103118119866547
Ni 6.173045227342133 4.905908669045447 11.702812415381745 0.4675553669901561 1.1792976571790141 1.90379596148196
Ni 3.4221669428750174 6.745684118614185 5.26300227356539 -0.567010522364701 2.0789605918746776 -1.447412037727591
Ni 1.9048194539310963 8.620167460372326 4.673906753231424 0.3188455883548573 -0.13004202702246637 -0.8323529965950955
Ni 1.4860378291202445 2.619054421912338 9.614427796583561 -2.0945558752097733 -0.1329928821206742 -0.3989817316858161
Ni 8.896388645235065 3.5582707413282497 2.693571228604453 0.4254646084676931 -0.6618004110530925 -0.5162929414051753
Ni 4.112182616941611 3.829412946465999 8.340526000555542 -0.31510746146866375 -1.4038853180895499 0.0244290795766418
P 5.000599954695817 1.9397018499446852 9.091319519703738 1.111059550837222 -0.42240396726449836 0.7723568185471216
P -0.04309509704448709 8.904617878207203 7.6174510362175125 -0.7733248388873456 -0.9928209442075867 -0.2341454798023
P 1.4024413129233815 2.0443214847500544 2.597378291624905 -0.5872813567985951 -0.11503604053193738 1.4768825363828821
P 3.206149577356426 3.129744455598383 0.611723155683803 -0.5182174121213978 -0.9784651897065471 0.23382589167935217
P 8.545865568916314 2.100796432903703 10.566359015694367 0.362009525336841 -0.4716827588949683 -1.6425448837121197
P 7.430134039130428 0.908296078652523 3.085670300256095 -1.1299430180052863 -0.5283205619936708 0.5377022603188869
P 0.6988051561584854 7.0506800656440065 3.484866166905025 -1.7385359917974639 1.52188584056645 1.722946364889323
P 2.5158951085830514 1.371636795748664 5.549780939791379 -0.05452898428581577 0.5562864510789773 0.9780761817982446
Ni 8.086957248954496 7.228067795134912 13.333445950104815 0.7232405206364448 0.05428190127201619 -0.6251344230906266
Ni 6.10185685148607 8.311984522448162 3.709635358427131 -0.7691331694035012 0.19215268031028196 0.011328023418309522
Ni 4.081378099766894 7.5257070283135254 1.1984169523322632 -0.7742743472848085 1.1128801489857285 0.3003076774516699
Ni 7.785589144585383 1.9459013279091857 6.459811953832783 1.6461398001522296 1.497026358320609 -0.3603213390011408
Ni 1.5059863715482371 8.372959832383449 13.108246928110505 -0.43318871658482816 -1.1949140235600324 -0.3890691005577945
Ni 3.9898462517754703 6.7964279938050955 11.946023905796764 -0.2787705747108425 0.6658761237843629 -0.09640479858399525
Ni 5.740716595127372 0.42413338156628033 7.587554857369742 -0.3173222097317954 0.20946443211585217 0.016541449298448932
Ni 0.9371498267610779 1.5602570608700637 7.231333771970728 -0.2810956232995933 -0.18591055605531207 -0.4498836607420058
Ni 6.4132635179517745 8.687700440332284 1.3224239620046898 0.09539666903445505 1.7886213384896292 -0.7635878141052398
Ni 8.837057345011848 3.4609527139032923 7.963644580814093 0.8808116063171154 0.841665532245273 0.5633035058267589
Ni 4.0162146980511455 8.735927786690198 9.23265200379429 0.20493826211072447 0.442923684484405 0.6080448145981915
Ni 0.914068481468358 1.0545817160264144 11.777121654367196 -0.873645170475663 -0.7837030967978762 -1.8895124549797522
Ni 5.410885998592353 3.763560713865306 1.9445925492277911 0.8835030371063493 -1.3119478112482887 -0.8747101214050677
Ni 6.080466356405593 4.8625490609411415 4.835160226514569 -0.3658353268408345 0.29445764642879607 -1.2556776759016504
Ni 7.702010997212118 -0.015604315646942495 5.438195847077452 -0.24695317308992953 -0.7020448603954361 -0.49039576192343937
Ni 2.3824456051398055 8.558025730138535 7.162603144712147 -0.09525474413995208 0.8216163269038818 0.3313259802100552
Ni 1.1662641635054143 1.5960303448281807 0.5747761038977406 -0.6451473758774436 0.6199881030029967 -0.09864165833431399
Ni 0.5023946729489535 5.671365101631162 1.9420787757183335 -3.165873113152051 0.28661063958055155 -0.014035137936827442
Ni 0.03116546455842847 4.487457683059369 10.422794719536597 -0.004283200756386172 -1.2119954045223513 -1.1753031913076404
Ni 3.893207870823658 5.1757834253549 0.5698844861734548 0.5233141099180149 0.005161489596281433 -0.9748507328824113
Ni 0.6266358851222613 7.180712967897928 6.293839529767178 -0.8201487412194197 0.38759817243922284 0.3730115328742995
Ni 0.8628497721874254 4.317481773890467 0.21601552863623194 1.1582652619887472 -0.5206077667304454 -0.7071739540918852
Ni 7.627947900462887 1.9319318375625114 0.9695662082065655 0.40622812883558423 -0.9586147306395232 1.2657335174757558
Ni 1.9990515189915024 4.656000823987587 8.743889753278976 -0.9583270241957753 0.42708363212835476 -0.49571640280540435
P 5.703381961163381 7.266853566163186 9.441747996580956 -0.8037193920188029 -0.6330827314034257 -1.1103645816527263
P 8.472766835406006 5.521934721657204 12.007226989144673 -0.9706035275702832 0.32732482947046204 1.4133654896658434
P 7.152424979556208 4.889560416042764 2.838156831354301 0.4281496114990239 -1.2157458727037191 1.0501310907829657
P 6.421456013276714 3.083831581013883 13.136515629187448 0.38912052262102015 1.0386940525906176 -0.2584886845333548
P 3.817473211126961 4.894483260767169 4.195830565844551 0.024354774695280634 -0.9436385689456651 -0.3576435350586615
P 7.686131149211198 5.116387834249086 8.748984346504026 -0.6612823337660934 -0.11757654756560396 0.08685546433266332
P 1.99436746897388 6.165109895547572 0.1058494275452899 0.6178461169593294 0.4314100274178506 0.042140123703159685
P 2.5756580761608356 6.308772464911594 7.257169522362046 -0.9376982922018303 -0.16828641521564566 0.5710646378294165
Ni 7.320508899894462 6.876323192046858 2.1724128023496116 2.722555278553021 -0.025398899689078835 0.2793408453920157
Ni 7.631098153710033 8.27502644936794 9.423063229216543 0.7063026072305255 2.0045562088211732 0.8181183410529522
Ni 2.514747057108144 5.103621501848115 2.4567447412722783 1.2936520982628947 0.7003286490352778 0.547263935865393
Ni 4.559481840389165 7.476313261657106 7.5073179990090475 1.218768718690443 -1.9191850423435206 -1.2723867611262152
Ni 2.242814992555658 2.9894801186000866 11.951373825669835 -1.019641921055173 1.235222493371092 -0.08121780643091174
Ni 0.20504383030083612 9.273041373122712 2.665409066704383 0.1842542513988117 -0.6909027277356875 -1.042424209057011
Ni 6.4723284702328145 2.932885773093047 10.665590156097112 0.18889663526682954 -1.4714125144072467 0.1886726921814815
Ni 1.6400695994056318 3.429101173783459 4.328761150021138 0.15692959544192972 -1.5670727215157334 0.5365000124806696
Ni 5.249561805338353 0.6740145918299232 11.063509389505946 0.17131594607058884 0.7233297379161414 0.1546168881483531
Ni 7.853011911603749 7.022033885242116 4.523500070283204 0.8586556390453662 -1.6214358696476465 0.4386404837280187
Ni 3.187174582579155 0.85448001771476 12.675148642186967 0.8912310018782263 -1.015067157200297 0.2361841074988836
Ni 6.390036140511446 7.6658519679584325 11.35854116817475 0.1498058399129549 -1.3839489841769392 0.5447897632932877
Ni 1.3196346561412546 5.575948247448651 4.76479018174982 0.08679581473932148 -0.08184309871973647 0.5492742814272025
Ni 3.025326877852598 0.5896686276302404 1.820318273172006 -0.24198297356884776 -0.3589015758354787 0.8646398816532593
Ni 5.317021310003917 5.988346706059017 2.56642039477314 -2.2863699412337137 0.3196914812949204 0.9998783652750006
Ni 4.496724754564823 8.92500727240156 5.500004183162931 -0.2701733199601347 1.1351980957566383 -0.047461793026389226
Ni 8.712029947188524 2.9065908021117663 12.492656216618034 -1.2883815938925747 0.5732981551456255 -0.14158448044442712
Ni 2.344311927349279 3.5318747418171763 6.773703922131367 -0.9191022743671976 0.35926461560185224 -1.18677133984824
Ni 6.073201486672379 3.596845270885141 6.852811097840752 0.5404623395625273 -0.8022371510463217 1.3690561262255065
Ni 3.177136020482564 1.6769909348386562 7.942701366588241 0.6225414655524698 -1.2245979237777105 -0.6447473122255477
Ni 1.2661538262341645 9.166796097428875 9.451090380263166 -1.375523222007089 -0.08584810611407151 -1.6378238240873664
Ni 7.511700800319654 0.43493057607749025 12.01966084583851 1.1933502786173384 0.5705463034321012 0.5263410696697968
Ni 7.824944349145211 5.328125263869222 6.577929918659524 0.6422600270273197 0.4368998468878282 -0.12141186215129413
Ni 5.037952957483407 1.3385361756241314 3.277061502417331 0.4417093524613296 -0.6226803051231793 0.07635096525691366
P 0.08865345333353569 3.8876972237441016 5.832660823208584 0.28409610068881397 -1.0549141139939056 -0.13974819856663676
P 3.8205959111387093 8.294681090618356 3.4453731961682075 0.43283339012793837 0.32982728417734164 -1.1781707426634225
P 3.2383317563010325 4.238587676534825 10.398934536123301 0.6520505307551803 0.31923125382905015 1.0496767768543664
P 8.756206967942964 -0.08422748528747236 0.5268187792467253 -0.20606337685410317 1.088911553985273 -0.7337938706722588
P 5.893278859524878 1.5706538150268257 5.685252850712823 0.4809143047955653 -1.2786620526119654 -0.4733820009742621
P 2.313746204881342 8.44862101678575 11.059516925696807 0.9345636032275905 -1.235118620803376 0.4389690707120311
P 5.149084340254451 8.596260436458852 12.89400307251035 -0.36025680431179247 0.8634384051459904 0.472293910116406
P 6.060490260742203 6.680667667487225 5.938720573784076 -0.5965504408053468 0.8626503620270563 -0.5016715919475747
