# total energy = -340891.92215380084 ev
CRYSTAL
PRIMVEC
9.03417870563388 0.00000000000000 0.00000000000000
0.00000000000000 9.03417870563388 0.00000000000000
0.00000000000000 0.00000000000000 13.22243372447697
PRIMCOORD
 96 1
Ni 6.699602539456938 1.6679443170966157 11.195739027782881 -1.6265616209099858 -0.4873852572318897 1.109241523791877
Ni 4.645826509088289 0.5258732309489023 5.906315805670282 0.3350124279227069 -1.0495137689139409 0.06929174441728712
Ni 2.9184824655993444 1.5524965446909 4.682050856299746 -0.8440823692168817 0.33532301718459023 0.6636426064681539
Ni 3.494772738841429 4.229396031817653 5.149437716345028 -0.08590775570741334 0.542801272108349 -0.36862934464620384
Ni 5.051551484339928 4.654725175323491 2.2333484047413226 -0.05725846740183687 0.48446268426845607 1.060177162165058
Ni 7.32605057405723 5.949051989046542 2.421728200142116 0.23191196248609094 0.6068183983902581 1.1464618415959158
Ni 5.152481331222834 4.56487123179526 11.781069803869194 0.04060080424049782 -0.7330539071824408 -1.3884371018552797
Ni 5.668667212116909 7.734765862531052 12.338553626855628 -0.16407571956840775 1.187891312385296 1.4857243030442282
Ni 1.8669040394294332 6.512387249718802 0.63145296972141 0.2486860966206362 -0.6507567516444211 -1.031502934158817
Ni 2.466710280397637 1.6796526129756209 0.439630248734591 1.4482605017708154 0.012580407768171882 1.0059927057028544
Ni 0.3748985499442762 0.19089220055816347 4.643163233142972 0.7780212159217503 -0.04634619136470728 0.717186601132881
Ni 8.810890152823848 2.3154600569359816 1.1680073104062287 -0.4385728637148769 -0.867882556960273 1.8975584652126805
Ni 6.931175647687293 0.7988879247164276 4.753108287169135 -1.848542954545926 0.03554421565319685 -1.4249683640120943
Ni 0.9414066142528833 7.3928763955209655 2.7256994113934376 -0.1915674972307733 0.563113758413456 -0.5070914774115654
Ni 7.340586567937877 3.9472766925355747 3.9303285728835577 1.9537972331007512 -0.9376365857259594 -0.7382159109993545
Ni 7.589333650293224 3.349783201370631 12.575076561715694 -0.3127759851220097 1.242846585575253 0.14525858686190468
Ni 7.8123513910873 9.037521565185518 6.655023383581203 0.5944069120997827 -1.2722741468077507 1.6347829803785137
Ni 6.93396720897326 0.7825062480826313 0.4715010251249881 0.08271701668425754 -0.33212302219005385 -2.0372668116803174
Ni 1.7859758646731612 6.232183156367547 9.341173869920999 0.4719853777370517 1.0799998533179398 1.06866720191394
Ni 0.1057351266499143 4.760831606726975 1.37248872289433 0.1695079463275726 -0.2130004702935687 0.05564947104350415
Ni 6.3977254508790375 2.0395833352869217 7.033951177323348 -0.7364040546015962 1.0041885626145803 -0.18459620811926272
Ni 3.1906280713548636 4.211408981589954 0.5732069079770348 0.8117126946369245 -0.39765221424111513 -1.2123759277902217
Ni 6.143115186405269 5.6897168489981444 4.697732384067321 -1.074087601598563 0.7240912986725142 0.3517731923208135
Ni 5.258000540996584 2.717589428977864 9.562424525318521 0.14976495937269046 0.08941962551541374 -0.7350429125880115
P 0.339663445324449 5.57096256710808 12.445669176044364 0.4412326699352272 -1.5730397377324457 -0.9080763555703393
P 4.084243879126314 6.020141942960039 12.86037773881304 -0.8902971772100473 0.9847620784588524 -0.09812718059174069
P 2.4294984974303357 8.49911160415074 1.3419450673871323 0.41087051270360203 1.1634987424735446 1.1919454278500117
P 6.256168901397454 7.80032689894613 5.432859784227225 0.13810140699183313 -0.2663313205062252 1.8659158986067348
P 4.827106343276653 1.0272403481621644 12.557609880193727 0.07297407836488078 0.3377334263982958 0.09975674577536367
P 3.8756446878869384 6.1859642970180175 8.302260459177614 0.22323191821358976 -0.5448915789784745 -0.2143184177740438
P 4.8110345389797775 0.8366336276578409 3.7091836173793875 0.6072470012872445 1.5778998940382245 -0.38908838383150407
P 0.24259570992940935 5.518970867429318 3.605929276260627 -0.42757214172899916 -0.49668493736626074 -0.2169818235388199
Ni 1.5750639236305257 1.1449105285819505 2.7571681668219394 -0.39844437112510733 -0.08536011073405944 -1.1698354833248499
Ni 1.9230333930530898 6.418115592699188 4.742516615804516 0.7534844071226507 0.11097138354426049 -0.01835973345411032
Ni 5.719367024210255 5.686076074893793 9.423430068978362 0.04909187243064449 0.17946197221649093 0.06568320113042236
Ni 8.70881296521823 2.2596830362901654 10.190120180027526 1.039848477910035 1.1070715127237516 -0.9283299636130529
Ni 2.2168158573195793 5.341792550470175 7.143975732123996 0.7288650659120738 0.02072077748711915 -0.6487003833360249
Ni 0.4644209391061791 9.183784921883891 9.144053506416087 -0.6709044302368897 -0.5103575497573468 -0.21692114550421354
Ni 1.7005396346363153 1.229371067295546 11.531813193822817 -0.19112758147987727 -1.241396483392288 -1.7822933393890723
Ni 4.052425500973647 7.064267171521787 1.5259613543700559 1.2550194734923612 -0.7497820185703991 0.0037152440680581172
Ni 5.247701577028942 7.919008907404843 7.674155556163579 0.7154781030822065 0.3911630069723457 1.039268951257481
Ni 5.398716911838703 2.8598687127729665 4.597480100603339 -0.2519740233432886 -0.43695126895105396 0.8035175604206419
Ni 0.6934518293887317 7.405542314365383 6.561024558764943 -1.1074435513511895 -0.11738474326977202 1.054328930914397
Ni 5.159130486907207 4.453281053787952 7.416569433153898 -1.1471737800612758 -0.2412466096234555 -0.24345801545247747
Ni 7.790877147796871 7.346404579161704 8.902704513177497 0.1272516087615228 0.9890434794430258 1.066899054269924
Ni 4.583328059326748 0.3816127517168662 10.535992816522992 -0.30040409382021815 -0.37493240404609623 -0.859814692350474
Ni 8.238132243539086 7.216321436907233 4.563088788294545 -0.7909276395707733 -0.36036170532077294 0.2198784283603245
Ni 6.93111240843486 6.258445514485039 7.079767112293091 0.5365776597961405 -0.6151711412303277 -1.497748066977982
Ni 2.451406381308875 5.248099080901376 2.5644908125093844 -0.31887155649678633 -0.15576977080587365 1.4754851418147235
Ni 2.6085197868889525 5.0151437432964165 11.465449922319733 -1.9109472278147608 0.7846060682281197 1.5070994262858948
Ni 0.962754379038446 3.2942591377345463 3.8782989296533366 -0.019883369187488335 0.7179332494909184 -0.005741273359151403
Ni 3.827998428268209 2.7525245988575806 2.7121987344169054 -0.8463701368097939 -0.7160419460054764 -0.4536858080969154
Ni 1.0176731526869587 3.511476935662633 8.109702356026789 -0.4974367279306207 -0.8136695612529794 0.5251848445781665
Ni 3.551055673506709 2.5564467795999195 7.06482548377898 0.0036211416923550535 0.868944165455568 -0.16037307390583994
Ni 4.070024081507831 6.836244495606593 5.859812369684803 0.1786099086288408 0.20594253500552276 0.08178679156050431
Ni 1.181435713951409 7.437559444454268 11.7168485361878 -0.3622566083506406 0.20355552283058492 -1.1932142672601063
P 0.015461997219843671 5.854464135764764 8.164046555896054 0.6333323855203866 -1.3290399908438852 -1.300208925544806
P 8.296646620397356 1.7100345566801691 7.99711299783104 1.0103517540024987 0.29079896663028626 0.23365028533343632
P 1.8904922805869042 3.238445980373054 10.325345576922684 -2.136902458496784 -0.713507609619397 0.25087050586646475
P 4.125213880523913 5.958845038994722 3.817898216236783 -0.47417261519635756 0.4815786778524415 -0.5482679516498751
P 6.89567132453568 3.9457137795825896 10.612550255518258 0.05328842701049532 -0.4782946077845311 -1.3995352686509703
P 6.1100139548461065 7.620239576375073 10.29734052569172 0.20984161294961282 0.6823772067631797 -0.8848461813978051
P 2.30407699149806 8.612264695111032 5.626397192372867 0.909261634127692 -1.0337097120021488 -0.5649371847754399
P 6.940688638088985 3.940772083713905 1.4018290257695194 1.5012925897961307 1.2277621804383048 0.14770756262302948
Ni 5.373430245044462 2.863897956570834 0.32648438511743294 -1.5610098031511053 0.22273852351693896 -0.5221547995025911
Ni 1.3902517254848394 0.9793411315337034 6.9453475641575055 -0.4178052921502224 1.1139363581643849 0.1201193685921157
Ni 6.71169027085054 0.5464395392579727 9.09797377342191 -0.29353693438673967 -0.3180524030296006 -0.3969837274191808
Ni 2.754999963881383 1.4824906922476813 9.205101970461131 -0.07396292464071132 -0.025709231840646045 -0.3636540029187995
Ni 6.468110738836854 2.1214510646507683 2.2633238103945166 0.15400419426501863 -0.8912911656922005 2.958400514655247
Ni 3.902123866298485 6.978758668053589 10.83023150682489 -0.019683337361540293 -0.9256002233867154 -2.1001927617805762
Ni 8.448222074300093 7.0141816835949315 0.46222563362886565 -0.05484265887149265 0.5822450799262682 0.0043330801577151174
Ni 7.508784911051549 4.147067559328939 8.400873039167799 0.11306528995881172 -0.7130527814701655 -0.35747384225001666
Ni 3.25076860041855 8.401967078234888 12.484450195889892 -0.06574516471660936 1.1123381604393294 1.3047705767735593
Ni -0.05174325975848941 4.867778216769925 10.237879366882742 0.8666620542896107 -0.7014097979145985 0.4873582606486961
Ni 8.561564883017686 2.435668841632003 5.7736552121702225 0.21494653827634594 0.4486986392949692 0.6439996354262457
Ni 3.6209711841607373 2.7871164699383764 11.56395770583446 0.5416579025325252 -1.1552984660509393 0.44541045546200064
Ni 0.8759828973573741 3.1972049536078853 12.605924669052461 1.4254021091154032 2.079683071862999 -1.3447165210388776
Ni 2.7161891312454216 7.973674724043623 7.815543166499378 0.22066441459672964 0.9578531698831504 0.2614397967418788
Ni 5.728437339844916 7.784038274355199 3.2702381594068557 -0.10843421894470359 0.02019447267000393 0.06016664218756734
Ni 3.208280856962561 8.318093761151026 3.4563440519737405 -0.08573574890592331 -0.16275211566097778 0.9525286723464433
Ni 3.498901358607405 4.27047444336228 9.510024480752621 1.106039214804495 0.7018869946613331 -2.2821798144117666
Ni 7.288847825268848 5.9438934728838015 11.546212771601787 0.27419143998059226 0.6645442923468168 -0.38346332433524283
Ni 0.6608248922228156 0.06686105476151974 0.41818762507037893 -1.1216905481885069 -0.5104927897836306 -0.07618075822763655
Ni 4.577356467061298 0.5365462099237917 1.549629999719906 -0.25241522464576527 -0.6012794708498999 -0.433688281929066
Ni 6.154642798705895 5.740362456017977 0.36567826693955957 0.037116188126007046 0.2795748157796927 0.40420852730239415
Ni 7.949029483952631 8.524443441839574 11.198105982659657 0.3679742275607082 -0.5882380642849095 0.13453837223092313
Ni 0.2210726820728183 4.963703128531714 5.813692886303382 -1.1223942591237508 -0.43662088219482864 0.2817517688263535
Ni 8.026063927594821 8.820285698899593 2.508652359446919 0.41788371079664166 0.42112612899333923 0.20545891050088483
P 8.384747933215301 1.7641854251205682 3.545648717423696 0.35257949027219276 0.6135726863949562 -1.020891477191558
P 1.7570213212378125 3.2653136284781166 1.835737025576825 0.18485666086950098 -1.048750408385355 -0.6722054084365003
P 4.648717446342364 1.0414962824963236 8.072956736691706 0.6656336687562536 -0.5832228704585052 1.2615212791666208
P 8.640677187811242 1.268001216353128 12.178403833740878 -0.24700845180789718 0.9185052642131472 0.8058639491656315
P 6.618204587396878 7.857178986883306 1.194451255519991 -1.232975092097812 -1.086082054956278 0.543812744091999
P 1.7627941615670442 3.127443023995479 5.961215607543064 -0.6252082137513556 0.4426172089875796 0.5261248398939325
P 6.863410271615982 4.166870479519354 6.17336974818706 0.40811120479091006 -0.6618106954657377 -1.0272395308967728
P 2.2507482333392885 8.51895969523575 10.062179945012636 1.1393463135970572 -0.5632078607891591 0.8661051533448761
