# total energy = -340868.75090858876 ev
CRYSTAL
PRIMVEC
9.29005486164762 0.00000000000000 0.00000000000000

0.00000000000000 9.29005486164762 0.00000000000000

0.00000000000000 0.00000000000000 13.59693434315735

PRIMCOORD
 96 1
Ni 4.195017064399891 9.407109308644099 9.573588016447609 -1.346906586711661 -0.30021537484817973 1.4619778513569077
Ni 7.865006691926366 1.7496795971565486 9.592732032003923 0.3712495558778703 0.33880120554117776 0.05750092242994614
Ni 5.896639209004972 1.7499768789044023 2.8774643579124914 1.0635957009283037 -0.8596413999974035 -0.8707601356183842
Ni 1.7799744652737601 2.338325328070647 3.9191934847084977 -0.37352318240339544 0.8453915749466085 -1.2356271850086782
Ni 0.4510516609364203 7.197144665263889 11.44656521852646 2.0839284774029143 2.0076235348925877 -0.3796580916565397
Ni 8.802586874383692 2.8185096712912636 13.990972757247494 -1.3863439667716768 0.40547196739585 -2.177363137614992
Ni 3.593922660294421 1.017409621810653 1.9437906434230545 -1.2364111143625542 0.8825941521388349 0.6486145084904378
Ni 3.1865351850794683 5.964688859099598 8.682158967333638 -2.8847162975972194 0.8668322613188878 -0.6632322584036127
Ni 6.2942535467592355 1.1463648699967963 5.303864977817557 -1.7089245966889344 1.2707078307618953 0.028190860611919187
Ni 6.2055892654618825 2.8746030210894 11.981428036226523 -0.35190663257488425 -1.1773803855516434 0.164002186017995
Ni 9.23057040069213 5.885807005317555 9.722718476252933 0.5877402987128846 -1.1995399523678179 -0.19458777211433587
Ni 0.32315269196061946 3.7765744241866304 2.4867701818449834 0.8573258644903493 0.7757781855238446 0.3483094021419291
Ni 8.873646502175337 8.268167192289024 2.1226585680683647 -1.371992068925379 -0.9336750299750501 0.30070439866945636
Ni 8.711191317027934 9.098001321258641 7.344397605030425 0.40461861825661927 0.8926916455841529 -1.5581193689771877
Ni 8.742378030388705 1.469352198985172 2.390191703016489 -1.4114816423795693 -0.08507034740778252 0.8714674460980539
Ni 4.656370466904903 7.134511117012972 10.060698095387753 0.3267275622060954 -1.1429720832751025 1.1158232907744523
Ni 8.983101925713203 4.031270561660249 7.877709912614337 0.5270365530749246 -0.05558365080257524 1.279246721470842
Ni 3.3518052567768595 7.948366352035454 2.7808719440020666 -0.022263953604522945 -0.015516607578360375 -1.0449598309946713
Ni 7.096189641703711 0.13035897543928981 0.15774512745484573 2.2390960958484145 1.08653816865709 -0.6976842694338952
Ni 2.8882315312175657 1.8838001157116493 8.32028997274239 -1.2000490307937526 0.4685059038288834 -0.23354101344908168
Ni 1.9644656599808146 8.155404509306285 0.3595269718214382 -0.8887313753848242 -0.2924275033726447 0.008975721136049058
Ni 7.659371332903221 2.348953150556415 6.741359721498361 0.6145494484859287 0.026132692531309832 0.43166842328555977
Ni 8.471080565308384 5.5864721553927845 3.582193966336132 -0.048504118247974536 0.9420342005730228 -0.3818872380973745
Ni 1.5466082932086407 0.6056270217547765 5.644535925775914 -0.001408450311752413 -0.6871841412335198 1.957334299719732
P 7.073336107337461 9.321083402858948 3.6917311423546595 0.7189097544715748 -1.0215329674302986 -0.6562992787292052
P 2.433613418312364 8.010572557773832 10.370503765875204 0.18156796281590018 -0.07758226656085347 -0.5322330096741995
P 8.429108098533296 3.036259261539445 11.652980013132261 0.11625242943754173 0.2236785188327051 -0.6449535146990828
P 5.054607238318735 0.9359265527348902 11.40695707065227 0.27204945393692503 0.8662887301105919 -0.7145111111832468
P 0.38610953411232724 1.9440089597066348 7.889036347207562 1.0445844499331236 -0.7616641147199656 0.27302981557232336
P 3.082811725242404 0.7048754622811813 4.073138050818127 1.5984242392438213 -0.49136043982955374 0.40419901422069743
P 1.2784601566446439 6.124710049936448 13.245806328077524 0.3494422301947917 0.3745937897597549 0.012253106335740189
P 4.625601806002049 5.957256815403257 12.185463647844031 1.2171224413362716 1.5845436246069873 -1.2275243533958857
Ni 9.119740049070439 8.93014861437677 9.488348049283346 0.5527072183681514 -1.2430077937434658 1.8798857305232657
Ni 6.323387158048894 4.856106641244077 -0.19239703118903742 -0.07282366882994555 -0.2737957472040704 0.2849725897564963
Ni 6.9414823621097455 8.111871313354966 11.429949955837827 0.18049015637068913 1.1853163525692683 -0.23382743434124892
Ni 1.6783133975624307 4.941212831621806 4.311165972291776 -0.5972911756261133 0.5400854158390828 -0.31191903643835317
Ni 3.4269060583283895 2.603528517319969 10.62378781504652 -0.6051708354845062 -1.0854667899697823 0.47899600472692994
Ni 8.939122807140103 5.049144686201924 0.6239934597393602 -0.4007701910448066 2.0690829277496494 -0.08813458815540305
Ni 2.3525762718583816 8.674495601277249 7.821853459209022 -0.4127757001461149 -0.8501200907705295 0.568694337825027
Ni 2.2657142611573917 5.764841204104978 10.846505726505706 1.2045407480165191 0.2847388764791354 0.39204206714318934
Ni 3.258310147076885 2.229455177973866 5.975090933258089 0.4242423060248177 -1.3648125204578043 -0.7200916905948179
Ni 0.9966742198978605 4.238633870842794 12.082847562517722 -0.6178039508674844 -0.7713044660232071 0.34687138414382196
Ni 6.109669451505978 8.169636872984778 1.7749030244564692 -0.991383440430112 1.2022408962387487 0.9607315198722098
Ni 5.862238136745532 3.79377031528904 4.364180597988703 1.6859170800501677 -0.09894993360335216 0.11318433203517927
Ni 5.0479369791012685 0.9399398563309146 0.08365972887332877 -1.117635918503159 0.43164296936426305 -1.7208012935218624
Ni 4.87948041866907 4.617240756843665 10.206279754328074 0.31992159502785544 1.290214019115623 1.789986594268272
Ni 8.026031208662221 5.838371986425655 11.981889751941157 -0.6949900104311837 -1.0242976746596295 -0.03303970406378826
Ni 7.0366125214229145 3.8937870433325545 2.055652191107613 0.3759171365568687 0.5593764028582108 0.6000545973038633
Ni 1.1010386935037344 1.6052006676996722 10.12541911891188 -0.8618016408735159 0.078631019540342 -0.3709284250930257
Ni 1.8178314378519989 6.314868177961963 2.141476502707501 -1.2598492907808367 -0.9637075717813984 -0.08481272287102166
Ni 0.0042455549615350125 5.513628837114019 6.237648314951514 0.6147006293518124 1.2800409352373632 -1.4053197365432313
Ni 1.1412925001740433 0.06710670955065243 3.3528819741073668 0.4793883550693422 -1.222938019576784 -0.11064613899435785
Ni 2.1265120827249175 0.3642305264757603 11.848790210388843 -0.22226132677020433 0.4559586632914922 0.464922043132367
Ni 7.066916679594747 5.790714006222866 5.539472840062584 1.7671310298263372 -0.1248288582526431 0.7784325924275562
Ni 0.5047500346534108 3.2800674549979245 5.586408983021366 -1.266660143055083 -1.3340693257376768 0.22382172927878868
Ni 5.221651710448628 5.626521580861445 7.898418373368731 2.347241837018422 0.14204702190314247 0.5949753830087431
P 2.584530355621196 2.6538248730349587 13.066490622799508 -0.864785406092188 -1.52897205798927 -0.19202746758632736
P 7.475409671309531 6.475846244424718 1.4981643743849637 -0.11592718488763906 -0.6659026061469242 0.31647425990920336
P 6.716644460186178 2.252745344907276 0.7481866259270727 0.39723158176392875 -0.36223372553250516 -0.1902706327962207
P 6.966147457126978 4.200349555752016 7.663572295602577 -1.1183576271605318 1.266872001955573 0.2632459967126821
P 0.6245239218581864 6.7992609159256325 7.829971108936351 1.7719618755560773 1.1805677821406892 0.11720887981354007
P 8.86567563531101 9.309377934037212 11.684267059082933 0.6648582240428098 0.5109321913138942 0.14960195143226493
P 3.4464244630859056 4.10139189393523 5.069195411089192 1.5515931378228955 0.9650548298379121 0.846430043513452
P 3.438750877969433 4.755225938120864 1.877152152625272 -0.05815115441943534 -0.8732201671231025 1.0609559493126117
Ni 6.065262990420338 7.3707107557373215 3.8559951011366587 0.8395150615611734 0.004840358811436824 2.019113023589426
Ni 5.412506592570675 2.119089329083197 9.154530374618476 0.5010858946474338 0.7332431403751114 0.025580419572265624
Ni 4.1442097556807775 8.338446455492553 12.04624474731324 0.28722024814009245 -0.28560456691354036 1.1510222072730887
Ni 8.666292483047412 1.0663960798241632 4.89435193810545 -0.22928095262114703 0.7167901370254107 -0.5510349728720509
Ni 2.4433586856091916 6.52403375774087 6.269586593731079 -1.0549889330958993 -0.09559181576439665 -0.7263317579672588
Ni 7.0756864911564294 4.227077042894984 10.177291067890494 2.0128757844304626 -0.5826680263962998 -1.0242480523686168
Ni 4.968395531441175 5.8324077713593425 5.566897081302084 -3.146722765475845 -0.04176834218603774 -0.9262175452557404
Ni 4.022928092611106 8.192481117296408 4.840603398093509 0.42843037596423633 0.20625415270867056 2.81528519938859
Ni 4.604234680375068 0.5679140450231542 7.351821287677608 -0.23300288155742452 -1.1421063928406976 -1.4445516854606604
Ni 5.323015496412104 5.5704653912817905 2.642169570508172 0.018692948423812968 -0.24773273156843142 -0.6080926371169915
Ni 2.063924984747103 4.078194627548025 7.022313269351154 1.2329326688956508 0.537330478801765 0.9583290810783044
Ni 0.33758479181345236 0.6500502049387329 0.289005238192317 0.53344168527032 -0.5985366179974402 -0.7650448582667405
Ni 8.751686665118374 7.870144092131461 13.392735044937808 -0.25952226800419176 -2.1861352273806673 0.5943642317873055
Ni 5.259973185757888 3.4712753591955474 6.675292569059734 -0.9137034719491296 -0.6886977496645688 0.03222594991324128
Ni 4.765249907056304 3.195026295002538 0.7448886565368211 -0.9353958693208988 0.4911298118759864 1.5672118181967591
Ni 1.2840899297446227 3.866883045151799 9.554076114728327 1.3090146967618939 0.11085285568852522 0.14103323592664743
Ni 4.051717971879809 3.026318903095589 3.217210945436117 -1.4675139506837886 1.257618601678105 -0.2780763768572953
Ni 6.460173922280057 8.30246607394764 6.216667655596742 -0.4801314038829537 -1.641388144399857 0.5925991694670826
Ni 6.164852375951312 7.183943497648262 13.354473025978116 -0.6355250222963312 -0.455242611061074 -0.43004528585984003
Ni 8.668085463589154 7.976933269993267 5.170098410343493 0.33320931327569714 -0.9572661870314287 -1.111829082013395
Ni 3.6763533149414673 6.32439977400252 0.4951729173452129 -0.0269202214296117 0.611212927913528 -0.721259485650674
Ni 7.839551942266397 6.737156900788079 8.105281877612697 -1.0904202773203155 -0.5535718803612918 -1.978342012319651
Ni 6.402510553251068 8.26766552933952 9.055993552275996 -0.17547547676491715 1.4046746467600648 -0.7971301688370593
Ni 3.965729226313139 4.029579771719332 12.350530267345235 -0.19913193984159253 0.5946347118398727 0.49623730830588086
P 6.961372369052079 6.404805196742314 10.09547913088117 -0.21721836502965816 -0.3580515691303575 0.12355667640843883
P 1.2968544647930889 7.117575347439934 4.252440750019673 -0.27352629559276764 0.360095853253896 -0.37559626288234027
P 4.222487755912493 7.433381464206719 7.107701877389344 0.44240252187361223 1.1240014557098708 -0.40304998821791876
P 6.69514727379451 0.6525938218938058 7.649580544338752 0.04477756132600676 0.8068656509572685 0.7301634730085232
P 3.6475355655089032 3.9120605807709334 8.813695921698798 -1.6519260678167036 -1.6560292913517995 -2.0633092584906656
P 3.9983466080854573 8.53607378743289 0.8024424029212888 0.9470974740285432 -0.757006047122664 -0.406495523564358
P 8.215696963792855 3.37424073868519 4.057325448848698 -1.1102553097683718 -0.018431981452942447 0.4766503873128887
P 1.3417440087189907 2.2799001745627834 1.4058955518948855 1.7695031296029398 -1.1057517654710636 -0.03274222742802748
