# total energy = -340888.8692525895 ev
CRYSTAL
PRIMVEC
9.12093889831386 0.00000000000000 0.00000000000000

0.00000000000000 9.12093889831386 0.00000000000000

0.00000000000000 0.00000000000000 13.34941603631544

PRIMCOORD
 96 1
Ni 6.543042484520819 2.0684648132047148 11.066946194542865 0.5704640281309401 0.1084424464748197 0.5434404483542448
Ni 4.67997209913029 0.5063808579689126 5.937273489353857 0.20932430699356208 -0.6939111755447082 0.8881968430375928
Ni 2.8890757049158213 1.5855110873393918 4.602411281315969 -0.23680760001549545 0.35320092590627555 0.519881172977066
Ni 3.563532668331065 4.477450767135699 4.386605301507914 -0.803439655994855 -0.10146318694350913 0.05658663814579287
Ni 3.816629607689646 2.6776158525935996 2.5907480285116105 0.4251740738104677 0.4894241420387894 -0.1639355944461177
Ni 5.2749856828989445 4.983936515904375 2.4943916914736683 -0.8428618665462194 -1.0272847823124114 -0.28066547774071016
Ni 5.620523340135619 4.389451946604091 11.776320849152258 -0.17896883463015628 -1.3026861834407049 -1.0549020298090477
Ni 5.559622829699306 8.097223146017956 12.442683891201442 1.3838433118370104 -0.8259087836316484 0.4323644209113199
Ni 1.7173086574763876 6.764425918594531 0.2299005670144694 0.5110157521666361 0.05937397108294291 -0.32658100932590206
Ni 2.9537614050827123 2.0607941034133503 -0.0613930411482434 -0.22144577284744443 -1.215645599680429 0.5354813414081682
Ni 8.363007311678306 8.749698646178517 6.842564091854506 -1.4682253749285166 0.9212933684812455 -0.714307479812873
Ni 8.868827231891963 2.223219787081144 1.1850836185397808 -0.7696769577221132 0.39380841501499275 -0.3739954940541236
Ni 7.042550714870476 0.9324153633193621 4.86356657037808 -0.14761757401238448 -0.8814700658367206 0.7444001854331954
Ni 0.9050379524873065 7.891591573786913 2.1583069755304187 -0.4138766465197775 -0.38928867276776824 0.8417295527139891
Ni 7.790960252588196 4.056200194348354 3.740759811986286 0.016150641617933476 -0.19013462143898865 0.09004800312803202
Ni 7.757431680420472 3.7469182700732406 12.813530330280061 -0.009946055469118356 -0.3752933869299408 -0.851231064446521
Ni 8.336246476330073 7.252441765665808 8.796651416528084 0.16390834075260804 -0.2811218485518384 1.2477784756592318
Ni 6.8082064263217 0.7707640473819928 0.35821393841151117 -0.09314001178979443 0.4139612358137838 -0.9366863059975481
Ni 2.1698714142277677 6.574090161250668 9.040798890432102 0.378023127156278 -0.24210972895469918 -0.5893243553705528
Ni -0.15723313303256922 4.774537995820974 1.2953594207532293 1.0264792556919804 0.53643290668816 0.4530402040931165
Ni 6.318439358941337 2.2631603794430752 6.885842947930634 1.6272992704069589 0.24709098421937448 -0.9394821235751305
Ni 3.500844453829227 4.544352855506277 0.4994753949688629 0.3046021910619658 0.445525126662994 -0.2082866097576671
Ni 6.104991141893172 6.007023134914523 4.75259210422882 -0.7763991069372951 0.375409857903147 -0.6529522166338432
Ni 5.265481664346505 3.434553468379006 8.687880569267756 1.3272872698188367 0.6549975291986462 2.0131262098783718
P 0.19788151026942283 5.628403831526509 12.420883934635045 0.7544999928713586 -0.4608201051488515 0.37475294104543844
P 4.426409991877109 5.959448316517668 12.400205853579157 -0.6743630782094515 1.7166379061727919 0.6420509963403072
P 2.676384525813773 8.837232298815524 1.1244777144367155 0.5054467427192908 -0.3509825780987181 0.4499309690401735
P 6.507233677575639 7.986276042686024 5.7595118586668015 -1.0968063833523174 0.05289761932997987 1.0442383794476144
P 4.857821290832801 1.2931485051130074 12.371998437288108 0.7033859478043628 -0.7195029079708835 0.7048116245072958
P 4.534538725024104 6.05191639721309 8.237658245491957 -1.4757993306210324 -0.1802289322895025 -0.33801110553971464
P 5.006784468374491 1.115189862141179 3.8861083613587506 -0.4856970708961893 1.3722743760524883 -0.5231608721696022
P 0.3778020672437749 5.840046102630927 3.572971016121914 -1.0749985434486067 0.6795860171712877 -0.0069278374680848435
Ni 0.7341188503204421 9.075288809582 4.567929571011269 0.6379251470973917 -0.4376025293818076 0.6302465475062113
Ni 2.179895326309467 6.42770820947706 5.01270578204459 -0.43533070262849544 0.9931904117318636 -2.3185665805709164
Ni 6.328271731301729 5.823400388755492 9.40673279170617 0.17549501714894292 -0.5152680996850869 -0.966056274519233
Ni 8.899646885144067 2.5231345068904654 10.148613561209075 -1.7820951073353373 0.3961674021654725 -0.642404523024984
Ni 2.733144129894224 5.127974386326758 6.8523353539228635 -1.140779703609474 0.21704815800038108 1.4949944154922445
Ni 0.5869835089763621 0.059377313604971706 8.805942917199262 0.9226930770422496 -0.5430563255419486 0.841161596025661
Ni 1.2084970692347061 1.0154067882796751 11.098251081755613 1.3654465544973775 -0.9483760836306507 1.0063338910923572
Ni 4.320296986273385 6.982261307354522 1.184029237978685 -0.3582377169992346 0.5295603479380429 -0.08261931476412868
Ni 5.731744071640844 7.9878174813955845 8.227085252875845 -0.6187452317348312 -0.6181309951895999 -1.0661804309363445
Ni 5.5771715165466125 3.413876299417029 4.489568846837015 0.4329861136557188 -1.4448787297827759 0.3273523402742879
Ni 1.0560679348312825 7.354587162756757 6.833900111794081 -0.21606316837929238 -0.2890123070435087 0.6306808068301525
Ni 5.005361601873357 4.854711050596349 6.4985222686318425 1.3661497512119891 -0.5764148463977363 0.2947229842750408
Ni 0.6403966404974181 7.482280310294331 11.16593209832617 2.316343604777669 -1.0050719936607981 -0.8406365767601264
Ni 4.9419437122427325 0.34990658707028105 10.28122654330249 -1.3994190547880803 0.5426536907868912 -0.6495352205324944
Ni 8.269198452933738 7.262036993609345 4.771161424162516 0.8871779148547753 -0.09764201342520604 -0.3204553560441384
Ni 7.252615063508895 6.020139045354455 7.026665687316802 -0.11714948733051436 2.4115032181006533 -0.3315740916651193
Ni 2.1510549168441955 5.654973127153434 2.4120925457917908 0.5929015311988499 -0.24587228132092495 -0.4642430147874715
Ni 2.450933152897077 5.7811430778596655 11.411254349187534 0.29752831493431986 -0.11998104324203854 1.0174978781289765
Ni 0.9610642330633278 3.759258900688836 3.5973339565781717 1.4522058595718086 -1.4272183363885353 0.029544803536652342
Ni 1.5723404512648023 1.4485784284835639 2.370348743767847 0.7585811049192677 -1.723374453565677 0.9498449548666932
Ni 1.1787901705540005 3.372996250326786 8.174461994681701 -0.19540564002994087 0.8643902275362985 -0.23153401032138188
Ni 3.826261319389623 2.9228687843177292 7.07676609375317 -1.6251873662702785 -1.32677767717227 -1.0454766227300898
Ni 4.177034395675338 7.129838102151518 6.207064483565153 0.8796430399303108 0.2426584023693176 -0.008267896435747052
Ni 0.8931159729768519 9.32324153928264 13.419634063912355 -0.6124033486772035 0.1045539100536909 -0.3191896019578374
P 0.42139650781310256 5.567019911317375 8.022905734151088 -0.03063032329134725 0.27494271632432005 -0.40140448219469577
P 8.597871493756342 1.5912025533439238 7.898208815111092 0.10859414156133555 1.9740243587809034 -1.058977485430002
P 1.8049791242000415 3.135131279281616 10.505844262384546 0.2620558330593229 0.902021150515195 0.41510820493403344
P 4.008908125063902 6.412686022763175 3.4431745800256146 -0.10247157360336547 1.0566994880291027 0.8321511649969346
P 7.204684528486756 4.01794697572174 10.17153448119207 -0.44984663685648335 -0.06206874430628665 0.5969841859086557
P 6.530710974844332 8.003122417221874 10.432314899656767 -0.5037408157717775 -2.1449047599759705 -1.1122628271167039
P 2.5323557763305 8.670747797243857 5.86965814354489 0.08662149394498629 0.3265298443729925 -1.3578831403278226
P 6.882195484380614 3.948910587599462 1.5523373197030415 1.1192279455806273 -0.12174044913530645 -0.22426241636063313
Ni 5.234917397389475 2.80444251091574 0.5770088499658556 0.7506201982009781 0.012235879944559573 -0.08545215622723348
Ni 1.6274126816099357 1.4271442215754713 6.8242620154367275 -0.08988885184234842 -0.4616878524657855 -0.3584531754441504
Ni 7.13868541308805 0.4701141798804198 9.072824331834525 0.3464178415461711 1.6588197096127433 -0.2921788776969484
Ni 2.600078749220963 1.681490729592098 9.155750998127159 1.1936806653735637 -0.7640927787661163 -0.3925125790217046
Ni 6.77925656558711 1.9991091922135928 2.733373065465881 -1.2968047849592634 1.0981724104619086 -0.9712661008549468
Ni 4.445062312356704 6.970568263415724 10.346398389523934 -0.9540510225282409 0.42212885922624077 0.3053807210992031
Ni 8.359878829563634 7.415560640705949 -0.23015960168518845 -0.22546389286790203 1.112619439125174 2.280279254954944
Ni 7.800628448044612 4.006792067190423 8.018286890585872 0.8005476791590406 -1.386354251184322 0.6277422930271189
Ni 3.363245966418381 8.670702192548308 12.295052370769787 -1.7504414849857983 0.1507427499049275 -0.2097192284391356
Ni 0.5375142715263951 5.072655890625659 10.118497132362338 -0.8851945658761594 -0.9492695419791974 0.6501851954116673
Ni 8.750428321307302 2.450203477768291 5.738019277748405 -0.031153799894985058 0.3342236134728244 -0.00851086568448857
Ni 3.8655543250747564 2.6898743947572066 11.067640298009122 0.5481064863713464 -0.2499485082728276 0.229052895770741
Ni 1.2184753766208563 3.700410601552234 12.710580466359627 -0.08694082495761801 -0.0553890182932659 -0.5525071865422033
Ni 3.181392682446657 8.771789560702517 7.917005246428624 0.9153055263289269 0.003813974429451496 0.252698560214139
Ni 5.982132092083807 8.268386689352964 3.485825915490986 -0.9228252317447396 -1.3594581981244265 0.46012642151593663
Ni 2.953268874370782 8.470369885940075 3.4598613381270424 0.8513043408866178 -0.378223158982226 -0.13462758951061976
Ni 3.368900948666474 4.460841537016704 9.679528223260244 -0.1422804780701872 0.8010377314215817 -1.3801512076974036
Ni 7.48761605967358 6.105839389230386 11.392925822046337 0.1715152065655885 -0.5003641859900608 -1.0698445100514928
Ni 7.896215889915595 9.12212483191096 2.4095031111785112 2.1947993308135687 -0.7526328577556328 0.06550785189482265
Ni 4.7496925576858064 0.4177207693518424 1.8249722227287817 -0.5198606041517756 -0.07277533209051337 -1.2724466678298731
Ni 6.485224851503627 5.840803140577042 0.16106483955260742 -0.6331462376515096 0.27519365599286155 1.4905029553797944
Ni 8.161626097072443 8.91896503417868 11.274997551919745 -0.7364323367363704 2.0536336830741146 0.5064034502056052
Ni 0.26952831116493337 4.841959977720812 5.949394305336906 0.105751787016534 0.5511571002722121 -0.541899072009054
Ni 7.359612800206272 6.1326184664568375 2.6445861957951844 0.838164718180866 1.4278400291329345 -0.6542390537660667
P 8.786802626477291 1.4892760587916107 3.6064913794444378 0.427372109903051 2.4836182908993485 0.14932915738685248
P 1.9762156350479276 3.3333566489554793 1.5029036539156027 -0.8440394317940884 1.2244176894461043 0.005299557836042487
P 4.979403409166792 1.2840275660031806 8.161152720332643 -0.9759521934767063 -0.8857468388352036 0.8440481735448367
P 8.497313140070503 1.6256705822399589 12.37450851973113 0.044254598943001204 0.5980987591290732 0.19724243612836354
P 6.70501212123312 7.855892218111052 1.30465092142441 -1.7743509446135441 -1.3728790995160225 -1.171387144082686
P 2.0331667788496857 3.442470443526336 5.653397940969167 -0.22859446807708375 -1.1090628321221676 0.2716560751532483
P 7.146237550670986 4.322850849224136 5.853091781839712 -0.48477404486128767 -1.7566630404154782 -0.7872044250829152
P 2.4231142886121053 8.473142651429463 9.92023163055639 0.18344975321964535 1.0757382498281087 2.3004428743870124
