# total energy = -381162.6034239038 ev
CRYSTAL
PRIMVEC
9.32534503437820 0.00000000000000 0.00000000000000

0.00000000000000 9.32534503437820 0.00000000000000

0.00000000000000 0.00000000000000 13.64858507813932

PRIMCOORD
 96 1
Ni 3.7616483081920733 0.8180145936463094 4.3019112335557566 -0.26296986023316005 1.010280534444931 0.48455858641637195
Ni 8.908091686206587 2.0187972948491644 12.593617203822623 -0.7432308477154426 -1.5932383241675077 -0.7673673357523301
Ni 2.284299190045832 5.710412262697485 4.476804347378784 0.23424215328116435 1.4250244140610102 -2.615849869373966
Ni 5.287451918538866 1.199752250589275 6.54815462352052 -0.6577277836456157 0.9823884360203532 0.22999134842461036
Ni 4.324833863901826 5.4864454537712675 9.73110000205717 0.28535054192120535 -2.1560605194824736 -0.5336363177796294
Ni 9.22045343962261 6.634982910063886 0.9635216805597187 0.15533371170971957 -0.02518318413384695 -0.3946193409520623
Ni 2.642196602702672 4.9310931877937065 6.355040718259723 -0.08064085088151918 1.3333789845388713 2.5133011626757615
Ni 5.371948868852413 7.609705262406146 13.175293053438311 -1.7737187103461838 -1.4262739701973952 0.5910120274856209
Ni 1.701623663454796 6.93576258509017 2.4893243583720195 0.5436775040657154 0.4607244601112517 -0.3605673935736758
Ni 8.883948368210586 7.274906729114348 7.823955994460972 -0.015174650857909353 -1.0163277690802754 -0.6060954041813046
Ni 3.119337200842277 1.0998032037444898 8.121972569787674 -0.3016449082058547 -0.9140130327697485 -0.0838560153847072
Ni 0.0781995448895611 2.771744294321235 1.9011795169858294 -1.237881528260494 -0.012494018701952677 0.5612355675541366
Ni 2.199876842491639 4.833494127868578 11.539578130269474 0.8053006204629938 0.2881409601821489 -0.3126769976503002
Ni 8.822540971917162 9.277132886041962 10.763874491590897 1.6793425121564431 -0.31535917246815365 -0.558564962700509
Ni 0.27654310358108863 7.880242843859221 12.461035044967328 -1.5349354746615567 2.1435528739337664 1.5996449990247998
Ni 5.654814556288771 9.279930489517744 2.33168313264965 -0.023072822659063488 -0.4556293049765314 0.5065415184453663
Ni 5.445469888195975 3.196700262292579 0.21543784846304978 0.6190429654809081 -0.6718963618365138 0.4894516528426151
Ni 7.475793309365362 4.593263917403145 11.903025988222266 -0.11901919354940145 1.0871863437640503 -0.5605269715228862
Ni 3.582126093151118 7.664072023285517 6.086845663450368 -0.22218136546188832 -0.6514085262958071 3.381050022271648
Ni 7.1487068363218045 1.332498535515149 10.903280937858117 -2.0516621611700407 1.1879735876864572 0.5562095750944549
Ni 7.053420461936657 8.544468511769313 12.231984990525612 1.5756427225729315 1.1784070270439446 -1.750914825077791
Ni 0.1676902174073799 2.935226916101038 5.98165577276095 0.9194920536064486 1.079720117293992 0.06724694607311645
Ni 4.56093294656802 2.1441858826337308 2.4709804723813145 -0.9146290690871925 0.6046162485326168 -1.0312000582064174
Ni 4.61723005384568 1.9652418389777704 11.528331764296828 0.027620332820429853 1.8576063502997748 0.08718867930236597
P 6.054703997117104 5.668914477806713 0.40148780494749753 -0.2512821394825866 -1.4575146733792317 -1.2587192909414515
Ni 4.255453297702422 9.09795570876302 10.986346447726556 -0.25494853259058026 -0.4933414748153245 0.3244369663997058
P 0.6325138999776068 4.350254754151768 4.018512136390017 -0.9246774544621301 -0.5377562534852738 0.6582538313524148
Ni 8.380929937919994 6.833724660983466 10.345353944148345 0.21468582841579156 -0.2309429137046023 0.14150631890832405
P 1.9838832034714002 5.792745732989761 0.3070453742775439 0.1677526541993627 0.232168044360955 0.24120315798002975
P 0.4843817284694215 5.0894095684882315 10.295359837501621 -1.036329409013183 0.19607078441776557 -0.14276641656767025
P 6.179029495580873 8.505096905520135 4.352601943467949 0.10981387290104959 0.21357639740169668 -0.01780103273716289
Ni 2.1951768686523243 1.281955166052681 5.99310729632182 0.5499576806474722 1.0474496872960606 0.22442722407327154
Ni 0.11915925737849098 5.657099265793993 5.706869564162653 0.8011434037615106 0.5127525323520846 0.335906400491886
Ni 5.092169870584336 9.059050369759806 8.323371111474756 1.2599480211422303 -0.22317046884803501 1.2873343835749829
Ni 2.046726702882392 2.4738648015648463 11.358570387782876 -0.35104145636111156 -0.7394592964881523 1.3573249538315075
Ni 7.982933542110273 0.3716746772405766 3.2825391297400097 -0.33353430071528367 1.6994678221514086 0.6282629414172792
Ni 8.335916497994656 7.513644884392697 2.926434048376654 1.3201282901765523 -0.9257817432699024 0.5741695020069854
Ni 8.197798814395279 0.2062533162520562 8.235365033868085 -1.851828053055101 -1.6586063080503566 -0.13627335264415885
Ni 7.406524647304991 8.264726814880913 0.7286190396466671 -0.77991200518656 -1.111889502937685 1.3562872565956128
Ni 9.246359247808355 2.989407170082024 10.268840421620189 -0.5466646117184972 0.14515214319102743 0.4940909513868394
Ni 6.385763067096272 4.22937963330813 8.565947578721879 -0.978816916619011 1.45569973165768 -1.9930379237689289
Ni 3.379943289956325 4.166741291485363 1.089244115692395 1.4842382054170051 0.33826050254635937 -2.9994065247539634
Ni 7.432066767038883 5.459373977470613 4.349312894314921 1.6158951423350751 1.8113696879297385 -1.0273562589802954
Ni 4.5840971033474975 4.724881835593786 12.330527775356572 0.9523031865991985 -0.5717583214623314 -0.4856027114101702
Ni 1.2854428450524895 3.347276606704106 13.363261233372654 0.5026555531273987 1.1639188607300988 1.1490681688705113
Ni 0.4782773576852643 1.9158361615954531 8.13024321819658 0.7695982819653777 0.4278806741083534 0.09712573591041983
Ni 4.198885755422102 3.4986549307786907 7.2446692982136 1.0984773432968373 -1.0598999972442713 0.2521640278669076
Ni 0.9353414207481628 8.991096581333052 8.875592859162916 1.6094097917210475 -1.183080007039582 0.3780166993983748
Ni 6.012292328424243 4.4811079940590295 2.9341451760904023 2.373592816208125 -4.4032697313563265 -3.3119313130971157
Ni 5.775810906616358 1.9527085754062652 4.4872319480675165 1.1335389628866606 -0.5604665505985961 -1.3010249936881981
Ni 1.7177098834405449 5.819751931875981 8.65066460717552 0.3575296351886165 0.1755605802795557 -0.06508516253510725
Ni 0.21425725979626964 5.749718591532228 12.510252350382276 0.012386546589810926 -2.019896695832986 -0.7107040787323309
Ni 3.284078744186182 3.2920146127124847 4.7942428185688595 0.46061621666816155 -0.5322301814607221 -0.33230531340418895
Ni 5.958233303927208 6.536404688922234 11.131075800873697 1.065036032919256 -1.1384171169145685 -0.10650563446342302
Ni 5.594321043797436 6.483595260644383 5.22742187569002 -0.5751892015207514 1.7646298606710384 1.2727760261448338
Ni 5.583876657487848 4.122725663466387 5.101472834675804 -0.13815411460663948 -0.5059663626681866 2.0624690219775577
P 6.336021677296861 3.6411088997655296 10.473596087478208 -1.315864886914508 -2.2395583801968137 1.6241398988423705
Ni 9.031391396729237 0.364406503410494 1.0622500397545709 1.7279422754420177 0.8670574899558163 0.13319831326326093
P 2.0429499381900853 3.2866711900737404 7.45507519055821 -0.7295682626266854 -1.3494586637095534 0.6745859928535349
Ni 3.195282809864849 2.895696778988233 9.511057298272982 -0.3155028971348695 1.8534779299536983 -0.5432319318878644
P 0.794839246452928 9.061792021166072 3.1792739902419305 -0.4235082560722706 0.1741318182528291 -1.5194209239657253
P 3.4223363079593474 2.0325894799847712 13.56601101753854 -0.35594455008968373 1.2714837896959716 -0.4685416421628253
P 7.278207901215771 3.2774670746384165 6.666255454250674 0.28427119281409746 -0.8124197480062781 -0.4331339520874927
Ni 3.756845755558647 7.599988253000261 9.162418088051997 -1.8965819602320242 -0.7700117153537126 -0.32285059574919234
Ni 3.753302124489323 6.693117110290644 11.61472735483594 -0.6267292783815722 1.1569835670628459 0.6138696488100848
Ni 8.60248148251212 4.835191340643886 2.4009909611586826 -0.4921803646276879 1.079831960281508 -0.3890503315047171
Ni 7.462737826478377 2.1282395428217713 8.78747767502069 0.1188980945905049 1.9919369773952662 -1.0826907698865418
Ni 1.8546245975453348 1.6555751102434182 1.3943395603473188 1.0951567635640365 0.9219793388046768 -0.18591389848942175
Ni 1.8592965953498912 7.705942821973059 10.94130596430095 0.04942354473845036 0.8443405079742748 -1.4736719998653847
Ni 4.161714930573874 6.512345299030506 1.1933942304233138 -1.4531515113145297 0.11958663601709728 0.34856574112710936
Ni 1.5307367178090887 0.6039046742997641 12.98242440474889 0.17726522167548825 0.31413841268717513 -0.7916295507338044
Ni 1.2117912708800587 1.7897668236317799 3.936320411340514 -0.23491938185384703 0.006477123083911426 -0.5107640411671462
Ni 8.07334276110264 3.672843048525821 0.16738994130097928 -0.39960085332705375 0.749923686354586 1.6674568164624508
Ni 0.5220840979780488 9.233592850613869 6.618567505402487 -0.6447334282684767 0.46242035975643586 -0.3183488512240969
Ni 6.691942116830815 6.756958421607998 8.383247286132434 -1.7243023646965852 0.6491459555138757 1.5803200734439429
Ni 8.249004283347016 8.041039766302273 5.271342385190819 0.08254295300023848 -0.7535198883462765 0.11022267830369405
Ni 8.838673818627507 4.564607132466214 7.9271390709237615 1.0623991095170415 -0.6390646600184736 1.3779750259816914
Ni 3.821768806886637 7.988286290093937 4.012410563209336 1.2018855697818591 -1.7194938875643482 -2.8001475724162033
Ni 2.2421672817005494 3.8888553382358984 2.75610009568466 -1.3481389164568656 -0.8036954807594029 1.9159176844461587
Ni 7.262643900545503 5.513246495069263 6.566866860635537 -0.7215032262303638 0.12989290303911177 0.5157347549088601
Ni 7.996156881205805 1.1724010139410428 5.559874152200127 -0.9462544093019574 -0.017258787080447695 0.9720641712762098
Ni 2.5631270031321427 7.9287439627843685 13.405175861181318 0.680626285510344 -1.0529726739968188 0.3585040832867439
Ni 4.937947316309373 0.5334889948143217 -0.05080261405122423 0.28707292392895073 -0.03770651341183828 0.4707749023687183
Ni 6.382275388096463 8.524456321572549 6.640759961241376 0.8777861892272303 -0.7063224047248674 -1.3018513462442354
Ni 5.185572525295791 1.8623553084834132 8.9806596552994 0.7017615248270623 1.0813100874889312 0.902585250548781
Ni 2.8239009484547375 9.274493813429807 2.263713491136533 0.6365187536681682 -1.4530507240706072 0.12778254156432833
Ni 7.971696501482548 3.2382446739079476 4.157700369586126 -0.2421148711610217 -0.9941756584632684 -0.4990179563748115
Ni 6.393997346659991 6.607445166517269 2.235474481651986 -0.21386513228670911 0.8060241288925796 0.3351756929734485
P 4.5836401614464535 5.664960531560941 7.511321008438815 0.6198101826642357 0.8821215833777903 -0.22575571307670797
Ni 1.4727423977561203 8.03246977432146 4.8487830308637285 0.4555380308143058 -0.848989576710512 0.1984292573476131
P 2.173057150503805 0.7769028780351952 10.139779513006411 0.821764679556288 -0.8035383863562484 0.3419505498034369
Ni 7.0108689130700075 2.223759050829901 1.964809142973516 -0.16703197398325426 -0.19957211270280467 -0.13824898831329094
P 1.6172479426251996 7.427282865095296 7.086768827902475 0.29606998522123845 -0.6359166013077951 0.03676574676512378
P 7.0911694581698805 1.034031546028846 0.006397186614622383 0.43583926683379776 0.8852061358403852 -0.08379070936441053
P 6.27008216337267 8.385835069347534 10.24319479055769 0.3340413222586892 1.133513508965364 -1.9882147913486727
Ni 4.505111431881241 5.672877749397405 3.4618683101411367 -4.43800327818277 1.2241168703762337 0.3323963304560985
