# total energy = -340859.07107566064 ev
CRYSTAL
PRIMVEC
9.36275183473566 0.00000000000000 0.00000000000000
0.00000000000000 9.36275183473566 0.00000000000000
0.00000000000000 0.00000000000000 13.70333371158830
PRIMCOORD
 96 1
Ni 8.571917722693657 9.04760169709458 2.037233701584796 -2.067887879000284 0.2838410472552144 -1.6734120056046213
Ni 7.878240795177421 7.263136081832198 7.288350909046683 -2.136740478997623 0.22317792504720274 -0.8462678069039747
Ni 2.0955524107874193 5.116406869012037 1.97825398209613 2.4290204010488106 -1.6960361707620404 -0.8190411099775379
Ni 0.33097608944346973 6.654491667316575 9.548360057431081 -1.7138035220477905 1.3059144605700155 1.6681651553833852
Ni -0.329206529329275 1.444007866942484 8.627139233558843 1.4509118233507334 0.8148093312843773 -0.7590127931400477
Ni 1.3307841078898062 7.159621496527773 0.533317330162492 -1.95001179791639 -0.8803292673640581 1.4922212236224817
Ni 6.75942002816197 1.5212318448360165 9.214518965897964 -0.9521741172205019 -0.14929907547986546 0.4515821314903513
Ni 7.830256691551771 6.603539571330081 0.8445792091485634 1.2188828756708041 0.5091982393419231 -0.7942117096386839
Ni 2.728315274266881 7.998917304763956 12.844573049827474 1.096863204732182 1.2647202457198927 -0.22323448931675102
Ni 5.755461501786414 5.961479495187152 0.2814461954746802 -0.18743650578153526 1.8239038158410075 0.23471575048347318
Ni 6.543505605974439 -0.08982530571202237 7.20332214114684 -0.07541482659588948 1.1090052394113545 -0.7409806182286852
Ni 7.701612480075397 4.802979385505261 12.88853397895011 -1.7513313437899192 -0.4840273965032503 1.279046689644894
Ni 9.00755720710299 5.180513631455905 11.231924231451854 0.7149281441160075 0.22375539481722756 1.674055809836207
Ni 0.8342979712575731 2.3932598338088362 1.460761575240579 0.38235106510767053 -0.13262675703050705 2.196996081354571
Ni 3.006566898784084 3.782102366397696 3.761030556910889 0.30054010517745017 0.12173016472266131 -0.4640203572537041
Ni 8.056273523068487 3.826659702818079 1.4788223237076767 0.04266411452742975 1.0403963799937048 0.6108452601614642
Ni 4.882544051380533 2.8840927408275734 8.411092796569143 -2.069122008517701 -0.12871996577693315 2.805631735459226
Ni 9.101568599201553 1.4671057759462842 5.914386725544948 -2.143690170842579 -0.04681953145670001 -2.092209229354468
Ni 2.578108645102727 6.403148591837443 10.944619762096478 -0.9273303187039449 -1.1238554170503097 -0.38748555812075847
Ni 2.1583858389692203 8.020301830165122 4.945437401174666 -1.6689637400252806 2.844283643503469 2.8041317538749317
Ni 3.177287317420198 4.914124613630155 8.063918210016848 0.7556672737065824 2.353405028406341 3.18237136791739
Ni 2.2522380642850264 1.451226548678167 4.333501043081525 -0.1143528984219837 2.3648019573893726 0.5986867704220593
Ni 8.943469170162976 7.159733849550897 4.962319379174161 -0.8549313961162438 0.7365606347841186 -0.8318485461548513
Ni 6.210041833343978 0.7247547099873816 4.86497110228883 -1.6887818031924724 -1.1062158495916756 0.6443202519904581
P 7.971915128206615 7.439567779143755 11.092409864988284 1.7614082684099468 -1.5673771401300296 -0.2828156913144936
P 3.9565772485565196 5.992507655073084 5.840388215690253 -1.1651979845528386 0.8948313176349749 1.892720677504405
P 3.92206614495376 2.068156998649146 2.161290164616962 0.3917037099671641 -0.4956508396747915 0.9247805556988976
P 7.894953307367037 9.220831333247117 4.252623719386095 2.5485252759853787 -0.8907874865829046 -0.9219387153747284
P 9.532966756987975 5.629457586353442 1.7756234323425648 -3.2454855227690556 -0.35263759720363785 -0.26207048834734215
P 4.900848231397732 7.822935019544892 12.422195903522676 0.9147897630347729 0.18544467216248708 2.2532505329719257
P 2.652692326952858 2.844993888780605 8.068413267216979 -1.4526378049029047 -1.3743443712076395 0.5712358732999582
P 5.613316202031369 8.115811262572 2.8740408903587933 -0.3794845421931529 0.04257721124057828 -0.501875994648897
Ni 3.429510491580463 8.188906266865745 7.196497631267282 -0.16373659106143415 -0.6173249543485368 -0.19603093231876562
Ni 8.458544159610149 4.597635510243264 4.062408178687673 -0.1514202355879263 0.07873540632869021 -0.7891443224181055
Ni 8.49984325835995 2.0785777415438482 3.336514958065974 0.08964356860076175 0.020163362321752372 0.461068987934864
Ni 0.7095767528385933 7.127001668814259 6.850954036100662 2.6506914025331834 -0.7663993154121058 0.8379063223131569
Ni 6.078570070785662 8.644469687375638 0.5819165665897422 -0.548771630759171 -1.2730030545539752 -0.7772424287741969
Ni 3.316633154349083 5.794007951469692 13.666156403968241 0.0832615763338179 -0.474893295412466 -0.5096990902377416
Ni 6.102772784516843 0.8805677550053965 2.2072921736596745 -0.011597732139928414 0.6060259843959499 2.062301643161758
Ni 3.5329501748694723 -0.0165870513137951 3.0981458479320247 0.7537150350762181 2.4484304301443056 1.6514866662864396
Ni 1.1535284884086765 8.680984419890766 8.606173223168812 0.5965437559371275 1.447027914915295 1.5650248378477694
Ni 2.985781589506242 3.09048524430539 0.43095061824431224 0.5591959114162885 1.0008003628686375 2.698479725661056
Ni 7.250187395917218 5.686308216053917 9.81708227303703 -0.6774810550131428 1.048092463086382 0.26355735730551383
Ni 6.7692602804372 5.1366210504223355 7.358936695824003 -1.8731401842693158 1.1590723312710747 -0.7020502597120748
Ni 0.5915545834233505 4.326059527849981 9.515184082253107 2.0870641948184185 -2.0488038657856396 -1.9114125974869534
Ni 6.398270598083498 8.655583273912935 10.729641615101643 -2.779193852982672 1.0376386147429097 0.955459215729677
Ni 9.802426757445765 3.30154039824283 7.098217760565219 -0.6452203952072243 0.951785880643148 0.9975013804023917
Ni 6.387615786390623 1.3317671968421365 12.32317543914319 -0.39243493170623384 0.12042353009609581 -1.4725366007093608
Ni 8.078762853197036 8.598601565685481 12.914761855923091 -0.26432688848168673 0.6117312623108433 0.7622043034941518
Ni 3.340180475445377 3.909407704348516 10.60122772732267 -0.5831513937906214 0.5178374030741598 -0.5759592469175565
Ni 4.477324147981881 2.261497825940786 4.912480514391782 -0.857767322903142 0.2682557912224477 -0.1775498427954426
Ni 7.650716560600465 6.929307161876585 3.131855499969837 -1.074055462809047 0.030174466700851256 -0.08410438395008742
Ni 4.768730438956456 0.08070692161035999 8.790579176296557 0.16490824277203214 -0.6975377165537019 -3.1671388672383523
Ni 1.0810701512459648 2.6516905124966734 11.463879856515838 -0.327894585931003 0.2792212890950159 -1.0292686455116598
Ni 2.3889810561782174 4.037134366136049 6.280401977799858 0.32634112540095406 -2.092061133812378 -2.794197011259723
Ni 1.725433464362925 0.9855513560871605 6.720923201063905 1.745406236554736 -0.04284100642492621 1.382265168716613
P 7.519432053080689 1.269664063310638 0.4159702151611828 0.5333270140693266 -0.7344813836575868 0.7553116901393766
P 1.3165152739531252 0.19795011006528004 11.124681398330114 0.33971703248722784 0.4421191863052386 0.46816780376317435
P 6.596601772152206 3.5591939685207294 3.0574057054722616 -0.24723470888609034 0.29496338242062103 -1.7421926147134446
P 5.08434880641414 5.274796543360351 9.30800323506304 -0.2967294731821083 0.19734528025481496 -1.0838441667646945
P 2.112367913248232 6.833404493888775 8.632634232664774 3.483556305767691 -1.0551192880261766 -0.24044365410618596
P 0.9186114249101965 3.426158626390613 4.337077614317622 0.2935477330200171 -0.9300263774788693 0.5644579311461762
P 6.078691786560713 2.490342208539442 6.898572992401159 1.9141053138277677 -1.8793452846387635 -0.3932620555932195
P 3.672998218192879 0.41330932106354196 5.657229381119177 -0.12010805573820603 -0.8036139767891902 -0.1390167197172509
Ni 3.7312907116901064 8.501500465451022 10.847696554148628 -0.22366874864069222 0.8931390175342165 -1.8946286931603948
Ni 1.6651560674571828 1.4104892150439818 13.31610464374879 -0.1680367610986848 -2.2819561284367347 -0.6112082999278378
Ni 5.922567898178722 7.578164595918484 5.077331423844887 -0.15019921869663164 0.21762305666724457 0.1309218585242584
Ni 3.705655496914101 0.33026545657221373 0.4147858270424229 0.5610900431152078 1.4576149464025219 0.5311238357704208
Ni 1.3100456123715987 6.8318502770689005 3.1375836315987486 -1.3135892035064538 1.8968946063764367 0.013933065141324393
Ni 1.2473900764764096 5.519576329738686 5.164073575347363 -0.017209679010067133 0.4818044207100024 -1.1115845701027565
Ni 0.7461495344156686 0.03617392834498687 3.6883344058492327 -0.8203230620137549 -0.972402528452235 0.03907742561743593
Ni 3.535993069245733 7.736582358522578 1.8139929260144227 0.1887490539453717 -3.5449143971601975 -2.6678046651747023
Ni 6.721079559021085 2.876125038937734 4.972926440832209 1.805758255280232 1.5800431656334724 0.7894117171468792
Ni 8.946203093725646 2.8148083765680996 13.39056941864945 -0.6072529148245155 -0.7228278585790584 -2.152626296989944
Ni 0.6262866479715863 7.5967309329896375 11.963709431861187 -0.20045400108712574 -0.05294004253214108 -0.9788446845331529
Ni 4.70105646802842 4.15576043305058 6.5127424119680395 1.21972259796328 -0.2797617349795182 -1.388665672926318
Ni 5.313895395407319 4.216468516544962 12.788266396013954 -0.4062384132482294 -1.8420732876611823 -0.4352006048085344
Ni 5.291892928378973 5.269122715692616 4.326197160303307 0.7152240780898714 -1.71353458465712 -1.9540635993882607
Ni 5.700867295300333 2.494920594231724 0.5602399233284538 -0.7963292702023189 0.7611223832838827 0.7656338980009911
Ni 3.4999932880865874 6.813246488990039 4.034836746813173 2.021528575009454 -1.6830919518965464 -2.7483496139083057
Ni 5.774374260678865 3.579323885163685 10.501083732711951 0.9395518004708012 -0.35757231550109386 0.9087558981358671
Ni 4.972314116856187 5.966011067119798 11.343578793281573 0.18902004821857124 0.4718154278180907 -0.08565553048729119
Ni 8.506312919941477 0.8103115370959049 10.845215424887986 0.7470872453470553 0.9773223343513555 1.4133922291387206
Ni 7.969948950301954 8.781268855780391 9.092093494251474 0.6846102098587564 -1.3340922085558122 -0.16975040135568184
Ni 3.858745853671757 2.3226740470315157 12.291575215114522 1.0039211678858064 -1.5203694039219235 -1.9222904207417217
Ni 7.713596802541901 3.6690564996316306 8.611407937771173 1.0453372689387481 -2.9481564683297354 1.3317792441519194
Ni 2.6008133185255953 0.8909781988729788 9.378150845050179 -0.26930968640825875 1.9063120430355944 0.2952143220891626
Ni 5.787575740895872 7.500856353257609 8.654956905809023 0.1956036149733599 -2.192303303864592 -0.15110193301655914
P 4.459890703893889 5.423467681208484 1.912710973506668 -0.8414045652744024 0.2770515351372067 1.2749828039881654
P 2.2231386312960475 4.245436871006963 12.583072324782789 -0.20025062682706804 0.29293323936446974 -2.360006335772942
P 1.326318075220648 9.07100857691197 1.5560406839500531 1.3373127723756388 0.7719418424968899 -0.142364038922929
P 9.130396512384651 9.088264128713348 7.134818630398074 -1.409442243352037 0.7101371504852674 -0.7147926469794077
P 4.700578967680145 1.1497178483744057 10.382947337723198 0.32549806067436843 3.1240998858700064 3.729143965968662
P 7.868887406002392 3.0917773040713095 11.11877537441459 0.7172177114811326 -0.20736358372276545 0.061547067474861744
P 8.814403634849889 5.519426525707854 8.037128567928248 0.34767613943330444 -2.0899633707430842 -0.9429567123872922
P 7.108285527712274 5.697421802591213 5.358537932870237 1.3085634681570883 1.0654461238734811 -0.17745394064752665
