# total energy = -340866.9222433198 ev
CRYSTAL
PRIMVEC
9.26911511198347 0.00000000000000 0.00000000000000

0.00000000000000 9.26911511198347 0.00000000000000

0.00000000000000 0.00000000000000 13.56628690290209

PRIMCOORD
 96 1
Ni 1.1897558041043486 4.9261638995091594 2.6126502444809176 1.5797495456524535 0.3887770232386724 1.5983026260642925
Ni 0.10126600914184983 2.8385552633460387 12.957228303404559 0.44713180902848154 0.4051361813229861 1.5117924608861897
Ni 0.7162625254714573 0.17468481585398646 9.615879161751637 -1.9291064152222903 -0.9282913970656335 0.7090153781759982
Ni 0.3995859895561286 4.011774966150714 10.100711348859805 -2.0689068071831014 1.5444763242724562 0.4935440777444339
Ni 3.739865475329013 5.816054561715677 2.334757539876179 -0.9988123859043315 0.30480325132917824 -1.327173884169424
Ni 1.5998956080886206 4.370100416847333 0.2798077037799137 0.27985043803858256 2.2175032001689874 2.2624010891229425
Ni 4.999946055532365 4.306115715461882 7.496485803073547 -1.0653157689432042 4.718713750228803 0.8755760689497888
Ni 5.126182133783625 1.536263133076145 0.40039981786000267 -1.5461123172139823 -2.3343384986931928 0.9899958160539659
Ni 7.528968489953914 3.9773309345197805 12.114015977820811 -1.0874910194886624 0.23249174624896088 -1.0394617839945777
Ni 7.5823678619199555 0.5992297515814324 1.8089827445556887 -0.47090500018867937 -0.6726471239596092 -0.28665589099619015
Ni 6.529229544954555 7.044138156668764 12.152353964696136 -0.010647195301201017 -0.25771452537149164 -1.105338846303361
Ni 8.530848600536359 3.8311847970803474 2.083740634440949 0.2373202779858558 0.38931386957874886 -0.6422759678669197
Ni 7.166008481718149 6.598970366803625 4.985637322586005 -0.5832256986719826 1.7468884775272173 -1.7992237965958242
Ni 3.836227195682939 1.776546403250713 11.19441131340781 2.626881701708095 0.37757549809589813 -1.263544737354553
Ni 6.7259387051460715 3.1017332477639887 0.9955418896919084 -0.04886330135960617 -0.2760567753241052 -0.7283310477854746
Ni 1.3659616817426827 0.4248091055071773 3.277737058693616 0.3368813628106456 -1.0410530397410975 -0.29048683470650616
Ni 2.75333501931622 2.746244146281327 13.02481590982094 0.9680689340738875 -3.1372721615859067 1.5987811083626078
Ni 0.5757279103004227 6.350326354828438 0.8828034968176562 1.055780575759259 -0.9232666901575325 0.9625513466897682
Ni 8.819423960268828 1.9543187613372786 3.435743955787231 -0.7125897257908179 -0.02547114768791097 0.6843690403822278
Ni 3.0880334956782725 8.291455165409307 2.0041884542815063 0.09778959474666385 -1.2606491609743127 -0.6397858544552142
Ni 4.936637999547629 8.095163115396314 0.2539802415257604 -1.8795345178314342 -0.582480850086158 0.11493062530232465
Ni 3.262283590035087 4.415500542500808 5.803304893925486 -2.0487861251738266 0.4673015991081371 0.5319062224624
Ni 2.6459708593643625 1.0458713307440193 8.739673421046712 1.3288206757442276 -1.0167059783553005 2.1814496489795396
Ni 5.677898401473732 5.229959146200185 13.305841575322141 0.7915560171833916 -0.2529379299184547 -0.3439207861559303
P 3.522412035592279 3.2444405435093744 9.359218292145236 0.6182366675295289 0.780030018821663 0.2875616906399112
P 2.1148969109536124 8.113052507497418 8.734002576441812 0.24072313301981765 -1.3398231975023183 -1.1577839514769546
P 0.5825685172282024 7.826534891312328 11.490712480558038 2.0637401753804974 -0.5887126899284829 -0.22534793611532805
P 0.34861327191758434 4.994013821882258 6.230168035334013 0.7623703967583708 -1.7509173961809523 -0.1288752604078748
P 7.858476261872124 5.537054197859082 0.5180601108408279 -0.6787979740523536 -0.587179284003092 0.21137347621310695
P 0.4943395184439704 0.932194903423844 5.307144921280139 0.7311615752557343 2.051597369370376 -0.4021375037059784
P 6.88785160733368 3.516859835660382 3.9830889088064154 -0.3604311251061277 0.14974079100297438 -0.8895862671859519
P 1.4810099380944453 4.025817675494326 11.82249025875892 0.5648358833108854 1.1886963247850948 -0.6918810324885568
Ni 5.663892768590433 0.2612370317205553 11.674956534792267 -0.48956401005076333 -0.4036865933606531 0.530240404724203
Ni 2.37732409705022 7.767759432600878 13.246502554413931 -0.6378701254897402 -1.1739356215361525 -0.22040936116313006
Ni 5.346573883000178 4.804673608177983 10.115430703604131 2.08072102620921 -0.4573398599097349 0.4372369185122728
Ni 4.460798707888422 8.871368081167578 3.851821554890657 0.7786285104884462 0.2813072250897672 1.2979548394033067
Ni 3.0943179557013547 1.5034133892386774 4.778195454045333 -0.46451915126699356 1.0200759232687981 -0.6249968690714978
Ni 9.207614499747706 8.186028250508812 0.07989699124035504 -1.580948451056561 1.170381842746623 0.9846047269453818
Ni 1.7668323706486628 6.017528047057436 9.786271450412869 -1.9232982931809455 1.5162504966575434 1.4513733363681842
Ni 8.062721212622291 8.825356193918935 11.721000863943685 -0.649004801950321 0.371488925582186 -1.4579741295141535
Ni 2.0854674705800345 6.394892260124867 7.166336608391921 0.9108212653053281 2.310199182442828 -0.6136917284713238
Ni 2.9866293767217567 6.817313641587876 4.752799005642321 1.641566064738618 -0.13336594918937678 -0.7944127699058964
Ni 1.897452740331956 8.672045030523984 6.017638349526868 0.5650328298130398 0.36786469856603743 0.24403677077408295
Ni 3.8773449901702426 6.756693628975845 11.54123379229227 0.7636137822471688 -1.7474410075965776 0.39819805944225617
Ni 8.542434994384225 1.7505558045711818 10.745611884254998 -0.13480396718748397 0.5473531531450896 -0.8519941678647908
Ni 5.581731332536451 8.17317198789522 7.045556331275742 -0.08191920337331053 -0.48173165849053806 -0.5141638108773146
Ni 3.7032153943094457 4.241259717259072 11.522145903611543 -0.22755239996581456 0.2881558725804844 0.15313413295523948
Ni 8.650105035133667 6.983249339719462 9.749846608889703 -0.6004235506075078 0.5218220987535207 1.7300791192793625
Ni 6.9282927564202685 9.162566600467205 9.719267798246419 2.0019069441237844 -1.0814463559564793 -0.5780919769898432
Ni 8.401637136344966 3.717313718343528 8.025083043935377 -0.3398142201867244 0.07947048472250184 1.6237398351904744
Ni 7.283818934363243 5.110239255848963 6.527486951319837 -1.1811280255195336 -1.1396682157128502 0.25707843444938955
Ni 2.987213330971689 8.723775961775932 10.811435578071983 -0.7514123550849704 0.32108630475991795 -1.1026641276846751
Ni 5.583826152544145 7.291623529259165 2.562088148640342 0.8571070636113238 0.7108465178474661 0.15406744340278627
Ni 6.199990577373617 5.078047619182055 2.161638277558916 1.1455249316039433 -0.25355987977316974 0.4068701332949573
Ni 0.7852590373797407 6.646409697774326 4.940787782368179 -1.611536351145747 0.7672814609067431 -0.008822483387636419
Ni 8.982819920868964 6.369522692155582 7.653881865483503 -0.024163227509764837 0.6707751037478771 -0.31698642365893154
P 5.670863143129308 2.7073045938374216 12.405080094951803 0.6699297250284462 1.342783822792539 -1.734797093580322
P 6.866541911768685 8.683983650744823 -0.0628816766911341 1.0921832827580091 1.1275932868261869 1.1926763924787653
P 1.414541113868012 7.2986124420281975 2.9126414463438124 -0.5247205033472382 -0.6527804669426693 -0.2442681700585987
P 3.166617053312034 0.362872878554029 12.775236644134354 0.9146524661259603 1.283557433031054 0.9883834772615234
P 4.31085223326689 0.35687576109837393 6.000273589339195 0.3395218857572862 -0.07825898091290392 0.9151129507021466
P 4.970544422504021 7.8716384052832975 10.0775533917482 0.9148828369692115 0.745600890609516 -0.4053950914113277
P 3.0701626418073253 4.1527860138367725 3.599420770574238 -0.13090643190529067 -0.7116702993003421 0.07274370752162956
P 7.747107844206442 8.193462080801602 7.722974776188601 -0.7072639427025303 -0.4268270360328585 1.8911965275503946
Ni 8.517742071815654 8.601414373627398 5.7971594706285785 -0.8497660498652203 -0.8066651049106881 -0.6736269713743753
Ni 6.296139108080742 6.644880293786406 8.797533091188427 0.4700369957614292 -0.25201387544228854 -0.1344185588236072
Ni 8.459207610096238 6.262835177604439 2.7981280179320676 -0.8428268995432259 1.311960152543463 -0.16792543233180113
Ni 1.6628328994702246 1.965460237661386 11.005718083936003 -0.7607853116594381 1.2052439447311307 -1.9689513151333704
Ni 6.234490223695021 1.3998402973538406 3.98443200358126 1.8725388032398913 -1.7706686106659506 -0.6972752069209346
Ni 4.054524124891798 2.3668407278966717 7.48275638981958 0.3975894793239798 -1.626624098716805 -0.7231615877693932
Ni 4.995163192151966 5.102898116706956 4.254929808176537 1.1155697800027498 0.7676416724596392 -0.23575756148442625
Ni 3.672766351277256 5.705946743700644 8.940902201750403 1.2574375960155506 0.4189707732132333 -0.9706382374629606
Ni 8.698295164425707 4.608066408252328 4.39219427954795 -1.6893140215468583 0.6883172263966985 -0.6357067992898342
Ni 9.013278233016232 5.865004758444138 12.167887147744336 0.3989511355581968 0.08929621256367201 -0.5380766129391702
Ni 4.863541758040216 2.667669857762644 2.9392308298574013 -1.772015868722464 1.163779249828441 -0.2532330925613704
Ni 1.225719970608122 3.286411096583882 4.6801791966499335 1.700956233771477 -0.551198752143425 0.17296248053507632
Ni 5.039979363555508 3.0821661458337135 5.403411169748758 1.6549517420169046 -1.47917724595433 -0.332425383921821
Ni 7.60031286871153 1.54258466955954 12.911890280822107 -1.848848915822119 -1.2015006756386144 0.62664108954314
Ni 4.443845496410225 3.7762930975867013 1.064227886245069 -1.9284147884719045 0.4011545709674188 -0.8391653915312387
Ni 8.337142633630208 1.0130215869065518 7.772519123193581 0.6072488010594573 0.805107273505265 0.3277074096208614
Ni 8.476262781840296 2.7771010303769614 5.921467572943555 -0.364928755866165 -0.9913101639900153 -0.5486567024478616
Ni 1.569390950365961 4.40083680244695 7.904600305413212 0.5065363762390438 -2.2324749909874715 0.4782904940194731
Ni 0.7652405295451531 0.6846594776120202 12.514546490203418 1.3496574099839207 -0.8343075492183052 1.0908321680467534
Ni 2.0035470315180883 2.6037500401827414 2.254594525033077 0.09853212933964321 0.15364603959465153 -0.4752542782963105
Ni 5.2438535497025445 0.7060507413897028 8.673307483997647 -1.7422741186836577 0.1290560089601132 -0.35531822935959456
Ni 1.9112729909136896 1.8739555336084852 6.913447341710876 -2.495210109502006 1.0874694222221077 -2.451778520680932
Ni 6.357324536712549 2.371744089773088 10.193355227155827 -0.6267755582384754 0.2411820749341072 0.255341911374257
Ni 6.529794960974331 1.1524754232594574 6.145948855732651 -0.41518533802887203 -0.4713091776056334 1.7365662696656028
P 3.477781246490302 0.9998501743802986 2.5074708149530127 0.5013843997244591 0.8347996583633751 0.06385026168674164
P 6.4678865413664175 3.0641377170064352 7.2443019160499595 2.467557380781744 -2.6312129820935977 -0.42057359892397894
P 6.948110124457656 8.57443197963449 3.9009182036373553 -0.25256306307753923 -0.16339514856161536 -0.7789144171599812
P 0.3523607751437378 1.2891114486285624 1.3162273178785984 -0.559196939857553 0.25247873089384903 -0.3318905944642736
P 3.590020960973342 5.511805128385815 13.453768309768115 -1.130034549277828 1.2036053806864433 0.41882087789893035
P 0.7541175914512025 2.4747703038683055 8.795702440960465 0.3439174437218206 -3.06372601276764 -0.4678034784452202
P 4.637644154467158 6.204773440754016 6.115044699150117 0.5602487781608351 0.3176996476758722 1.1240587913103675
P 7.560214676882837 4.9180719620458095 9.872946945509979 0.11840958498986058 0.31446519989897453 0.3936821738497736
