# total energy = -381166.47991492745 ev
CRYSTAL
PRIMVEC
9.24438155384794 0.00000000000000 0.00000000000000

0.00000000000000 9.24438155384794 0.00000000000000

0.00000000000000 0.00000000000000 13.53008684046191

PRIMCOORD
 96 1
Ni 5.969688668785434 7.279284706308151 4.205123932765521 -1.3759304847478369 0.8857226704654876 0.2345002920385574
Ni 7.923349998338908 2.9159829378240283 11.831843920561074 -0.6294705885721352 0.3704573989938781 -0.7549792465006223
Ni 5.3379923589816745 5.1056533228747 0.6726711056355565 0.10853140664420018 -0.2994029062492134 -0.9501938535656796
Ni 0.1397510104024023 2.306574831420337 9.777990137216383 -1.0998693385483573 -1.3885232338111826 -1.854537481566464
Ni 8.13556401627834 5.271654678517597 9.665406514682966 1.9131846017857117 0.154738758438198 -1.1288538987061656
Ni 1.949630779291164 3.6643618288454 5.5057307338775265 2.2914406708884023 -0.026027020191380985 3.307495903033581
Ni 2.987894980233456 7.187182935061829 10.717397697470451 0.15406564363057337 -1.8669474251950429 -0.4099516004337585
Ni 8.371258762810125 3.0386373893844207 3.344786339389016 -0.9608099385186292 -0.513658846216438 -0.5875523510717946
Ni 0.42556417034500305 1.0538872053994117 2.949626939256715 -1.7924887918648356 0.6576498792198286 1.8744200794230041
Ni 2.389238089323037 0.8793468147168451 12.810556741377734 0.2974748359885651 0.7236917492412505 -0.07912698534015405
Ni 2.6556796481769434 4.873822727741182 1.357663122715166 0.1741739843446742 -0.0027706207666016803 0.027380191785165747
Ni 8.053039424095672 8.030261268484818 10.95152274805146 -0.5182086703706494 -0.35974335501048366 0.9191053596909914
Ni 7.390882877791197 0.9520326118440605 10.269944680999076 -0.633670999806728 0.7276887862157855 -0.8389818147655228
Ni 7.45731300206863 1.015476800950103 7.091890003378468 0.6413555129351793 0.2213637546565994 0.2753209255993452
Ni 6.925955207281187 0.648999018349553 12.702275453917892 -0.859112781187443 -0.42812492890867554 0.7062190463777838
Ni 4.3099062218898485 4.566373093282671 5.818979368747843 1.0602758925264513 0.18834024854272724 -0.3862342022121606
Ni 7.534743940135395 7.3531195800353775 8.75226131736513 -0.5538487881717623 -0.037268140322839045 -1.2860843132179656
Ni 6.102012743222836 5.344167605713838 7.914356139737528 0.12268352977486612 -0.4393686201432949 -0.5153336628156996
Ni 6.326974763024023 4.080479165903579 10.272921371789131 -0.6329212661248972 -2.069110438553475 -0.15044193083505703
Ni 8.963574008124342 2.7865246216006536 5.8100354298056756 -0.3327465147066656 -1.3359590865612216 -0.5936219543046422
Ni 6.5643242538148785 8.014046623622221 6.235394374885027 0.6661949405763623 0.5565386762990996 1.2233835917546352
Ni 7.570371785802696 4.116051545282867 0.19639595703613033 0.6577131283575964 0.7374769759508009 0.7471996025552035
Ni 8.391494713553698 6.956886907230017 3.7630825771279914 0.8250127541799405 0.199612736132753 1.4820694799004603
Ni 3.2604932970568545 3.536114526576985 13.069820038124567 -0.4821965139420986 -1.188622534124366 -1.07953628341796
P 7.38055690383936 1.1137907964539298 4.620375995730692 -0.20088620352853787 0.8822827915460031 -0.18576374606480264
Ni 1.2433508008719956 8.727176688611051 10.806453445066701 0.7116769841685614 1.414592420094409 -0.10574355948641788
P 7.502157495927497 3.182840493838035 8.742018542845315 1.465208956699696 -1.1397155240110177 0.7086909049570439
Ni 2.298781817954448 6.420629590334721 5.058439494079524 -0.05086567650161563 -0.51095173169792 1.148841911792318
P 1.7167833022107328 5.112004212852239 9.447748480575017 0.653335825225507 -0.3231087345065855 0.22125139744845118
P 2.3877867214533524 0.8454439706067619 2.3308145237203446 1.415308215214511 0.14644566519147037 0.6917794739136861
P 6.713140304554944 3.9481920689915198 2.1520688639682253 -0.04217483359583704 -0.17305298336635358 -0.24677268164800722
Ni 5.2358696783675915 1.7433424097878363 11.103573407820843 0.4103033273462224 0.9958329915610333 0.24946231266502847
Ni 5.970650084444333 2.835723219068577 7.425067675532015 -1.3088396046366104 0.8012686164854652 -0.6406808554656579
Ni 3.294891640006524 4.360371299600746 3.7113029483911757 -0.4177587551830031 0.9792244364700747 -0.8234199557715238
Ni 3.741376769752064 9.32979941911443 10.653820389273177 2.296276401714149 -1.2996288846716197 1.6466283097528738
Ni 1.1420878477221208 8.1813421926521 6.895838861766155 0.35612709841413503 -1.4916370689842375 0.40251391320879065
Ni 0.5442795910183074 6.412106270743321 11.368993462537167 -0.380996350851989 -1.6561951275057023 0.8348158563132912
Ni 2.8480737125329036 8.799486239417908 8.548376487009051 -0.465633724487411 1.4577748690191539 0.10779272870596275
Ni 6.7562376103413895 3.5032507509290207 4.864066207679617 -0.7264376874175037 -2.6878286737051127 0.25879824535397367
Ni 1.2000501186961683 8.21797767588498 3.866087171721488 0.09058870612285043 0.023483942054553106 -0.09614177473059571
Ni 6.688448562007627 6.5576960323972715 2.391226555748319 1.2848224157864065 -1.4042578709376203 -4.050303547168676
Ni 1.5757232874112133 7.7432971830659385 12.94925389230788 -0.48370266617397983 -1.0434099700090482 -0.29489241997336957
Ni 7.442660657651745 5.528602257739869 11.726714967136662 -0.6920661519161694 0.24521639290448088 1.2961596951760967
Ni 3.959488702983591 8.094149187894969 12.780127011335425 -1.1736260607155335 -0.05578573951105231 -0.401346889483883
Ni 0.19720484040299305 5.03121756436066 5.171916123849958 -1.4104925389934224 1.4986669792478255 -0.6136431346215754
Ni 3.4765067557252056 3.57526448153314 10.280010887835383 2.7805593658716306 1.6711658898829218 0.3589041469386399
Ni 1.2885188480776089 1.2628656898713917 6.9449662774977945 0.7036476861061818 -0.35943045175575516 0.3336885669049608
Ni 8.408254776915092 4.506386302796132 7.370975102585038 -1.481418219469707 0.28791187489047837 -0.9992756986939951
Ni 5.091028711601822 7.645935358839676 8.112761825276012 0.6734657632061627 -0.22679006787849332 0.45702618532405814
Ni 8.349469756002179 1.949677001197842 0.9149691137553447 0.6872610172180422 0.1653594713768378 -1.0008363583128956
Ni 6.013507036316053 7.3101979174943095 12.797662678290875 1.658259980454531 -0.31942460078677887 -0.010934387524316651
Ni 3.534487515461924 8.012891075955276 3.5833486930110987 0.5296914741992684 1.3016878240831775 0.95780071937866
Ni 1.2962748840181548 3.4282325963908393 3.539551587557552 -0.900865953864829 -0.6828700872391982 -1.6385023382116295
Ni 3.3291882947615026 5.844686144365806 12.711340494255554 0.4077183402278655 0.2242978975842589 -0.13535418326399912
Ni 1.1471722574566863 3.401581045000381 7.750655710609055 0.7469962282951458 0.09370616870590959 1.367453043404445
Ni 5.593682702342308 2.8050503617971434 13.375166575829233 0.6984967380328615 -1.065547939558668 -1.2655710237559623
P 1.9563514445221262 5.892895593030823 3.039656120207601 -1.0348577095636629 1.6277942077655063 -0.04628679888168158
Ni 0.9352078378133164 7.143457011344565 9.344256707085135 -0.26706382779687554 -0.3984605690750234 -2.8295054567530302
P 2.323205473443034 1.2808090340437404 9.987030559043312 -2.7914978671610053 2.3380090055662444 -0.9308133921565389
Ni 6.745800703813527 5.444016168519369 5.618395706966697 0.6656578371259698 2.579424022446764 0.8864328091586346
P 8.515313957162371 8.435192904126954 13.28469089125984 -1.4533466580444712 -0.8885305722279279 -0.9314289142533506
P 0.6420148882505271 2.7173581604478914 12.821650923418556 0.30807163766780493 0.33801007709845016 0.8771567831733474
P 5.809612961578639 8.387575095867414 10.194392201219701 0.7472494819565324 -0.8182386686809004 0.19316183830108669
Ni 5.408767342486827 4.923307901030507 3.5206773341847106 0.9366004311519612 0.09289807098231742 0.22256857359797802
Ni 3.6044767265535524 4.735804114401066 7.929523396194805 -0.4553495689525835 -0.9992415030219499 1.9879977902418602
Ni 5.362305081894234 1.1168321979133333 5.822780658353031 1.5531525118902154 1.5177653906401731 1.6239504085393839
Ni 1.4688952166973235 2.68962501644117 1.3087039547238342 0.5791700405453702 -0.38722896202526214 -0.5021181925666901
Ni 0.674408124888511 0.06895846257271224 0.9515334152519395 0.9448703844702372 1.8549851106268438 -0.4389870684341601
Ni 9.017949459140187 -0.06503237381949407 8.698181686552024 0.618696894995399 0.7607287473898898 0.07818544736249115
Ni 9.017903237233508 0.051166726254267034 5.534332849729791 -0.887013364252453 -0.018459749367084336 -1.420131090524451
Ni 0.4506007283161374 7.209942601910012 1.7253972167392204 1.0507584399543193 0.24228045020460853 1.2232385815363385
Ni 5.423428931285047 8.388407090187616 1.5917465735801635 -0.5667883790515658 1.4988963216498121 -0.9883523669132721
Ni 1.108641676050015 5.696507955937895 7.435526768575083 0.285981747747301 0.8729363173340966 -1.311635936434825
Ni 8.417378981293304 6.282065558495806 0.18691769285276658 -0.9683229590662227 0.9139407847709162 -0.608829772393332
Ni 3.1251463099227195 6.901929060190032 7.4126339826356675 -0.0018126277287065558 -0.6172033411690081 -1.2376565567338815
Ni 7.678697446292949 8.98738753444478 2.0183368702534152 0.7742188114565247 -1.1675312606717052 -0.10090422911624558
Ni 5.038788712674495 5.86230593519141 9.83454633778929 -1.2582176687146849 1.5347099889143119 1.123112111126382
Ni 2.8157923329090804 8.183135602631202 1.3451083284233234 -0.16464676158052932 0.5890261074038436 0.2601737855452616
Ni 2.1702109623392887 1.4277669641353559 4.642051296648212 0.677649205159891 -0.8101558916727659 -0.3023907852329437
Ni 4.24442826888998 6.507434331075757 2.0634189447126072 -0.35605510752561903 -0.9948369461963512 0.3374068962968125
Ni 1.5270793528234243 3.4499106706227605 10.964457486416194 -1.6858294054323675 1.0310943858664885 2.0800175723842824
Ni 0.12132695840060385 5.006377911711973 2.246711915643696 -0.8659382887497086 -0.5051407814430978 -0.42609324319062747
Ni 4.294606770779474 2.9639612769556556 1.6971195786718338 -0.7597419579965884 -0.12231663335375065 1.523903385217111
Ni 5.646634518632474 0.60555135051049 8.625592955428832 0.03145307630295873 0.29765352765827446 -0.602705147552833
Ni 4.577614260986728 2.603282494766911 4.159905965900696 0.20901783149673678 -0.28861430027414164 0.1451194901808791
Ni 1.0027842653763603 4.924740780137522 13.17151193056841 0.1253523348562809 -1.068938967518088 0.011050087166574516
Ni 5.443683370791289 0.48947612514662564 3.705606560612195 -0.15247413077373742 -2.274434880359025 -0.445821060636858
Ni 9.159046451465048 0.9602785999953922 11.8179218822697 0.35291064835936636 -0.5463090281512915 0.9563871268605851
P 4.915015690972498 4.4811583861313515 11.767671274205789 -0.7747669706505108 0.20144901801054338 1.6763032111094873
Ni 3.633651994048624 9.149358339825367 6.027207209455373 -2.3670298182786267 -0.5572508718747757 0.8172269395869345
P 4.317939589270462 7.242140782101816 5.5380269045114865 0.33470286710208813 -1.2338595515852941 0.740784185947163
Ni 3.9314689831554666 2.1232032832478964 8.708788689696462 -0.20517351804998213 -0.784700427714139 -0.7924363629058159
P 3.330242154233758 2.299244037021227 6.685269419266323 0.14706067306764994 0.2705404734915663 -1.4064589923539972
P 8.563088919904617 6.930623619855652 6.506862103871086 -0.3613086426150745 -0.4576944150356763 -0.3589414279344786
P 4.664668600023826 0.6786318827207345 -0.14231355290862333 1.15955878398919 1.7222555094698855 0.2670131770645982
Ni 6.5304620849826716 1.7204440772196201 2.2215182031898566 -0.99970970090762 1.4377112655000592 -0.0637841843354966
