# total energy = -381166.76419497584 ev
CRYSTAL
PRIMVEC
9.26401109597644 0.00000000000000 0.00000000000000

0.00000000000000 9.26401109597644 0.00000000000000

0.00000000000000 0.00000000000000 13.55881665955066

PRIMCOORD
 96 1
Ni 2.457890386019026 0.11113293072698759 12.324367988172689 0.00999979152518923 -0.7341209149943744 0.12802525370275372
Ni 1.357335123733019 1.4885598418727446 7.963458870413927 -0.03557404044986777 0.3071043886585292 -0.01735468922836366
Ni 7.39595110490678 4.35558601694386 8.145893189466662 -0.41144541137046553 -0.47032033132980294 -0.4077481650245364
Ni 3.82036703594813 5.929161689269712 10.013715163590565 -0.44046416720031883 -0.445183169942543 0.8311268374974783
Ni 7.7532454874844685 6.381356602212621 12.233564003544242 0.6645489203325071 0.34895346348383127 1.8576950533588392
Ni 4.595088497569793 8.542761574935227 6.1394732707175095 -0.4189381202030849 -0.7550862043921318 0.6892333104530646
Ni 4.374382695595855 4.466605926734646 11.798502879249368 0.6539161232090093 0.3782856367890453 0.310725016130252
Ni 2.5168836091121265 7.466385381787567 0.8810083881087005 -1.9410625591429025 -0.5542030861873875 -0.09390028699458666
Ni 6.38194023491596 3.727708396284626 5.424502828302173 0.5007544794499441 0.02437765751341608 0.014954821537619404
Ni 8.270621982978108 5.000194441765491 10.725390397234827 1.304279496069754 -1.6172632263271953 -2.2766719972196596
Ni 5.571607914379429 6.583061917288953 11.407656101037478 -0.2875058977013113 0.5400633043518956 0.39488570723957156
Ni 2.3271844525044907 1.2921350131599592 5.859279547454308 1.2159348487860737 -2.575426985472229 -0.5979480924838217
Ni 5.130112934331077 3.5513030956974987 0.5628794655295528 -2.3442570433584855 0.10842162053921327 -0.6661149792680464
Ni 8.651159769566567 6.310653669008075 8.602595043840914 -0.9320220677526594 0.7897269343944529 1.0741608780386598
Ni 9.441602258133736 0.9486903272726273 11.898675558368089 1.0314283721671398 -3.2517320178994 0.22284625273939687
Ni 8.27353088248364 7.126637036354718 6.108151648971629 0.9773159065934524 0.30453328549724323 0.2952755143444012
Ni 7.611811829041885 2.007400051130315 3.450014103233502 -2.364707340793037 0.21629302500191136 0.5411400823558422
Ni 6.64083229090839 8.554971541649534 7.395425835473775 -0.06288378400841428 0.11928298873374941 0.4066204791779965
Ni 3.2269885928640694 4.711777982193018 3.1241682593546445 -0.8527408162228282 0.07000676820644072 -0.2901124820862229
Ni 8.496460047136967 3.2579025981187297 6.625976522605613 1.3601063732313867 -1.570856871148514 -2.154209582316664
Ni 3.544790495849124 2.3981375140104673 12.663365022300129 0.39342789174712245 -0.9187286930778629 -0.2713143755431134
Ni 8.962087776267847 5.190560607176945 0.5775842304503567 -1.2453084168521842 0.4355934693715789 -0.1999436371096105
Ni 6.029565042266419 4.706006503237773 9.840636569412473 -1.0478345814393049 -1.9567797127678428 2.7426098832110513
Ni 8.134626299088861 2.621233430864747 10.213517650773788 -0.062363906949202276 -0.028268507927390024 0.2282517400256843
P 0.51615271961886 3.312412039808398 4.682347145125733 0.07050067712372374 0.5565792997290478 0.5466499564304779
Ni 8.239874729924402 1.0973499144232224 7.694411605383391 -0.2739487278421669 -0.1244691609203792 0.28938614544315966
P 6.779977738593438 5.615574911364332 6.2834813978626025 0.5644563884842795 -0.43354147193855663 1.841736473147054
Ni 1.4823251623592937 5.3037297675578055 10.246628153075461 0.33008053783872826 -0.31898879880094094 -2.376224597404017
P 2.4695259840411574 3.5831342380574065 11.235770711497324 -0.12918302145628074 0.33946403593615726 -1.087823720237733
P 2.393551828484229 5.032840817107842 7.779086520225658 -0.38874591289042076 1.9965320529651163 1.420622942559205
P 3.338907111737774 2.6326559566301047 1.5540165655550504 0.4238581832125216 -0.41569390223417435 0.5275908829164978
Ni 4.059656444317287 8.94922932877205 2.019449750451483 -0.3873850279871522 -0.22679675274671265 0.13374904356040837
Ni 8.900259765758525 7.278501971368098 1.872797674520152 0.15527971854333258 0.3705895536963682 1.1522213697875123
Ni 0.1604702749837287 7.864358037386895 13.223927558637534 1.2216349844946444 0.0754716479757539 -0.05525274982571774
Ni 3.8159758946563382 6.679120449049689 8.00108465175699 -0.885819601054668 1.8427829121336972 -2.3512442733095957
Ni 1.5427357791605045 7.264670802700071 8.609062250034583 -0.12595345877538955 0.15445490864919206 -0.2668064603704308
Ni 1.5126925909552709 6.061544408804953 2.401565198141191 -0.5006737468106797 0.6287236831037817 -0.8512472623964371
Ni 1.3666639829752851 5.544946090249099 4.554189741082446 -0.3529710692836566 -1.177558048780088 0.9089826694346925
Ni 6.27480194580294 8.374267739882256 2.8842859542709833 -0.3105087863543878 0.00496531442507532 -2.5328153214492897
Ni 7.402704569045422 8.773009308408206 12.003918430796931 -0.2573237176909762 -0.80672475450403 -1.9189531288383725
Ni 3.277051309194961 7.111888730581443 4.132347434317653 0.8699924042144241 0.3658142437949119 -2.0019699361512364
Ni 1.676146803934962 1.656757228568464 0.309296614335278 -0.6495881852576167 -0.09302482636816882 1.6845078584074666
Ni 5.991628916549358 5.744604058858161 0.18510883907581588 -1.7543266789728174 -0.8252932615348366 0.24904450840131948
Ni 8.43898612187478 0.29543672723264164 1.0915515698356013 -0.02762933168149435 1.0095876221429645 0.7368025755915957
Ni 4.900356193449796 0.778089856080936 4.485934359627461 -0.19462762421333576 0.5630553943716948 -1.2166688987386207
Ni 3.0891771627866556 9.083196194216356 8.014874132374779 -0.48766113660109567 -1.4943097307203943 1.2291073816122895
Ni 3.4644066709780756 5.329437398538231 5.797058742871628 1.0650190636383916 0.18873131333355883 -0.8881647042480769
Ni 0.438058031906465 7.876021427442519 10.859364673888063 -0.16372553531784062 -1.075914627504973 -0.0668831349757945
Ni 2.8999967908042104 3.3126806961321575 8.995244598625339 -0.11710654990772089 0.6759931576137068 0.07718374557085418
Ni 8.206366801543789 4.925758112061806 4.391714734082803 -0.2607898218627057 0.4185277721385437 0.7109514188564466
Ni 0.08267296202970191 4.067484533750967 2.4859955430887264 0.08701487272866304 -1.026920199884141 0.76495589809736
Ni 6.857100631534717 8.569025046585502 4.926934641479649 1.0109541634731878 1.5393001793881553 2.039525268697191
Ni 5.9401395424991925 6.34445804574594 8.490734888237544 2.4705858831954224 2.013267363441926 -1.61546114012145
Ni 0.44086039528361054 5.284896032861154 6.793238244173755 0.561042477706724 0.15326654476804571 0.07729224612426043
Ni 5.868649168345696 2.736607425902668 11.222985449689725 0.812803099487626 -0.3731560288719638 1.3821607819282649
Ni 4.331110499448262 2.869638626219397 5.587792141883143 0.22462931278174864 0.3282889931559443 -0.8120114568242661
P 8.457125055734124 9.097388659319785 3.539949123614756 -0.06085184118005004 0.026063272745955112 -1.0417171556876574
Ni 6.6565533178538985 1.419978367224782 5.860243004615375 0.1372341738955314 0.6285221086159369 0.8915883852176452
P 0.868005422038745 8.846491444961986 6.688604943679513 -0.32657072491325695 0.15398825342541866 1.425337574426055
Ni 7.55758030768714 1.6004042486571364 12.764839294987405 -2.195389913209716 1.934105925319411 0.6630473960863161
P 3.4383470075734124 5.660218181164215 -0.24475980696156913 0.249137582335758 0.14345547221489488 1.1221204366370738
P 4.9656489441344975 6.350201732667694 2.7892659181617456 -0.5879799255275164 0.008569229726249758 -0.5349650638933818
P 8.939502117049727 2.5501506732024732 0.6433253592754008 -0.26915490599794933 0.7795150268584575 0.4392403220955467
Ni 4.660862976835028 4.522847738512004 7.703238355220562 0.7681386667007158 -1.6716150616051983 -0.23338443326655936
Ni 4.525682525928223 1.8563318210770494 9.796733494104604 -1.9883729141930917 -1.810192894012818 0.4603974157891361
Ni 9.409085578947685 0.5528632166589088 9.680710091884078 -0.7340784917922132 0.24169989511079018 -0.6417779451845786
Ni 0.5426255579214424 3.0091175783063515 12.001532021521053 -0.23020526420762932 3.2073720037267854 0.5963660927086826
Ni 4.047817038049545 1.6864483843494609 7.465199588358559 0.9229069928252687 0.8705354212020878 -0.317953158447575
Ni 0.039516566021660045 1.0406263740653303 5.351827587120787 -1.8004301581990994 0.14710181071823053 0.8310787578683623
Ni 2.228050269037268 3.465592464407082 6.463975832977571 -1.5459120282777183 -0.7384156857149863 -0.8951884438640776
Ni 7.060297452408472 6.054485232297896 2.408263078212848 -0.27461798599504966 -1.4699531562529007 0.00079472798715347
Ni 7.126062667662543 3.972695171519716 12.694509701432775 1.0124063225386823 0.42561193267883474 -0.2548449171331804
Ni 0.9010603402734331 5.669269120071558 12.245808247099854 -1.4779132916402418 -0.8598218914393256 2.274549808670334
Ni 7.037331968732625 3.498099879581971 1.517583988849925 2.3211947622223827 0.2245724914018842 1.062937755629331
Ni 4.283104393595805 7.784937669676915 13.269281378093705 2.7633535435163052 0.9665671527173805 -0.6234632060357908
Ni 5.13432805941075 8.257531935203211 9.602936865359078 -0.5315357264968588 -0.5771355266138448 -1.2929424737903796
Ni 0.48312374061543145 3.6269252188301904 8.840728303616789 -0.38571252538073575 0.2990239256432399 -0.6249621591788205
Ni 5.3239716319514025 1.7701672532395916 2.2557265023900697 -0.024062440265842432 0.2733424617167357 -0.34222462940042997
Ni 2.5611933745101014 7.02971695155572 11.865890222858276 0.5275379181913753 0.1377046857740467 -0.13436379432627182
Ni 2.25574966241798 1.5406884326932346 10.413605469500865 -0.5614895925464717 -0.6579260156993507 0.054402743120596626
Ni 0.9431319205741566 7.9867819449207085 4.440580540171291 -1.1768144857458442 0.7419856624544319 -0.8930801392718233
Ni 6.7666097704836154 0.7973432504833216 9.76912766723665 -0.021809125455291473 -0.25249312907155225 -0.30155800491900325
Ni 4.808725859025508 9.539430216026819 11.384063443805822 0.10675965945575808 0.06620667773406017 2.627670773268294
Ni 2.6440506903619694 2.462633559735054 3.946307562119843 0.6039629312193341 0.7149317436604332 -1.5275083289595497
Ni 5.338432753378589 4.195448319960923 3.3891208314506405 1.819650182770976 -0.5603814470839574 -0.19513181754326395
Ni 5.7782602114174 6.660453466553992 4.759835966507994 -0.71795638941937 -0.8898390066267061 0.06603209982940886
Ni 1.2467135664222906 8.904020954291157 2.2574347860487327 1.4188887334769176 0.4937129992221304 -0.12016770533154789
Ni 7.101429661977154 7.628190600780044 0.44107809954596733 -0.31165704102621805 0.5518626109796689 1.4430740724738695
P 5.77144189920061 2.581592727093488 8.447861044570006 2.664554533668521 1.2260138302886303 -1.3516250752332528
Ni 2.288673958095254 7.399489957171474 6.088599953409759 0.5362112775956572 -0.4828014945159492 2.889017238965418
P 5.914654247786705 0.06837118159453714 0.07133010676035631 -0.5857970589435847 0.9132051921564724 0.12444139300623729
Ni 0.5079105288861445 1.7101457249072736 3.210253156696091 1.4660155117613916 -0.16962056064603692 -2.0737155414256545
P 2.934218048044461 9.413254383971537 3.8867705415714084 -0.8573389771164719 -0.42714071061853537 -0.440406574489506
P 7.346481285290392 7.1347430461233206 10.282925475217592 0.21351443381550972 0.5818378171855205 -1.3608900454749464
P 2.822290265159592 8.398335640886634 10.291629940107397 0.3379360293274051 0.9792899996006877 -1.5258060015564625
Ni 1.964155647016214 4.200821446436112 0.8839561964611227 0.5317594124718906 0.23286198510418604 -0.7375955038065362
