# total energy = -340892.1068816816 ev
CRYSTAL
PRIMVEC
9.04572534469248 0.00000000000000 0.00000000000000

0.00000000000000 9.04572534469248 0.00000000000000

0.00000000000000 0.00000000000000 13.23933339789091

PRIMCOORD
 96 1
Ni 6.368027975172742 1.9597293066260917 11.495223923607922 -0.07449437166414913 0.19350430924216996 0.22629538763026188
Ni 4.548851152386059 0.4347339523959589 6.202707390161969 -0.26749757290018444 -0.7290177894398542 -0.949540793362713
Ni 2.8451158792684783 1.4765609212612996 4.529652504445478 -0.28321369808386065 0.368131836184495 1.2074383812792882
Ni 3.4935315792669623 4.314195985486968 4.71859147890822 -1.0150183062402327 0.22788947159025913 0.779178212344329
Ni 4.880901646450738 4.291880180516456 2.732770681460505 1.0584966891388417 1.131340155463129 -0.2012926949383372
Ni 7.517187905310118 6.201595670489948 2.611061348546948 -0.9362060239270199 -0.3204278452403127 -0.7329610903583182
Ni 5.141988423452722 4.43622282336788 11.54551996689817 0.11627325537314813 -0.49343197764660174 -0.17807794738477073
Ni 5.794510882858021 7.643013947928613 12.414152951220377 -1.7038376690843302 0.631379889779706 1.0179534776091566
Ni 1.742858036189111 6.635292982736081 0.573254766273317 -0.12294629651794954 -1.4755998130157166 -0.9377823672752043
Ni 2.711989936118487 1.566005055654662 0.18976304006177547 -0.3063428279021563 -0.4171584025948429 0.6416928416699401
Ni 0.29413171706593977 0.021640993843313135 5.051123205572994 0.9815795669658128 0.12645765210531767 -1.0731128963901198
Ni 8.491123085514866 2.2486859640959107 1.5756260893663105 0.6202657821444156 1.5021096863807872 -0.14608493941794196
Ni 6.662023101782641 0.7417476872399719 4.892436755692083 0.8732687609728509 -0.6934807728755089 -0.06291875101140777
Ni 0.8381307977147611 7.345237708032263 2.762956267673151 0.6517365990591872 2.158189907120651 -1.4736370328623913
Ni 7.780617525233612 3.9862793880058005 3.9181406510372647 0.15840206622239816 -0.4238193595547862 -0.5551248266707085
Ni 7.496427965136902 3.964406823588006 12.563730355456654 1.0868150764675606 -0.25363084222042126 0.9417459799086427
Ni 7.8798581804145975 8.645669306804368 6.8877763701525545 -0.578959724306777 0.8087572115530266 0.6174774207660011
Ni 6.769585824484044 0.8201062849526035 0.5073448960841628 0.37677177124768013 -0.3052735060973775 -0.41263788901667003
Ni 1.928820062368191 6.426933740056397 9.085982662729235 -0.6021814138388789 0.06673143988927863 0.8853989685774816
Ni 9.178426359720172 4.861869439860564 1.504266169523839 -0.36833006823823017 -0.742432005963231 -0.560620302567641
Ni 6.287747160777406 2.1119145935429535 6.834620973010997 -0.10912635991572174 -0.6388934245479319 2.592602725920567
Ni 3.3542635884578793 4.014773423537666 0.29162966937447493 -0.48038851419908235 -0.10780069912576273 -0.1393674181884503
Ni 6.011201238783689 5.71948563501634 4.560314800395434 -0.8853827706275655 -0.2045312564802929 0.60437893571083
Ni 5.339601344160388 2.960358422975137 9.427305930071283 -0.5503492596589361 -0.9261663803028308 -1.2636185280152818
P 0.31340273081104686 5.535459394108313 12.504484471291732 -0.9350873369415446 0.048933235365593145 -0.5639876763779771
P 4.063801256103607 5.826867443206429 12.746698246473498 -1.8970038782607908 2.216917502868846 -1.3066644513621624
P 2.5022557431528214 8.431348930976908 1.2852139746529752 0.09023080856279944 1.6226954530863604 1.2495797905340287
P 6.220311276685323 7.729762456103405 5.749948925003852 -0.5697988837431155 -0.025165700632350206 -0.14207761803076177
P 4.700918844870568 1.1281648010994516 12.66103974822937 0.25130502230072205 0.20600347015044523 -1.0824007494499488
P 4.1552716330236805 6.001178574856924 8.326799339461429 0.23213179180638085 1.4830457277708005 -0.33044486315668253
P 4.825478485909867 0.8832146939340692 3.7487702946907393 -1.005675688683068 1.0279589255613006 -0.1787448915448083
P 0.394318555141094 5.672782553920776 3.6725383470585973 -0.23694978202031447 -3.2756476481747328 1.3448646165809677
Ni 1.2600243426702489 0.7962536112084837 2.5322215182342225 0.7488934453178586 1.0720289192973216 0.2569758474332542
Ni 1.8871916333149696 6.777238508312602 4.95737601952804 -0.18788722016570866 -1.1595464426940159 -1.059947048432123
Ni 6.438005708148779 5.811733944335061 9.30216736259578 -1.096441800924047 -0.42743253082734134 0.009877921235344278
Ni 8.575754893907291 2.2933085283113694 10.043213101531855 0.17677156986852136 0.47783052366391904 0.3449132319761866
Ni 2.547402959451089 5.100016256828005 7.108926268782097 -0.4656962022942302 0.4856191664704024 -0.5564044647140804
Ni 0.8257661954390443 0.22151896423262282 9.253155812335857 -1.736610492639977 -0.6336064651173798 -1.1882834056173923
Ni 1.3261666880064409 1.1591373654363117 11.411948069477791 -0.18243056792651163 0.6462025566148355 -0.05314367390251493
Ni 4.05677272733908 6.813195267436147 1.548989141293077 0.6307857078391329 0.38278095355623754 0.13184077079410197
Ni 5.616255814860894 7.847990089246735 7.885558796666083 -0.6760312099404938 0.04976910100332719 0.8600586900404802
Ni 5.194245580045608 2.840583970760077 5.00871774869368 -0.31984934702902335 -0.14150040537105307 -1.2171396677274522
Ni 0.8432579149653839 7.463754804393695 6.927891449318639 -0.853026465784047 -0.5560182850192553 0.9952393238410924
Ni 5.06439418955039 4.553012186146268 7.033965245591933 0.46167911071503714 -0.09887845693546843 -0.015926441422269344
Ni 8.2792812384924 7.452483830338869 9.175613139069249 -0.38885441344382704 -0.1633820359354928 -0.5187488591448356
Ni 4.582465068588095 0.21598659847665796 10.40831396309583 -0.30052750677195983 1.0803909181087714 0.2970274640385014
Ni 8.049438397594246 7.0144536155467785 4.786773635359471 1.0449186933440908 0.7053944935939593 0.18134350550991996
Ni 7.347634825307167 6.172486525619616 6.980637075092071 -0.1193423812167751 -0.9785307528371598 0.22499980874728992
Ni 2.402119561140835 5.027985144148562 2.4158871554517876 0.12696904452409744 1.0090173514617913 0.7825676976418522
Ni 2.1702866606182334 5.459692396770246 11.482222502252382 0.8943852312364919 -0.02165640192751109 -0.04449062621320725
Ni 1.2763428315907208 3.2755024559575756 3.699440334890905 -0.9726593816580474 -0.08059637079682894 0.8174999907426631
Ni 3.5213743225581 2.5006365582765664 2.3728593526535566 -0.2973897324739265 -0.5773332444469477 0.5720601689734663
Ni 1.0577166903939998 3.355792316078478 8.152212313181181 -0.6479375370280712 0.5034595370859328 0.3356929989294993
Ni 3.6267751168493074 2.586968963075338 7.24553029341209 0.06734979019956787 1.1690494970884449 -1.2186483910624948
Ni 4.078229188380854 6.868808388213897 5.853996478750435 1.0107111942244464 0.19037219137109151 0.4254090726394093
Ni 0.6525812566214755 7.587825976252449 11.233057991545953 0.39906812075203535 -0.4415491727343815 0.3411627637948189
P 0.2394765386255944 5.45772042859693 7.7737129229093345 0.5541709473978714 1.2794434108626804 1.8955969706109355
P 8.272515035769276 1.5131870640767047 7.887730675374401 0.7767238372665656 0.38851657048843413 0.5485204339803135
P 1.683246704711334 3.214443808389291 10.249773149396527 -0.23546137040024606 0.6197091383099972 0.7130666654272364
P 3.878743802481094 6.178682847632102 3.7168633069029458 0.528748650670025 0.2155116667511966 -0.17546287835942687
P 6.946592582353109 3.841665373387406 10.480786507182879 0.950228306348041 1.3717043624816312 -1.1207747212424568
P 6.416703024441622 8.045892473172502 10.394757134190558 -0.8191814922101441 -2.8076235690782743 -1.797510156338827
P 2.416827910910617 8.713494157095775 5.7732498094884654 -0.2351150428044209 0.2434780700571355 -0.31652156820737104
P 6.995819420881494 4.0943577170644465 1.8236788804007185 -0.7383557790113283 -0.07891666910156087 -0.619228856239469
Ni 5.361862874777507 2.9106340695406394 0.7310520213311216 0.6068129990736195 -0.09597773834890568 -0.7770804492750358
Ni 1.3289165885784053 1.2427379611142502 7.100241467666496 0.4852952074720804 -0.5899190515317583 -1.0461703063630048
Ni 6.823516440306579 0.7115639101724383 9.2879483865791 -0.6037960666241665 0.7829055405972452 -0.9685235051128029
Ni 2.7448259199218756 1.5670995884481085 9.145214978305809 -0.0634352856365101 -0.6135559742244079 0.28237500423264916
Ni 6.388851235424919 2.090150577831947 2.8491575094512207 0.3173034406787181 0.2239392286932595 -0.42449298858304313
Ni 4.2517352504560035 6.931694272346447 10.349782691250594 -0.26512547312358214 -0.8374175556021964 0.33168619176295133
Ni 8.267051417527611 7.1268377099746845 0.21947010739199815 -0.08294841596877327 0.5991032891341876 1.3018773143861644
Ni 7.508241682725669 3.8051206421020916 8.180955106166104 0.5984751686318854 0.12307845122043963 -0.08795846758885496
Ni 3.0447098138750257 8.189800921196774 12.399244690915593 1.1893948935140162 -0.1391272771531862 -0.12252386426855029
Ni 9.036471788418085 5.147108304122893 10.097798627885346 0.2260133376134688 -1.4469006453088114 -0.6526362280553212
Ni 8.431339885251342 2.2430866599707597 5.828960624102326 0.6017605242513765 0.5509982060968446 -0.821510911674269
Ni 3.4866839650137487 2.4480989841911445 11.167828359919337 1.083642849387166 0.7273630274452505 1.5894351483713336
Ni 1.1004667894173645 3.430093905874906 12.581616468617659 -0.7882598629306231 -0.3021187625184797 -0.30088951809706893
Ni 2.920222538640251 8.074703109099167 7.777194622679561 1.6122035524161007 1.0173855209208285 0.9030686179431029
Ni 5.902037422657162 8.026100425634812 3.3854034987177046 -1.118029811507468 -0.7128481216585272 0.20694809345190165
Ni 3.157645697562438 8.37315777841294 3.4094461326987036 0.5607257177972537 -0.5100855270428828 0.26875895611111134
Ni 3.546964680183385 4.478665367722011 9.707741514058238 -0.7219238587075502 -0.20929756752068468 -0.5809777831780704
Ni 7.519612159761718 6.376883740501535 11.390156012017531 -0.3581158467093897 -1.0487336962148066 -0.037615239249612645
Ni 0.732242438815564 -0.027829174702789193 0.1967327716101256 -0.9665679240483289 -0.16151078705470892 0.32690188300043055
Ni 4.672216757650691 0.4300536939882803 1.4462116074159144 -0.8980500816825889 -1.2868875258455514 1.1122653982198651
Ni 5.872846866256739 5.550357704114975 0.4264797278172834 2.0397013892637386 -0.19951143466819835 1.3497365999612883
Ni 7.7240274660947685 9.020469899892412 11.621500443359587 2.3300337006702514 0.2732707279385358 0.5281500978540775
Ni 9.188467115098067 4.570479482213581 5.813656161017765 0.16292643645531296 0.9787642090042045 -0.24558791731128676
Ni 8.025186807352679 8.796678649397693 2.4134375729686033 0.11955218323473604 0.36493338385185536 0.24365830438874164
P 8.525659665724602 1.593956347652588 3.648521945681739 -0.3788196549156444 -0.3784645855690708 1.1678109966956531
P 1.6101481964151403 3.1742898326032742 1.5252775808677816 0.7002502303888586 -0.9977186386195203 -0.49976769005664257
P 4.678223119426297 0.9943423370809034 8.258802620384275 1.0873367532989855 -0.2157314960714865 0.7195126781628963
P 8.558984118708535 1.7261324896181838 12.72585960848786 -0.20710981584074653 0.12133267217392651 -1.3840644267088806
P 6.44676197049635 7.703294663098249 1.3009643920079228 -0.606460243719891 -0.028533588663318604 -0.03731133485594865
P 1.9059343766870416 3.318270646432072 6.014841238751315 0.5196045222769116 -1.7119680115009484 -0.9631848665087088
P 6.886293775732341 4.086732170412586 5.957872163711271 0.06778739195761874 0.11300049815914733 -0.31801820735755554
P 2.418121449666508 8.536722588091417 10.353569231972385 1.0827301077649096 -0.9010433599829578 -0.7130034162894688
