# total energy = -381173.54822359 ev
CRYSTAL
PRIMVEC
9.22497268913394 0.00000000000000 0.00000000000000

0.00000000000000 9.22497268913394 0.00000000000000

0.00000000000000 0.00000000000000 13.50168000507652

PRIMCOORD
 96 1
Ni 7.690297019242037 4.091570592952656 0.029670279704990005 0.3447042012891741 0.6258885276478318 -0.5868962055450344
Ni 2.2207461287633783 7.522218016591501 6.350879875106815 -0.21731838094263217 1.2122080347537896 0.4674707776961497
Ni 8.594750242945063 2.0886352946822413 5.130017467665522 1.4374988923789371 0.44447354547002804 0.5309968232742532
Ni 6.120833963317726 4.941900901806576 6.097642381942126 0.5406744555733335 -0.8544318307720059 0.7515838476658282
Ni 5.233428489170035 4.362886265123617 8.61644830124003 0.9261260139831986 1.428110509185502 1.5888803043091282
Ni 7.827103364429053 2.7799270741346667 1.9409065818147504 0.029355056123349446 -0.9984020378397902 -0.3635622145359416
Ni 2.3613716126494797 8.877873880175994 1.3433755799221228 -0.4182722044843119 2.233289773579283 0.3968834543958906
Ni 1.9583325552509119 5.384192218056847 4.397686552148802 0.15903018672470032 -0.5377490543964223 -0.45278900731425886
Ni 1.9639505636271017 0.8507279051774239 6.276553347540644 0.8542971049663545 0.08916585763339482 0.3073530143342255
Ni 4.9221041103857175 9.057447198814597 5.158370421268508 -0.33482010940624274 0.6293217216990968 -0.4748321031572274
Ni 8.736390473828505 7.260450191168252 3.4762907435792583 -1.53792181098339 -0.02852407558162184 -1.296915856615831
Ni 4.412544293184419 7.961981690321122 2.2952045734392037 -0.559625028533907 -0.38538676661020077 -0.14974387632676792
Ni 5.559263750016334 3.728383417631493 1.3643587028326007 0.14398203414232624 0.26824293570664126 -0.582966274363009
Ni 0.7250118221740777 1.7212968816446819 0.9625742417216551 -0.29662791460723753 -0.35539793355759436 0.8935233974568288
Ni 3.88692379850702 8.112625494562792 8.010398037056087 0.2583709280085679 1.7088436069393538 -0.7630872203197374
Ni 1.5253861363488845 8.177781476764808 12.852884175533132 -0.8711630274837577 0.29694647428892085 -1.0638484403690582
Ni 9.026792614522185 9.201402897846519 6.901532333214085 0.9908046851085065 0.22812986973583937 -2.3753493938879156
Ni 4.340202057246686 5.929655629018621 7.201107786763732 -3.331059292175818 -0.4300589127065948 -1.0439007936025377
Ni 6.02966355809296 2.109160858946645 5.826717848613776 1.8883765416030962 -1.221444208640077 -0.6874659341399967
Ni 7.918485944025991 3.762626516305411 9.339908483005445 -0.30044908812554066 -0.11233535377132266 -0.3341979024412115
Ni 1.4490587122034106 0.3273011090088222 8.631961937834838 0.5456796220974086 0.18039631110530222 -0.928598386783091
Ni 8.56745354871658 0.5461027015700991 12.901516386629352 1.4809117121469333 -0.5363022946475667 0.6763718811093641
Ni 6.7565914070974715 1.8264062206238367 13.228676353555818 -0.5672426929801649 1.063066310787395 0.4775834406501195
Ni 2.858210192493198 3.8060576877916197 8.782613122054672 1.0308529592796438 -0.3368145141284522 -1.3847570819005313
P 7.564099392663588 5.807655365020084 4.5908814654808054 0.7990834359086884 0.5929946051332884 0.2709395087021979
Ni 7.026080534673218 3.7811225865751323 4.336145836749132 2.340293687835363 -0.24784457455594736 -1.115942075740504
P 8.677719647436769 0.9284658276492022 3.070970350431213 0.5929503821589143 -0.5591722572672048 -0.6382948717319845
Ni 8.040366283379388 5.771585721750951 7.57730494108808 0.6562442571215537 -0.8743738211115716 -1.0386434018583404
P 0.9952638549923706 6.817448552019843 8.12266503235558 -0.3690340362837903 0.13857269020129684 -0.4390865701265018
P 2.1509868851825136 1.1508891444937173 11.729705926542268 -1.176789803155496 -0.6047509743382682 -0.9883202281237559
P 4.059513812809373 4.631499020292568 5.2700571657849755 -0.8712270479524737 -0.33770591559447 -0.95387310218948
Ni 2.474183803835726 3.6301743582342585 11.007987419623197 0.4644872695877936 1.0696635043889386 2.155042876851237
Ni 3.9064807406375985 1.0338888157002626 2.6220398213265192 1.2666850827557474 1.3886517889692471 -0.17486098310936982
Ni 0.39641368200319915 3.595045662180843 3.3025512976780984 0.514600641304417 -0.26353010361200424 0.4873245791972833
Ni 1.9534248697728611 5.234249511740612 6.814514088202985 -0.12547857602150003 -0.648242984083632 0.6060419252355498
Ni 9.019929234831077 8.278112279883757 1.3633725532506389 0.4121910312872385 1.3068847949030846 -0.05963108139907149
Ni 0.13585894049040803 6.89851761213471 5.586887008278506 -0.699853252060756 -0.5262893904962549 1.6960420842993114
Ni 2.0119388716286433 5.866584490647506 11.941345250296855 -0.9191673232771782 0.8234909182187753 0.58869494931667
Ni 0.306941594253074 6.134560722699944 0.28790217309113986 1.2749902601873333 -0.8677786843925571 0.581874583960727
Ni 5.5833040288806215 2.195285204102814 8.654941344838269 0.467953116649207 -1.7218449042950281 -0.32810001707358977
Ni 4.4573776605215 3.122828534481706 6.83968073623432 -2.9313013444456093 1.0559417839274716 0.4237877349859024
Ni 4.858746997860806 3.0483737797949626 12.282384188655138 1.1543242750631282 -0.12224052870017656 -1.2680009733536937
Ni 7.384276999762003 6.778759016503028 0.5194868103271065 -1.6546198125987825 -0.681048460649427 0.6481740785189095
Ni 6.026231868247406 6.5928665915628 3.2729151503721097 0.8255053775456427 -0.6270216128110104 0.13270234746344886
Ni 4.565319066120508 6.953166350427892 12.576747532627532 0.6227682368512952 -0.6548831151079689 -0.2922603816671612
Ni 4.055279550338649 5.39647988169738 2.683985513027855 -0.5030412186015917 0.0923699663929893 -0.1552558072839326
Ni 6.899024985633381 1.7981224543161232 10.57635186934228 1.0879666735735005 -0.8153397498665506 0.09414659867743785
Ni 3.006501628695578 2.058626458479047 13.40049885012927 0.5116132765413189 0.06661754001923365 1.3852031682990145
Ni 6.492286714180869 5.670996619396317 11.743815522291662 -0.3344053904663273 0.3960277912638147 1.3787368438483802
Ni 2.862887253653671 3.342871808368821 2.249028972573822 -0.41624000454563154 0.4752699620255944 -0.8152641594336087
Ni 6.6966936593362245 8.707608558994824 2.5007139028325795 0.744695090965795 -0.2880036632733362 -0.9858913069672892
Ni 1.7708257600876414 7.19566320787436 2.757636772592159 -0.170226569661152 0.302451206157234 1.6467689490957962
Ni 0.890916498758492 2.6142096644961255 9.698418597166135 -0.10080575586516832 -2.0196724956373213 0.1808503679235853
Ni 3.50905969161522 1.7402634255222615 10.102051742806784 0.0025849871183568386 0.37043683016858786 -1.2809462206604518
Ni 0.0924591339113899 0.38577267599016996 10.504752243707147 -0.4212431141871777 -0.2497021965899764 0.9981228160364747
Ni 9.091109124208218 2.4566102308363145 11.86670784115059 0.01874308493545804 1.1011818867121939 -0.1321156217220434
P 7.678452154291252 2.9242886719655243 7.065645520099557 -0.3205540864055318 0.28768098982659485 0.3289726494865302
Ni 3.650801397198397 1.9847528770725988 4.89389967884325 0.5880272338256841 -0.6528514293899207 -0.20772713770977125
P 5.329691079326914 6.134219398709929 0.9747373682306963 -0.3853178610454783 -0.782443256248846 0.6633482151561866
Ni 8.580746734381751 7.655232897997542 12.093953973724286 -0.6625414029841751 -1.4615644179685732 -0.2887361705639866
P 7.205847577738586 8.550700998287745 10.624107708031705 0.07940723558473421 0.11337227967626927 0.01207570021761146
P 6.002200814355822 6.752412494462967 7.878932028566896 2.775103227853066 1.3268591811424824 0.8753328425907312
P 2.928264635200562 8.90473700068743 4.030818612719101 0.04528381153846395 -0.3447761921776901 0.37249088448413914
Ni 3.7139555603238397 8.95708872077754 12.783809424926838 -0.8101893160138628 0.600931600592178 1.807947806732383
Ni 6.561852233334969 8.646410090082439 12.882817366960163 -1.3309235810198432 -0.04762274408428573 -0.0048527001066109975
Ni 8.1171088312965 5.034003029274356 2.2921400375072327 -0.3854955242739232 1.6332871125592776 -0.11966505466351648
Ni 0.7455604488702394 8.893713158307223 4.613996479582971 0.36378924294508314 1.0069962072667045 -0.6747299746305669
Ni 8.143916601971718 1.2561737579542311 8.494487704624117 0.12006588964636097 1.7856458008010732 1.0487326677735422
Ni 9.18476104709012 4.570475825861542 5.589560405367865 -1.4698485123542364 -0.5393842760070001 -0.19136540852229625
Ni 6.504694302466543 0.015323602157124304 7.447783556844704 -1.2247501330848587 -0.42332802174066453 -1.6651194265785259
Ni 5.37605579213271 9.112123612025886 9.477868872277622 0.6186565286757667 -0.22935551461282433 -0.46441682136117435
Ni 2.9647309522959278 6.508301266793457 9.351020885123605 -1.8666777164734238 -1.2300028968433656 -0.9700587108104066
Ni 5.082138936839147 3.310381454508492 3.610039010315196 -2.5887440142961093 0.44241383472752194 -0.19997937544355238
Ni 6.39845951681761 7.3465099615154985 5.801928501965998 0.31279166885129356 -0.5465507118484523 -0.055865957929684434
Ni 0.7349987776224569 7.209196242829813 10.272645473016183 0.3786481623347866 -0.11114647566954407 -0.64677539839917
Ni 5.219591030115381 6.708695348822961 9.937938555921312 1.1870891281989748 0.62149811188962 -0.3792346309658759
Ni 8.191858785109744 7.990569880728037 8.479622583610338 0.28786790902642034 -0.27254336285420805 1.5879711622312973
Ni 2.847647598748145 6.713787533755074 0.8553486940044083 0.2286065522619418 -1.034438362638057 -1.2780604144722247
Ni 1.2781199680149131 3.7218152370668833 13.293848940708699 0.07906527886428319 1.274243611829296 0.6574017677647646
Ni 1.7154851488417269 3.0460675366191863 5.404965934086964 0.26478660172692464 0.9989558534607311 0.3682426507307464
Ni 0.5694188200771918 3.303019926291416 7.549599580568851 -0.39774811638903107 -0.4164842593459537 -0.7095005453425329
Ni 5.074703608840446 0.716884621222644 11.455135684001652 0.49597068490805546 0.7707632488077565 1.067601479653587
Ni 6.589914600297808 1.5260134344926957 3.431533021018343 -1.0033850928766783 0.23567065819757477 0.6058169537089373
Ni 3.8686122276913606 6.801673848697536 4.881707954918829 0.8869120627878984 0.48527566708805453 -0.7148384126156786
Ni 3.7824786575624887 4.708121643564541 13.343440548966038 -0.39167902737681576 0.1121396928207488 0.4375552210836399
Ni 0.9249049881858045 4.867953520618502 9.37580930927411 -0.8792188079086986 1.9416485135533592 0.20230622380451613
Ni 1.714867075670619 1.680725451696435 3.4507726240879344 -0.6548301503828464 -1.5753619581077192 -0.2758132918547314
Ni 7.621128173914171 6.168988320827923 9.769437972018245 -0.09726251859860024 0.01997541468066237 1.3307142932225147
P 3.826444877465477 5.606495610256221 11.031628257169439 0.6712980661308827 -2.3677386714201933 0.8675825092213509
Ni 2.89362486270041 8.668005751180402 10.268486855321626 0.22428915583351053 -0.16169102138631508 1.2453487831718164
P 5.10789506062621 0.8683374555703772 0.7440669257896071 -0.33814763111757895 -0.5786661043257583 -0.3306821759784692
Ni 7.482439934295721 0.10688237873269135 5.0980990621127855 -0.39146202627000326 -1.5157799847790283 -0.3811745283010661
P 3.6250083735205214 1.1996523502023195 7.817445740506175 -9.795903044499258e-05 -0.09528071228188106 0.3801579141110937
P 1.2750111522139675 5.169499428337532 2.088061501380108 0.4222142198511954 -0.4059453074878428 -0.2182781737527402
P 7.013995820432153 3.68711088975781 11.461737996965262 0.49728349018220813 -0.4046792962912256 0.14388793176662318
Ni 9.031478900655362 5.032296409324282 11.620612321852642 -0.58869494931667 -0.14206861916969726 -0.43631646358053244
