# total energy = -340861.9933626376 ev
CRYSTAL
PRIMVEC
9.28903148796057 0.00000000000000 0.00000000000000
0.00000000000000 9.28903148796057 0.00000000000000
0.00000000000000 0.00000000000000 13.59543653232129
PRIMCOORD
 96 1
Ni 4.647933959331431 6.184553366156975 0.4217387363595869 -1.0146169570367558 1.2249342240712067 -2.809837803120774
Ni 5.417167921347778 2.8453417223937767 9.430216105691622 1.720001937549018 -0.15840540865650782 0.10448603293023295
Ni 2.7391030726542382 0.8036637561284037 12.40013859881608 -1.6365884090183684 0.9005378811014491 0.9858182876375087
Ni 8.11681118949965 4.055591018298738 0.05469938907547858 -0.10773924976020799 -1.3552107357019822 1.1954560121064313
Ni 6.876883438937188 4.009145862340209 3.501763187296214 -0.11547672761378176 0.15287290887405286 -0.31679616202499633
Ni 2.249682597225645 3.3376510865229907 6.9787274480199315 0.27372195654334147 -0.16407571956840775 3.2332838384965417
Ni 5.682787768274604 7.472133846732886 1.9822012284480004 1.8931896467210232 2.3051783321894685 -0.2820001373917337
Ni 4.700073291410476 0.23543792677873604 11.236872293775647 0.3197251627463332 -0.35383881660059063 -2.789132452252622
Ni 5.985991035403072 0.7186616894993425 8.442833890653663 0.44314711334912066 0.9349212436773254 1.844495781059746
Ni 1.0180499515173769 3.284257735233066 5.040114069535892 -1.7241036184222176 -0.9527053071336238 -0.7323597093288936
Ni 2.4047722620023637 6.5427476979403405 10.016111530174154 0.16121202486736752 -0.6261392102060571 0.5652683428626135
Ni 7.321540073052952 6.665576557388266 5.766708591672951 -0.5041154255023771 1.0121651530621536 -1.0774482905406797
Ni 7.627056308948155 2.2845721983816913 5.138123566542698 0.8092063832753031 1.8592048051351464 -1.1588612437015333
Ni 2.4667393890822336 4.840096147594249 3.84227399039993 0.42977686268980175 -1.0320654915305065 -1.2530538651255583
Ni 7.364566865532933 2.6952124002734283 7.304107348215479 -0.010056870015369777 0.1659621379578432 2.036228857334106
Ni 5.156034676486545 2.57797553760291 4.161848246100661 -0.895751001235767 0.7641714545228516 1.2969063435341341
Ni 5.8245848294159925 5.151873190512661 10.333985893166801 -0.5150675536385064 -0.3945838597284366 0.11042913788754531
Ni 0.19298984094199817 1.8966901229096338 8.899259727289316 -0.3851890487770979 -0.06153909705506175 0.6360261303024659
Ni 8.499714344252954 5.231034314328378 7.241024608489485 -1.8733188759390254 2.886528153994977 0.26731836700984285
Ni 2.5059298116800397 0.5272463393443385 9.9320643759516 -0.11751535531036535 1.5279492731517104 -0.1389706969706639
Ni 7.788694740715027 1.3152896606207698 0.4431880382843547 -0.4965808076882286 1.0806691114708227 1.17958947738782
Ni 4.004371300307673 8.289438545166309 13.24313768642888 1.2938793837823523 -0.75431461633343 -0.41231418712866413
Ni 8.559582150283497 4.8179882533579885 4.853882927688978 0.08117744011127956 0.80969206466247 1.0260802204813488
Ni 6.0892200390364986 4.179664607926352 5.924197613206488 -0.5238990358872074 1.0342972090745026 0.12266887448684678
P 0.4645388764784904 1.5171403084165362 12.966375646587604 1.5392317880440651 1.7066304013381188 -1.2097446608149618
P 7.495746564022203 1.7943621553018032 9.937815215162384 -0.5954777765664584 -1.2894609429996824 -1.1546970850215146
P 8.198238836926143 2.6186150490666225 2.4470559319870087 -0.7167343440868108 -1.1476975137752297 -0.47893712646453646
P 6.114857765125606 0.6872935600680713 5.2489398508535094 -4.71654219649878 0.461948819436656 0.6039637025502824
P 3.482485660864067 7.543919479782388 2.2777930634179846 -0.7423183632035022 0.7650713406293018 -0.14786748523966148
P 0.3221157346347809 0.33794238597920917 7.520669034709549 0.1856498461947577 -1.627244248799307 0.5808376580557802
P 5.583107174556409 1.361939175265516 12.655583240975512 -1.5461166880893566 2.0664349486038414 1.9223714104913021
P 6.699007780647215 5.674139680235126 12.88416400492853 -0.535497282247768 -0.43462647747261923 0.40832820589772256
Ni 0.23486572245732695 8.762686817290144 13.228073664545294 -1.157621457757161 -1.0958424767771513 0.9534874367152868
Ni 4.327369492905666 6.2556516108982905 5.955481212453915 0.2369274134228113 -1.368141070610405 -0.1262085122089891
Ni 8.213407824862198 6.243139285883062 2.31645865575346 -2.364668774245618 0.06134677853859757 -0.60726191368558
Ni 3.8920390461063747 8.271975166525904 8.9924565772357 -1.052961104032593 0.6483810523233929 2.2805993572985237
Ni 3.8217396580475453 4.2705113329812345 1.0585296916445923 -0.017937815425343298 -1.4925662656667262 0.7560606524902592
Ni 0.6185231465433969 7.112453269958847 11.464283568701632 0.14240826189730313 0.8511562453445277 0.9515403402912451
Ni 7.5162567448934885 6.831125671286846 11.243071793192993 1.6202143385357195 -0.8990849507050064 0.7910055439965602
Ni 7.653771562655501 3.989768943274311 9.458970301745547 0.36299194385476835 -0.512191260531976 -0.6110982567125347
Ni 0.21038448075158642 4.227976859154413 2.8043984596100957 0.5029643426170692 0.18181273183685462 -0.554062189734149
Ni 7.487915910727594 0.3102415660624234 6.674924109476479 1.631292964947384 -0.9410301847885406 0.9714147106176689
Ni 1.606203539482611 5.471666667349515 5.815556820000774 -0.5150788664924162 -0.4457459844245485 0.941466758105327
Ni 4.082891480971162 2.7911773815149408 11.51704712367676 -1.0165756234250234 -1.4872898477591354 -0.04421448973368514
Ni 9.210464565886321 6.010253984875808 9.558434461036974 -1.3423243666576172 0.08441600165323528 -0.6038418322604375
Ni 2.3840112772889017 9.030368829141528 1.121685814717 -0.005352265450848847 0.7163286240079598 1.7013722382629732
Ni 6.187312208420911 5.062373374980576 1.5022276977413715 1.1571830846681619 -1.3266110696874183 0.005144006094784689
Ni 1.079924188285329 4.078702127903702 9.025493016669003 1.8613478196200783 0.8878988521811998 1.1597829841848541
Ni 1.8065307861629374 2.87018988083159 11.031853157440391 -1.2171679498622263 -0.6647044720737649 -0.09068743648424382
Ni 5.1725041287894395 7.907659363187203 4.415675667929617 2.385755676822904 -0.051694600160814196 1.1666300890136747
Ni 0.8954598201710785 6.792334677030283 2.8773377903336073 3.144336781742172 -1.8860345237334806 -0.26012030659950686
Ni 8.710928335489958 6.168074624822888 0.03136627162503286 1.0454285431009738 2.366668835394782 -0.7105076464508085
Ni 4.457824646961981 5.945890287748478 3.2482757440088745 -0.19652484123604866 -1.9166082827552797 0.25801945820642014
Ni 2.791316716982816 1.8747029860788662 5.365411297353831 0.7155482941985096 -1.3580440913857192 -2.3104035851441505
Ni 2.617463209198851 7.114060272355012 4.493359835785851 0.02939387978108486 1.3969127434264588 -0.5908613608403696
Ni 7.789948759925907 8.754633227246934 10.076393626995845 -0.23455531364620896 1.3041216303356507 -0.5430398704817164
P 3.449853294287605 2.38329602188714 9.026635567505583 -1.7214222149353129 -1.1779156892298228 -0.5661198922296314
P 3.723461708039298 3.93133164804729 5.652723818822648 1.3185486043942583 1.1913044518319031 -2.3174021279491703
P 3.055979793696897 7.965650784917021 6.487878319594055 1.0516539551853954 1.0606667002069667 -0.04904662101500585
P 9.103575683963362 7.5491027591873605 4.526831930782044 -0.18563133425199643 0.013404189221047884 1.6939090971167086
P 1.6355568780484013 4.570602774660481 1.272633500485338 0.2711035450838879 0.8061352005491472 -0.38994481829452843
P 7.726690457510391 8.471902984864986 1.0078923959092467 -0.059023786832375774 -1.227132774384422 0.5104153995784758
P 2.0320034402792118 5.838053924643965 7.909580334837648 -1.257010792890777 0.017651651643492184 0.6104202568089035
P 5.15491999274354 2.527573254356714 1.8010827693690021 -0.24743062694698034 2.7125737418602767 1.4534327900003743
Ni 0.16929909579067182 8.87877184009289 2.882803456286807 -0.013804767093576224 0.22211708788285614 -0.8846070688038055
Ni 5.9016559212135755 3.4170072799937334 12.56657388629035 1.6551980536997557 2.2838155502429767 1.1855966028138485
Ni 1.6085443753429207 5.002514857981224 12.391682793722271 0.07540994149988303 0.02909100382868538 0.052473387308367696
Ni 3.5740662193830945 4.383661021927402 9.808495180717694 -0.8747522874969129 0.45454507077341716 0.1680943538094976
Ni 2.868489988123508 0.8213630761610798 7.4665046938307125 -0.8895615845956035 -1.186357392239273 0.31973596137961063
Ni 4.644645642289567 0.7201497922962539 1.0096898234448417 -0.7398986980184161 -0.46846245218545773 -1.3110127010285293
Ni 6.908447566926605 9.225531374479267 12.384422486942833 1.8806868862683224 -2.9377789817501534 -0.7288290704678158
Ni 4.076890766821319 6.155320784996676 8.361804742665294 1.8951897078701876 -0.9174503405860716 -0.5708162692640364
Ni 0.7462770503291646 8.061095580411799 9.17744949122476 0.34259872491039706 1.9877972441952798 -1.1323292588492755
Ni 1.9325550723408098 7.216202459339009 13.508424986039046 0.09084453088739838 -2.0318232720672427 -0.18261928689855
Ni 7.824503955959053 7.479472181374334 7.992471004676834 0.5268910286359958 0.31998690104815214 0.10227745531468836
Ni 0.4545754616222668 0.4965665271243727 10.985901249038141 -0.671174910289457 0.42839823717472025 0.49361915395674344
Ni 3.023013021997533 2.6709587398318844 2.9063511503577812 0.2366494771710763 -0.10859748399544523 -0.7946482829554702
Ni 8.13581654731788 2.4903706844339326 11.911151921144139 0.03270520354250497 0.2908640155402668 -1.2837538653125762
Ni 3.6514159821164287 0.05461857450411074 3.932588453967528 -2.39354149141591 1.38956941568751 -0.9404306035313288
Ni 4.6184041291729985 2.2358976749371533 6.765742038534667 1.6609012747321201 -0.02655589611165749 0.87381074951925
Ni 0.662840185455906 1.2878498624804708 1.4850838617739595 -0.30706222256668403 2.0781427239590724 0.3977596863532569
Ni 0.903794867859396 7.6051992185540715 6.596695604392409 -0.8568059874311372 -0.016271226356197786 0.26698669470203695
Ni 0.6502730551566471 0.6114291134222912 5.461572277153488 -0.45824206000903017 -0.11997564392539982 -1.5338201301101906
Ni 5.174148287310371 8.345739363219238 7.279254545262069 1.2905472340853257 -1.1541787506241994 -3.977961703071155
Ni 5.6820725128728435 0.7270840540808623 3.0287508565646495 0.5846272070051995 -1.1309776299173877 -1.1164341848855739
Ni 5.378274747748105 7.201795171960673 11.15176526109412 -2.790487937839252 1.0517118050065244 0.8855511778846298
Ni 7.632685461850328 0.3610061215250954 4.0318900552131005 2.917113482981002 -1.9076292191851212 -1.411713041664085
Ni 2.1431745655815466 2.900202740611991 13.611886215452262 -0.31676762277990606 -0.7806982485332813 -0.32421276620404166
P -0.10011996489356227 4.328400575367945 10.880617511705111 1.5079923704138094 -0.03917744153040995 1.9909615008558745
P 3.9900940593660206 4.923604538007683 12.030832727921196 -0.18576091785132526 0.13900463553239287 0.1501907340561994
P 6.563917400026238 6.2200467543404825 3.706333663424912 -0.10942332233085027 -0.5158831075612664 0.709486918495778
P 5.706335462345578 4.554012564952094 8.098773748731595 0.6295371801440125 0.10658173911699709 -0.2986135775786986
P 2.887356010473862 8.191058415814954 11.384329161622142 -0.579841355580782 -1.0199527674273725 -0.30551596112548673
P 6.0749520871260385 7.66819742809622 9.167117301830226 -0.23179420596130404 0.18378245396871576 0.3538146482308745
P 1.6641299379940881 1.1028309392040754 3.4130390058686366 0.5810184066080186 -0.29132347167518857 1.2143847306901343
P 0.11674640182359643 3.555627492467558 7.304256901617665 0.24798238568539227 -4.069718975580811 -2.354842275073499
