# total energy = -340873.49244406313 ev
CRYSTAL
PRIMVEC
9.20896525030343 0.00000000000000 0.00000000000000
0.00000000000000 9.20896525030343 0.00000000000000
0.00000000000000 0.00000000000000 13.47825150028903
PRIMCOORD
 96 1
Ni 1.5458629252609477 8.189219551991792 2.4343604535273626 -0.12855515806429474 0.4636889420562143 0.5728620960494716
Ni 5.004658124371897 1.9152989778787863 11.21704531463299 0.3698868712023888 0.6684878503755971 0.5045005767559375
Ni 3.166557900863959 7.12245303567077 9.91510024777842 1.0204088811281846 -1.2209395010895165 0.24037423432083116
Ni 1.6482942439853845 7.983086077360147 5.443973645905025 0.06606680972208623 1.094444310878044 -1.2735221602822389
Ni 7.325059476671968 2.4219946552010865 5.097461470092072 -0.830288400756583 0.07840656223436175 -1.082640890485213
Ni 4.7786332851403435 2.78643023977367 9.01196322770438 0.994330695983894 0.004059514781354299 0.023546676971688482
Ni 6.851773924705442 4.579305235712093 2.0764190311380455 0.46228177729604253 1.1873408391984648 -0.5525629794808032
Ni 6.371765828221352 4.900302131943118 4.399530581864855 -0.4917821007480046 -0.6485988247611539 0.7852167052289251
Ni 0.8823956679960909 7.127066727182139 0.4499362209743664 1.9866669872455789 -0.053466347349256316 -1.8041775410566734
Ni 6.517801596659014 0.2134278958814539 5.493330936111566 0.34980861239527494 -1.1351901253368386 0.2036503965372364
Ni 6.661194392115114 3.982794521842151 7.064086614914187 -1.2781599161645665 -0.2865592175173258 0.45625819680978197
Ni 4.020385517349941 8.6965230210102 2.1785842107713074 0.163862318006021 -0.7664440526071121 -1.1031863187367323
Ni 5.687281870822277 6.856940154122362 11.126026666347752 0.31323261304345407 0.1571298843781939 -0.5166564953921812
Ni 8.608034075435885 4.65931272443617 8.255321503426117 0.7814351266993058 0.9297584685294633 -1.4768385705188243
Ni 5.058641077744427 4.615478050595631 10.817711435945679 -1.4112168187539569 -0.8585558802427085 -0.2338210065833457
Ni 0.08393787502557702 2.4508002980105834 9.015184523693753 0.3124332570706103 -0.11453930340117693 0.9967516467205608
Ni 3.7439692211319526 3.493577460265511 7.046806912814525 0.08406041808602942 0.36476266260194595 -1.3400484261392471
Ni 3.0607100560901865 1.0198928839999404 3.909178054892304 0.31137653367132184 -0.33238167516807915 1.1379090669298983
Ni 4.754404497981843 2.8051520658068245 4.9506429396215434 0.4427033409434828 -1.6471692698580083 2.0867016692726774
Ni 1.9102156291476986 1.6336704074184145 13.00547422222473 -0.4598551701324209 0.10667866970617756 -0.11515199728451136
Ni 0.9223146898792779 3.3159365236302167 6.968498478150025 0.6767089527338087 0.01154348186322528 -1.0630750525381434
Ni 3.212851368384209 6.120692603938062 0.13754694441534907 0.300697713801237 0.3079312554351987 -1.33797148900556
Ni 5.285706530031438 7.437629865963303 6.734812700857979 -1.4596494603340475 0.8266518324452602 -0.28806048465320067
Ni 4.634660324883413 0.1369630960284814 9.746797201746974 -0.19688530989926092 0.306648274957717 -0.26023934867587445
P 1.242243346159566 6.282834852322593 8.105267863518575 -0.8708758352606422 0.055987056888580994 -0.40783044032569765
P 6.696989639429856 1.6030413895205924 12.917771722269318 -0.359140174208846 -1.9986989787094482 -0.24974436268182146
P 2.6926829751315084 5.403332641158582 11.479884833615031 2.06347766574773 0.09792920564832167 -0.7371350192303499
P 5.76901143601866 1.9175643832915537 6.760650294218147 0.3147189677809935 -0.29874624650182097 0.4531322495862906
P 2.6467026124244053 3.10304366862064 4.978785536944377 -0.3622157278103762 -0.3467716253411641 0.5040519192542933
P 6.981325645627438 3.5266652718430445 9.574787547265773 -2.1816877331322746 -0.19338963804117662 -1.4331087337310415
P 2.524287839449135 6.8965847488457905 3.7561729416725997 0.5177265885279083 -0.9391705058719826 0.9179244520090125
P 7.122710886693362 2.2528628023113084 2.8298937923209793 0.2531862984838349 0.5597088464969651 -0.5592704734079659
Ni 3.835073512792552 5.096232073252216 4.306287968509765 -1.33057313965896 -0.6627586612013037 0.907183925663057
Ni 8.47227551204151 4.575759784151462 10.465457470397519 0.8886557849518825 1.6730286541232735 0.9264340321419207
Ni 3.7780976457649436 3.111930319934951 12.899778325374985 0.23933139487861366 1.7568147355019936 0.2575301772748274
Ni 1.1527598323552555 4.620892922070049 4.813919276685469 0.9469205821310466 1.079386130993341 0.48538776718588655
Ni 6.745124899968617 3.5602779944308525 12.038827574389915 1.3492023247243732 -1.2514047595579094 -0.6289154873996137
Ni 0.6471323949836912 2.1580749246136888 4.64858151741382 0.7924703014675448 -1.5657815135081359 0.07065751441656219
Ni -0.07795388950843787 6.458284055265862 3.786862738740033 -0.05201881626945235 0.30860694134598465 -1.3541141602036935
Ni 8.337069486552686 7.378388593522927 1.612861829895288 -1.3808279220494541 -0.5006215534165056 1.8845769653513478
Ni 5.018812303719146 5.47380885101187 8.483278383534087 -0.2281784635855877 -0.10339408541763483 -0.006120768185757201
Ni 1.0532017107396945 8.862634333349622 11.453831750471698 1.2549598238990194 1.2231624768827645 2.1255651791070944
Ni 2.553820990500943 5.674481409343632 6.4281827110678424 0.46621865045660354 0.2675554227213134 0.3905503130890112
Ni 7.568756319916126 7.9484972044725275 9.590207038416738 -0.198331041206852 0.5000826501939001 0.9319413351133949
Ni 6.532351761505242 9.098696944532055 11.482513072252445 -2.0336760090052652 -0.6862405463733279 0.8754233454220084
Ni 5.775089352979744 0.7607056405736042 3.4473189868126126 -1.2105540440901346 0.045112061847290046 -0.746162933760573
Ni 0.7678812661737194 5.859425055297319 12.042521290288539 -1.5121364744891699 0.7096013325864554 -1.1587684268774108
Ni 2.4565282742981496 4.6083503116139966 8.806028666718733 0.005913537270957558 0.3851368553829238 0.8518136764228684
Ni 8.38821607867671 0.25061922230422734 3.380695807954049 0.2565223048356034 0.3036994767420383 0.07481678800057437
Ni 2.171934417077977 0.31863387578827573 9.191817078651413 -0.8406710295424876 0.8631825803814425 1.79250241871159
Ni 8.546601069303481 3.8786503356104998 3.699510179458138 -0.9543037619689951 -0.15153362123733902 -3.1003704034635513
Ni 6.8018429159736336 9.240367663515846 1.195791484439724 -0.1023353051358173 0.6368213725102517 -0.02646667883196087
Ni 4.015449512060334 8.400620554656374 11.82197670618356 -0.9994991275587108 -1.3905718888100955 0.797517119862833
Ni 2.645947477286816 7.8892467230670595 7.621223477634421 0.8972836358302094 -0.5022032960813286 -0.35555219974727154
Ni 1.998354634048497 0.9148324057415808 6.92993685772148 -4.025036030851139 0.7960901576083192 -2.3886929050743575
Ni 5.8397823327549085 2.772699672820677 0.8968491387088486 -0.08413163764359703 0.024895991910731316 0.38409118772722883
P 7.91127456756844 6.6234192173054725 11.176732149043843 0.9700476550668133 -0.658248432035776 0.5142232033603402
P 6.343319335050464 7.1944303068341435 2.281194183418539 -0.6273268027562551 0.9222511044088247 0.5518572116630301
P 5.354377782726585 7.578057374659601 8.922764270921428 0.3728678082075836 -0.7634098937664788 0.3574198490836296
P 5.830536531801988 5.2229382239606155 12.869613439317828 -1.3418741664940759 1.546340888285021 0.5606123321478409
P 8.282598458030252 4.354422308152016 5.6757319868032 0.8747486879524871 1.3028296509971047 1.7941252990269938
P 9.068049508704046 4.793689943066663 1.7149183437404576 1.0363780028629312 0.8376754372492735 1.5612093207564208
P 9.055313509981051 0.3977766426901618 9.70254812447727 0.33177875147675767 -0.19163640279549576 0.33054153663554686
P 3.447698396174426 4.135939611331262 1.574610551590362 0.2459447864300732 -0.16220498490825613 -1.2878092663288725
Ni 3.9678759983922194 0.8368002400298562 7.524152697490359 4.038984008390798 -0.05495527318995697 0.2556692128066887
Ni 9.231066608772371 6.5976801598717945 6.076642440314357 -0.5636919995144292 -2.589037120056496 2.626901499202437
Ni 4.5799406543034795 5.995819037283081 2.1594719246182286 0.16546514371676663 -0.8622523552576893 -0.9498182153938157
Ni 3.5069949224053567 1.8840069144943004 1.6317982248150993 -0.990661731772739 0.5405692974540368 0.5950694853844462
Ni 4.553299118290731 0.8495307133737976 -0.128186952295281 0.7013342074816566 -0.9321670779709559 0.41276155907872786
Ni 8.027574587722256 5.118499350846003 13.439986347565585 -0.15799197526817307 1.0246339749531257 -1.5979930652436736
Ni 9.094691044716795 8.608402434039586 7.73627384122518 0.8917948448014965 -0.6883956450431176 -0.5474025183257863
Ni 8.557090080543896 2.7954273986690916 0.8143183935494133 -0.19370202707527284 -0.6194679688334687 -0.3145163648518841
Ni 6.614919342525048 9.067404881147569 7.786385345672801 -0.6094787188312407 1.2971128031179855 0.6683284419795974
Ni 8.177275524266754 1.5299037887555584 7.034164845535473 0.34025979236457526 0.044957795657612896 0.32124031383927903
Ni 5.410045976711051 7.356894868996915 0.09627696735308512 0.5248436591886638 -0.3408786568954968 0.4203954214749018
Ni 6.957078440538753 6.894650866176355 5.1990335923733735 1.293075399823818 1.1818451061912163 -0.17540888519303982
Ni 8.001476380649969 7.939849986250624 12.851054611966811 0.5132675243152902 -0.1505748568684955 -0.1141541521476163
Ni 0.8345596988228388 7.304891843119283 10.021403015427767 -1.315425228273928 -1.5372666938978945 -2.1102059230422046
Ni 1.8492246533397383 5.6822721938119285 2.0960700417490385 0.00055047318683131 0.6595147003427093 0.8094454958693027
Ni 2.010482841075386 3.339898250801032 10.979585703446018 0.6088428850194546 -0.5565371336372028 -0.18493147997149442
Ni 4.720257655418668 7.211936549475082 4.092927298073487 1.2882918623922457 1.8623253530419992 0.9819989138914185
Ni 1.5646492140497503 4.285419532713537 0.1044858388365844 -0.3024645758936726 -1.167784514333092 0.593895519681003
Ni 0.36927029124617256 0.29481672936941294 0.7168111084599634 -0.47059235404426697 0.12213305658803482 0.3508018295464797
Ni 4.985834999722724 3.5276506311079467 2.9878726675871694 0.08707992163864357 -0.4395025746179979 -2.3541807302301008
Ni 7.339959582191715 6.639820384135304 7.757878994228812 -0.31731475353262767 -0.5897303325597198 -0.7873201247251731
Ni 7.032923477040997 1.4173426084293166 9.840565647008846 -0.04436361371703973 0.2882391763229101 -0.9829083130795654
Ni 8.450164786854296 1.0754229435080183 11.827408153795147 1.3297987233867807 1.6186667915429416 0.8041423384888343
Ni 1.7093128466886223 3.449475726437288 2.715355447189367 -0.37899191882745054 -1.8351058552044137 0.10603229437143029
P 2.400316751373223 2.4702588412511424 8.464435920058222 -0.27170466900299656 -0.5021513597974707 0.619784471632623
P 3.688015549229617 8.55948441146796 5.638464225970158 0.442430032677438 1.2946823392996218 0.4108026355801441
P 2.672681102950489 8.52196708768091 0.2894156713426323 0.1549038232611526 -0.20988403615177403 0.3588573528611046
P 3.0028593373787857 0.9536067532637637 11.297685459258926 -0.18902004821857124 1.0195935843157409 -0.8960924437355858
P 4.96365060281477 5.450372034851329 6.295246695474333 -0.23052485233057718 -1.530693411555751 -1.568697658713666
P 1.3689955416934279 1.1200219614512392 2.5889835819138276 -1.0128598651363332 1.2918196730398461 -0.22427887142086536
P 9.341205831279272 3.5476248763936886 12.003083897279692 -0.02204798093897493 -1.5300745470248294 2.3198068807359213
P 8.65246733200744 8.545928814851726 5.440577379578892 -1.0726148737077785 0.9175655260076973 -0.2688697706573627
