# total energy = -340859.42141923466 ev
CRYSTAL
PRIMVEC
9.40469835373463 0.00000000000000 0.00000000000000
0.00000000000000 9.40469835373463 0.00000000000000
0.00000000000000 0.00000000000000 13.76472668216759
PRIMCOORD
 96 1
Ni 6.641259311519259 6.791809720572681 10.019028151764457 1.418885648153124 -0.34055058413211675 -0.16489770124907085
Ni 1.6007360646768272 0.8250591270366178 0.9689585335111675 -0.5161034511021886 1.3329748071219172 1.5531062320333122
Ni 0.5793265887411323 9.379521839604287 12.847459164472209 1.7897616227416595 -0.8164692354853036 -2.1071607084579775
Ni 6.455074500922645 5.0040518271579515 1.702903063284457 -0.9940530168424752 1.4315935826380959 -0.5248182052673671
Ni 0.7110299825682258 7.745192192897298 2.841121712481409 -0.03222209325849935 -0.5317370438743875 -1.2087193048742408
Ni 7.605805160627137 3.5399848369666516 4.810056414692343 -0.6834282737355134 -0.756462001693736 0.1589322276942553
Ni 1.7497911267137884 5.238398097322441 6.458794999537185 0.8008166165497111 -0.5326924658091213 -0.44035720930880934
Ni 6.131092052054498 1.0397364113506378 1.341233167252405 -1.185023761029514 0.5106169740663206 1.1073152533034414
Ni 5.877917576060114 7.603397557883653 5.880676914516902 -1.2935639094244624 0.9129339407729568 -0.9020247500596207
Ni 3.180791197975064 2.185839959532497 6.513235035634551 -2.627673858592088 0.907825673012114 0.7650965374402823
Ni 0.34180905433796077 2.914309074004006 6.159715251077117 0.3587971890471305 1.0177264492000149 0.45276021095885255
Ni -0.13151812127222398 2.6649999289766977 3.222019514017567 0.23995874404996737 -1.198094221060227 0.44079506817717634
Ni 0.4907794740909715 8.421672135626723 10.781814069558994 -0.3235599631113912 -0.08953789626083289 -1.461455660304851
Ni 2.35381727438152 6.227114020847316 4.189363260844923 -0.9920079613879884 0.14517399756789837 -1.0103193581026664
Ni 5.126040167727162 2.9640599275705104 3.2791022703138344 -0.6415082364629596 -1.2857541835720565 -0.6194067765782301
Ni 5.137589137137307 6.970395535010176 11.73020358760035 -1.1696074264744438 -0.1726331222201156 -0.8960003982424116
Ni 0.5846552907507317 0.6056042560284989 6.7271938010048125 0.514748736846507 -0.06832912339370167 0.6943035258871204
Ni 8.89057157931647 1.878494421809745 8.457502154892822 1.0162305813807788 0.8790208329652797 0.23894135852904658
Ni 2.6370961893676585 7.708579702739568 12.402995948158994 -0.17144990054529183 0.19688376723736414 -0.053822188026778274
Ni 1.66892953144634 6.15996447557986 10.714435990124871 -0.6534450971098617 -0.6793402197090687 -0.013378221079118893
Ni 6.728798242520586 1.038814750925398 12.988230568319874 1.2010484185925443 1.1521066985865192 -2.1135167325829927
Ni 2.9603920952659855 0.6242669391697788 8.106501888987651 -0.5830943153004409 -0.3866720610805276 2.393372055717581
Ni 3.9602337767812523 6.100188213714321 5.8320461605080105 0.6567412513626303 -1.0596541997820523 1.0673225149605876
Ni 2.340368555931595 3.3728445402589173 11.241500670875633 0.9260774201334502 -0.44487977976951126 -1.0020031249274874
P 1.3686751361790028 1.8600047851156531 12.774244529324786 0.9729069788924793 2.8008798225965377 0.3715840563991536
P 3.6751209456428513 8.02351483192322 4.913346334267051 0.317801206250743 0.42513936391779045 0.2320330614449875
P 5.240993794030259 4.874163540086687 12.202113475189272 -0.20333080841428852 -0.9317824409380275 -0.6187087220699409
P 3.861362184428765 1.0259491237649108 2.6864341766824484 1.3429853972803838 1.828281633193729 -2.2465965179905183
P 8.834190413507171 4.9320964811017465 0.23616043645049728 -0.4392876303937145 -0.49133087214319887 0.8810064959367409
P 4.053349693825101 9.180885208568723 11.509513879716375 1.2245519010311234 -0.08355622475610126 0.6404507417327228
P 0.9221024460557729 9.019604038850012 8.541384539227485 -0.31386356175923363 -0.5725628196414979 1.5675182936935843
P 5.271784775991835 4.06143773429149 7.939549686244251 1.097155282051304 0.5255620254119271 -1.1602725222267631
Ni 7.653769121532462 3.462113935732123 7.116308487372927 -2.249887015816332 -2.148805123471641 2.289555280940231
Ni 2.2498859543884318 3.4965351312053565 0.7456458552945457 0.3339060822324056 -0.34397297955010436 -0.5299395856543325
Ni 8.467698728699402 8.701452502876238 0.27258389217407275 -2.851149003164735 0.214992561022933 1.9116596805007529
Ni 8.45565131028377 6.734158920504123 1.4147111339498986 1.4384126624424582 -1.651373280637027 0.7699829189983062
Ni 7.034629623830445 3.3919831011299637 -0.17112130546287602 -0.38745316222092624 -1.2866795235998034 1.7122510899590062
Ni 2.732422210492439 3.143915376267264 3.4150011000154117 -1.4523030472713052 -0.9684402013703772 -2.2015343355445567
Ni 9.493572614878577 1.637875217934696 10.980865447785916 -0.5357963015454256 0.2468271890350265 -0.41267517001250864
Ni 6.769840345538398 6.0965109767115795 13.452515126594674 0.5923214903256638 0.49069503833141304 -1.7855905220831054
Ni 2.5664010728724955 6.173394384633352 1.5850499685211425 -0.1185481674502539 -0.8383495804981627 1.2961504392047163
Ni 7.22647606275353 1.0758410478046658 3.4603420905880906 1.272142763436209 2.434152580069053 0.5506678193406194
Ni 7.517212903425536 9.32333817245754 6.655850700802517 0.6109596742521414 -0.6462619490978612 0.1167396534866054
Ni 5.013954974380168 8.446951964433294 2.4255375029823067 1.1791210223918338 -1.3869150087837987 -0.06316069181888477
Ni 5.238924760422578 0.39439824582627425 4.1574296080500135 -0.5418697614330152 -0.16487533265156767 2.266349275137413
Ni 2.374084399038574 -0.028073024176940468 3.550432516215617 -0.8695635442071218 -0.9212460601830779 0.952422228675566
Ni 4.796386685834325 2.4118348576805304 11.41252698888652 -0.20602532452731614 0.6484191046501802 0.7036070626762334
Ni 7.509322361621699 8.232223894748904 3.2757024719084864 0.09059770498391494 -1.6488291740589345 0.12459977296097254
Ni 0.8347440852602068 4.61228031354361 2.358750979066017 0.5088071745510915 0.8194751121911629 -0.48734411958130913
Ni 0.5131391441012482 4.610465206787781 8.49166660210474 0.8177419315501401 -1.985088587014865 -0.11314010906080516
Ni 2.3730404775365175 0.9095932569576997 10.994424201204977 0.20502182296346624 -0.2637314209895329 -0.3672509762414385
Ni 0.5155843656375981 4.18492142187716 12.344509070418967 0.11536642728816261 -1.042283826824405 -0.0338197767629224
Ni 6.35148175006536 4.4366287649497345 9.72126882293402 0.49099225785685763 0.2678780961680548 0.6131181153560409
Ni 6.358318965668923 5.290443697253828 6.2870388769446794 -0.8388805133009681 -0.34606457197181045 -0.1730007899721795
Ni 8.78632990428223 5.2532010923155745 6.642527064838874 0.05454081136035768 1.3139686983330596 -2.2857803872788307
Ni 5.82243926127962 5.36358403528534 3.9940145123059265 -0.2830283215459319 -0.09489453258705594 0.061276073201662215
P 7.050796300065004 3.3601764117609814 2.66410742311593 3.1040380821231253 -2.1850422514268044 0.5098772676868186
P 7.876237257849222 7.110422086759075 5.41782375131069 1.233312935053205 -0.0007818724713470405 -0.164158251979885
P 1.8378285067206026 3.0063058319600637 8.6542691319229 -0.04162538885027024 -1.6109861350692318 0.5144579450789656
P 4.010859267281913 4.421665890086916 2.069636448836397 -1.5040812082848614 1.8045637207514988 0.8117664306929956
P 7.723580196395252 8.102297988884771 12.024286619897868 0.17135476972832425 -0.06519237753693288 -0.4893542080328024
P 0.5693754775580098 4.567372879558722 4.661851537374175 0.1756019750404524 0.12431926560607622 -0.39627050340224007
P 8.892245615599048 0.3772976830587932 2.2144970154686967 0.5085055841502726 0.2895537813692755 0.49285630764879
P 5.185477860456899 8.861915463850092 8.693580770468833 -0.06318588862986536 0.12905472340853258 -0.6964447405998393
Ni 3.9430890119321527 5.264430301986351 10.313111184061976 0.3162158640414941 -0.7958528447865325 -0.07264394871897167
Ni 5.546035180689912 8.593928588164358 13.24278189213319 -0.2001709226290682 -0.8428274137638582 1.5747245816340363
Ni 7.883121496943868 9.35986602033132 9.172827263136629 0.7030092811912344 -0.8273043784275946 -0.274466805129166
Ni 9.165630788061186 2.745043315499291 0.6729682284152959 0.9128830329303633 -0.3896134030970387 0.2662575298454963
Ni 4.205583543859317 1.228432276371118 13.424971586927336 -0.6279148140492412 0.0649874606149784 0.230556476899461
Ni 4.922870472151134 6.644945953220217 8.172682750338783 2.0621833724163383 0.026281559404348287 -0.21447808328035964
Ni 3.9500202745178834 2.78074354993 8.932921875856229 -0.6716346235346949 -0.1258408444569252 0.8090413184523485
Ni 7.706802214776606 4.549673237514835 11.941189527864301 -0.09625464615937616 1.1569848526144266 -3.7147475880376732
Ni 0.5094797760251184 7.329147153185576 6.715700319314146 -2.002396225055377 1.2178855447545411 -2.2485312731193856
Ni 3.477001573009207 7.6273701336381 9.793809141219304 -0.33591077136726016 1.0645446951051345 0.47803595480650574
Ni 2.5656581017133737 7.988284832403348 7.0899489992110745 1.4438631440340683 0.2730275015794782 -0.8542330844976384
Ni 4.8183842749632575 3.75451540798849 0.33683961180024036 -0.4792166053781682 -1.607211498518148 -2.0748607107736916
Ni 2.46237570589724 5.313099615257932 12.750996115333027 0.38733951946119743 -0.06741021112385809 0.1043929589957944
Ni 6.214257798385046 9.010331006408316 10.695715938324469 -1.0746946390549426 1.2697470095105228 0.6636207520912828
Ni 3.3399375011985772 8.728378153870736 1.0264250014946774 2.611632488858509 0.7595879489172273 -0.4931039048832218
Ni 4.58682179547092 0.6200536343686835 6.440873406615384 2.502382973101361 -2.357484597792353 0.6436142270623689
Ni 0.17513240925231158 8.931942846771868 4.761618456996895 -1.0472005473997321 -0.12350396879363246 -0.72560644976546
Ni 5.276919741218169 3.3419877254098243 5.54802427436275 -0.443963438602829 -0.14503952887256313 1.507058288635314
Ni 0.006044399543892676 6.704411860044605 12.705641017713024 0.2517184556890568 0.33004119996036063 -0.16399087316408534
Ni 6.138606405929665 2.0880499074749337 9.54670539792382 1.6633137408283547 -1.207849757785094 -0.5690856597261746
Ni 4.258851754558878 6.140600201951612 0.05280361860765492 1.5339551130261582 0.8594323693103908 0.4554074187737125
Ni 8.371911877362 5.289418585148204 3.5206318489762634 -1.4451916330375045 1.8563933038282803 -0.09688713753705248
Ni 9.746088761997791 6.809264840462933 8.818220295465341 -0.2482083856532693 1.677828132394446 1.3187077556799418
Ni 7.253796711073131 6.729165025751039 7.698240177520094 1.6307694883437462 1.6133458935506604 1.1297897802568735
P 7.500387898315805 2.366889804902775 11.386401677710264 -0.9561248743381339 0.12812629805699224 -0.37103229766074164
P 1.2810797769883753 1.5084947845671348 4.860999783992729 0.34789185498853636 -0.7187729717833944 -1.102548170932101
P 8.547629258843394 5.361844166115245 9.808853836956606 -2.300437989291006 0.34865470129648984 1.8564447258915062
P 3.144799417899637 3.765603547186015 5.295372699589215 0.6856455931018062 3.4191676550789762 0.36927160621589306
P 6.473601756409605 7.306425402293955 1.357562544766114 -1.6304421869113146 1.3204206246059904 1.0987599075342627
P 2.9730602237639214 6.11031707369374 8.055434377670803 -1.9600203311923277 -0.8841285865054903 0.9380284218477394
P 6.543149499722327 1.6824534874819983 6.168483251224575 0.23707088097921108 0.37270248627431296 -0.7992338454436235
P 1.6502141819950464 7.818953241011116 0.7042943377054034 -3.784683908017495 -0.4750856139289302 -1.1872148551435617
