# total energy = -381166.8274172248 ev
CRYSTAL
PRIMVEC
9.25757657919814 0.00000000000000 0.00000000000000
0.00000000000000 9.25757657919814 0.00000000000000
0.00000000000000 0.00000000000000 13.54939909384005
PRIMCOORD
 96 1
Ni 4.671595217763488 7.967931177990961 10.083029091987088 -0.1493839218841879 -0.1258246465070091 0.2813123672960897
Ni 0.896442595595491 3.728711064553948 4.085062025978392 0.3706237493684133 0.11604211319894855 -1.0297838945851814
Ni 0.749874795002029 5.858888644697969 8.6964237488529 -0.7236274716622183 2.3284740694926156 0.12182195310551923
Ni 8.346084657522658 5.401406993258049 6.932184276221332 -0.33063769589377895 -2.0791842778497096 0.2312401332300469
Ni 2.8185802165388636 8.991235897120298 11.433836313058967 -0.018940031437612543 0.9217240282607608 -0.520043152476227
Ni 6.798801115892976 1.102531057697499 1.5870003957690977 0.18613887001603427 -1.5987561686619436 0.8527618992687508
Ni 7.633334595276651 0.5810499293015826 7.899096468897298 0.020558026657009756 1.3799493760992427 -0.40053287822301986
Ni 5.977302304037225 3.367869252832775 2.7162747400821265 0.19370099863400836 0.7797803647047021 0.2909311213327764
Ni 7.336545954454415 4.711662008289664 0.7057217102664612 -1.4653598804552634 -0.24314999729375544 -1.252296161023927
Ni 3.193160271592024 5.901741965711292 10.260269094607194 -0.19789755321385918 1.135433351695896 0.8173295266030698
Ni 5.747982879794186 6.683044380971698 0.21981744785762655 1.178029589099868 -1.0355760757869261 0.41375297645771975
Ni 0.7400978685984494 4.293247329128037 0.2609303445135281 0.2957660808275745 -2.0698154350403 -0.4326788668279452
Ni 3.752197535802771 0.6490570110678331 5.385127545212699 -0.5341165998501576 -0.36235996669772436 -0.4347074672221998
Ni 0.4049652722123593 6.969658945364113 2.986598747337547 -0.06055410743397313 0.32141334908203356 0.9003753873816558
Ni 1.3382474672116995 0.867876492192853 7.018439892526676 0.3261791459017931 0.6516880052094388 1.2286664374201293
Ni 6.837710709372993 0.3397715679047282 5.647118807978144 0.27137865312214554 -0.509979854702954 -0.7320838299596876
Ni 5.261774968880439 1.8285564844570301 6.763724159029835 0.30014904038661855 -0.17006690415483616 -0.0794889966652631
Ni 8.28304056244797 3.07547796078594 2.181588604753092 0.2541466055145752 -0.8814484685701659 0.7654426079257913
Ni 3.040993488810431 3.212258651641816 1.2338581103142416 -0.2197136206476861 0.0642500682283216 -1.6381701516831915
Ni 0.18185860747073326 9.142338058619425 9.268547523019238 -0.3879247025407061 -0.8143812426080232 0.23434319763540284
Ni 4.845563592894698 4.565707059251847 12.458794435327855 1.9213666233758717 0.8575338667360973 -0.21869932045055882
Ni 8.62229370607602 4.347089393291677 9.879598480060695 0.0273591087392432 -0.18672816686060098 0.5836648430919303
Ni 2.328965517521228 8.010997423260777 6.866266629441625 2.0904786198166065 -1.2578330316817563 -0.5665369251623921
Ni 4.248357341313476 5.204461313578326 5.4404360094732285 -0.41314285367754655 -0.502012006006129 2.376052076381895
P 0.9146716892242087 7.3596806378012065 10.541987326857905 -0.22765884363669175 0.37925237157768876 -0.27990340276370507
Ni 8.219561361283926 9.083663539591031 3.242384656662675 -0.12994766753644718 0.2642561831447513 0.061103809289856044
P 5.089806230244991 3.9139366525501824 7.373474426591409 -0.7006842326024836 1.5828387261007386 -0.839904069469476
Ni 3.780970083158443 6.6442181056790055 2.844168157623509 1.4002721468169947 0.4357204818677463 -1.3903703143222508
P 8.337438081193765 2.7467136511842667 6.838124523036699 -1.582497797821552 -0.3694988917353508 -0.5157591803888923
P 0.26229676278563147 3.1430027228233515 12.011948813378583 -1.396609353253427 0.9944975605790615 -2.145025601824551
P 6.349484646810747 1.312881707959916 3.699500633836009 -0.42936214374988635 -0.6833807083270296 -0.3152714978503538
Ni 4.029915569304322 1.1708890016081446 9.846930344568836 -0.7880665159728943 -0.8507566959132639 0.46340252116404707
Ni 5.928737058404066 5.541409320690429 4.1639874933145515 -0.449368154558168 1.471181372233047 -1.5515106054114183
Ni 6.386875997766204 4.617392108121448 9.153445298747268 0.008148854359379515 -0.02262467937805136 0.7119644335019931
Ni 6.428914652059032 0.46241408812946416 10.031581962830177 0.31198768489275946 -0.66193539396906 -1.0910160019227857
Ni 1.7114851736913173 4.2338970070246855 9.742600236160142 0.7997179841688937 -1.8649509635903043 0.46218818914097176
Ni 1.1268507108195556 5.4670154369870225 11.707764294794941 -0.1705970656266933 0.5855672023209657 -0.21262843166613057
Ni 8.721164621699758 1.6494501544408788 0.23983695675615999 -1.7498172211382381 0.5836288476476723 -0.5622938336153219
Ni 2.3994064161149575 -0.03599160540842467 2.345197751927095 0.4751285513517236 -0.5316707094128263 0.4569994458511807
Ni 7.241757630009521 6.762678052900108 2.0795210480090454 1.1373099998933187 1.0354539483867653 1.3429740844264741
Ni 1.073499298203487 3.12755182786305 6.238589990998607 -2.6840828335094358 0.6421543546873909 1.5891291870951405
Ni 5.514914137121595 2.5910937924169386 8.978712247807957 1.9224940521120955 -1.8185096414086293 -0.9782798131686183
Ni 1.8449423946306274 5.08868606350431 2.269930878772068 0.2670116344027014 0.10909936333252825 -0.3272363835217138
Ni 3.9173804709595488 6.592995935627867 8.154366731218659 -0.16138043212443173 0.33176358196810607 -0.3885533372636405
Ni 5.527615531900226 2.167689279592279 11.294195956862627 0.8360013919809602 0.9528104652529203 1.4480023630134222
Ni 0.35991883135715746 2.624624734026413 8.518466284064175 0.20279679028768946 0.1781046868576481 -0.8091055960313808
Ni 2.327725002287746 5.314487608727029 7.185463233865664 -0.3300370861953026 -0.9797396855435966 -1.3127908759748745
Ni 7.85171156425122 6.593338465953531 9.814154821191096 3.0325323607736547 0.5421605532005567 1.446725810293844
Ni 1.5631417699502304 1.9075606411923292 12.95640953184381 1.4611607547722514 -0.9602666644206495 0.38626916921515414
Ni 0.08625191327479598 6.466704078798368 0.6178487953694072 0.5628234808665468 2.4013828418372 -1.1388243796553161
Ni 0.4491239114937487 1.1068728610146839 4.858177966455457 3.526326349745365 -1.3019881289324158 -0.6483723105726447
Ni 6.696717821269102 7.9462036462522985 11.664053722209825 0.2035012725538818 0.3338862847380637 -0.3531374196581918
Ni 7.647035808303162 8.257785894112617 0.20376573619095967 -0.4004757997328393 0.7065363205078864 0.16529545090812178
Ni 3.020080623792264 3.203352863174584 5.660396949764579 3.1635292955102225 -0.7265186771670843 -0.3924087064539887
Ni 5.916692951547653 2.5617380177500024 0.23279656992733472 -0.5957323157794256 0.9932315493824443 -1.1568485841468785
Ni 2.740103741656612 3.8862657567824526 12.061389825736274 -0.6972762353621992 -1.7717045081296325 0.01684226836831938
P 5.542122154070863 5.504295697026049 2.077787103955082 -0.5680567042410282 -0.9453406392384364 -0.9892375977317027
Ni 5.526439819701329 8.55537068650261 7.392145106612942 -0.9069404421936832 0.8286632064483341 0.13983098808843017
P 3.5016042010631634 0.7832983487256199 7.657944010539065 0.48935215115027336 -0.5803825727962327 -0.8187904274193125
Ni 2.993881682667247 5.543936639039238 0.15993666662831607 -0.08330091421218558 -0.5989690775491684 0.40796310924882
P 8.95761237974713 5.063320304252527 2.005690024948891 -0.29406966696175807 -0.6824391703493666 2.729561791777841
P 2.564681927035428 7.364152047187561 1.1406102465771928 0.03636105512753738 0.6545768967214598 2.094982421224231
P 3.6610196661418892 1.7118925070515647 12.114964345942841 -0.9991674552509051 -0.06897704139034572 0.5218272409598432
Ni 9.118666435843217 9.371629710133357 11.75742286019731 0.2049529173987438 -0.6464966908164865 0.2977072637143453
Ni 6.096410281604176 6.724305398849509 8.72319758547045 -1.014129475877376 1.7116821048294133 -0.5927462365679083
Ni 4.876632019189949 8.492993136926508 1.6110238064473377 -0.2556334744727468 -0.3295053820615486 0.6406104072390386
Ni 0.31431415864688905 8.270635410113156 5.997898559943564 -1.139549944967431 0.7263019331705879 -1.7546349542418556
Ni 0.4220168021269067 8.933996302429138 0.9776824570239674 1.0493553889592055 -0.17196849205292317 0.4386178580201995
Ni 4.113298559662284 7.223270250000102 12.463468585636697 -0.10525145034134777 0.0751695433543028 -2.010959027023724
Ni 1.5168353729511717 1.5886093625420759 10.267327996588758 0.7447781375979045 0.6102945298643166 0.9076876047723528
Ni 4.435221520327071 1.6919239148230623 2.2918130120360973 -0.18938694463968675 -1.3279930376366096 0.4516664636740415
Ni 1.8245572114655082 8.439456572783055 4.297286409697947 0.9582545190866271 -0.24011840955628322 1.1156134887564915
Ni 7.679613219546602 7.143840244751816 4.777151955041111 0.6075570763284955 0.9664190571752905 0.7088991643131082
Ni 8.359082294745104 1.9347779157179656 10.236597471830988 -0.9487918310118305 -0.2872660137763633 1.2941974292434035
Ni 1.83560150007404 7.513356405530989 12.818002284819855 -2.238461547588209 0.26698155249571437 -1.548644853827849
Ni 3.4663791229781133 3.813501206520037 3.4459504292040584 0.643658450036743 0.1256996908933706 -0.018768024636122514
Ni 2.4306137060557464 6.060416824680478 4.4067118881402845 -2.7738606136952164 -0.6959125222454531 2.4126324466090905
Ni 6.068517204003584 6.378451603270174 6.517125468493565 -0.02014356482741047 -0.09576510811746732 -0.6897063934347412
Ni 5.256331513975312 9.216083911976982 13.099815870107168 0.03023823005925115 1.2876727407510082 -0.7997709488940161
Ni 2.4935467102140034 8.829543068254733 9.07109175088157 -0.3479440483827105 -1.5368157224034047 0.4202882064730762
Ni 3.028218033420847 0.3002444940808816 0.3089725370818237 0.6493220760804237 0.19399050484996913 -1.4260975925205313
Ni 7.329982332808608 3.655326256674792 11.848027685880934 0.2553573379932247 0.2341853319012999 0.3909169523998106
Ni 8.208489299946287 6.019433534093746 12.174351698351671 -1.3863809906571996 0.1545559530034306 0.09434611628275365
Ni 8.445511027728553 7.525817103324019 7.582934498007104 -2.0296450334690013 0.5037017350037262 1.7641943157955164
Ni 4.115696271941923 3.7538361268201306 10.204201509084383 -0.5405870380658497 0.8326928964330176 0.20953925121784558
Ni 8.045426349778069 2.2328996475373746 4.670531522238661 -2.378656603884278 2.644356204343775 -0.5694307017704193
Ni 8.034308000558584 5.012236997846928 4.070483194712074 2.3306931886311215 -1.4190735957942142 -0.32166583141247185
Ni 2.9162291320818605 2.758091212542092 8.327555618419575 0.08608747581838723 0.5398902691091411 -1.1521313811768674
P 3.9570399281254756 7.737852632485642 4.944595590347263 -0.6252701773375424 -1.0417297540931478 0.4663405207464485
Ni 5.748973440465698 8.140723840923274 3.797313408480742 -0.003909619467051332 0.525471779690966 0.24219611802091834
P 0.3986858581610875 6.162453831422505 5.458538274305688 0.6173221261350593 -0.13273062959822304 -0.8369434441792553
Ni 6.61195545203212 3.948865488191416 5.750270426915032 -0.20823390214286075 -0.6745129735237545 0.972314596724119
P 6.987868598082455 0.7981937891037657 12.162414979381142 1.801077304864795 1.1283391638532763 0.732736633052338
P 6.0874859779842065 6.068683840378231 11.193402242626991 -0.9377985652251204 -2.2682215524594613 -0.4217398513179381
P 2.6370021136321187 1.6929792785291584 3.6882276830911565 0.09896356045010699 0.9844540603001303 1.1570424453252397
Ni 1.1412925299556074 1.9600233264769484 2.176832987772201 -0.3598870796771996 0.04996656172611394 -0.5947735514105821
