# total energy = -381167.32678979303 ev
CRYSTAL
PRIMVEC
9.31647921083419 0.00000000000000 0.00000000000000

0.00000000000000 9.31647921083419 0.00000000000000

0.00000000000000 0.00000000000000 13.63560904920365

PRIMCOORD
 96 1
Ni 0.04917796649452247 2.2024715544091387 10.327460538753112 -0.7500707534554113 0.43873921408941213 -0.22305194099229975
Ni 2.662705621174836 6.083912387000062 1.41248536869327 -0.3190407350847989 -0.3726058127954486 -0.1529623832640656
Ni 6.1178523203042605 5.09672894674581 5.646287551676206 0.2466477260343688 -0.11008255318140396 -0.26126804705070483
Ni 6.200685135843002 8.809168848747062 8.452904825266623 -0.06209496955853176 -0.3279526928624481 1.525689530583256
Ni 5.363627439553576 1.3438275760813305 11.057347049543903 -0.7391409939167851 -1.6415390681554247 -0.18526315227930032
Ni 2.0601809693542297 1.2724633462953943 9.402079825800552 0.18054517797834066 -0.18962348613052504 -0.5297043297150748
Ni 3.8483766483206505 8.818140618105268 8.188278621707525 -0.8160578589794978 0.017400969085266806 1.2345110691263643
Ni 4.556149564356886 0.28565815509196574 3.968998034673326 0.3923027770037437 0.9462582659566994 -1.4568004209210266
Ni 2.6657148439190737 2.0002946418001835 2.7837369326072214 1.209949063516284 0.8144920571542745 1.480033166196722
Ni 5.787061413936187 1.8495912761321283 13.545600668216828 0.5851766517507664 -0.13769620113361447 -0.5233290223163503
Ni 2.5916767846359354 9.106252733788045 11.347130541574407 1.5364454835481798 0.36998920110820793 -1.2775258821249933
Ni 3.43683050124964 3.371093424830637 0.3788835030492724 -0.5390996548870457 -0.5476056354755279 -0.2648354526869891
Ni 1.5367066425641287 4.781897169049186 12.858215935008731 0.7844438316186426 -0.5686938236043948 -0.6526282576355212
Ni 4.888216828359512 4.931575722017965 1.4444884059958376 0.04635236201229436 0.45710151864668375 0.15971692837907978
Ni 5.475350656732812 6.148093611411982 11.413263568354497 0.5836535302380206 -0.7140678529982412 0.09040255825397334
Ni 9.23048798237753 4.428308838361767 8.76563760022555 1.3613240476885715 -0.548621735444868 -0.7054641704896302
Ni 5.841916842784698 3.933557216588642 8.016128721187352 -1.0493404765608703 1.482792216999098 1.4700310606786877
Ni 8.327702526148185 2.476785964568029 4.656082777254907 -2.3111142380579293 1.0901356562003612 -0.812877147258671
Ni 8.108616204001178 0.8157425237923962 11.913976805093679 0.431538839686231 1.7095550311840817 -0.22321006383671882
Ni 3.6139833510380965 4.603309581481743 8.765569589928234 -0.43598093461798465 -0.6639200284992565 0.1413109150680663
Ni 1.0703982314354508 6.862434645202668 13.319331340695808 -2.10933689017369 1.147867977914823 0.126970072965362
Ni 3.2864532123495365 4.04345440386735 11.43304897498588 -0.07304555503276453 -0.1417893973663816 -1.0240117679880945
Ni 5.584968349638991 2.52901414631476 4.7364103915678735 0.2703245008260183 0.12028186231190897 0.4141946919808286
Ni 7.269359818647852 8.358223311628437 10.716007093908647 -0.8127100255531875 -1.8235564598039173 0.531096324966595
P 1.5845001802667202 4.0122814648511955 1.6579401215926441 2.3342063439907026 0.10253096608639117 1.0245745824701
Ni 0.9053269917235484 6.739839096932023 4.190140503754243 -0.39679757955030376 0.33782752877399885 0.5690499213922329
P 3.4081823280653385 2.6282439650419147 4.8920477645589875 -0.15403324773074117 0.16309432949174493 -0.05607884527143891
Ni 5.059481663366674 0.45009866916985924 6.455533694603102 0.4498762045428381 -0.05612486801802593 -1.2660585049153423
P 7.977086152288667 2.196648754981435 0.05189558344342033 -1.9452102627626886 -2.97113158906867 -0.7886272735723708
P 3.723274967176323 1.1502125077508705 12.510753189319258 -0.26888622571759496 0.6073233630511347 1.5799202669023629
P 4.797315941933745 3.1770218490250453 9.983706683387107 0.6857967739676899 0.6419090714458041 0.20961612720236805
Ni 3.1784845362412844 6.166698620143381 5.7140295343941565 -1.0898764890017036 0.22359238687680202 -0.14327266678012743
Ni 5.691157578242136 6.58159869968475 8.896893747452982 0.5849226267584313 -1.3238594750842103 0.26598653557229673
Ni 0.16260144110664762 7.786601420930539 6.245013874974132 -1.3680351411601601 -0.48273516005438794 -0.11038542913380343
Ni 1.6072044397952223 6.0199361251279955 7.443869583320086 -0.2205332883355041 0.3666159137606009 0.5876248561809428
Ni 0.14752365135657466 3.4482711375651927 0.3140883226656945 1.3209543856222734 -2.173313907246283 -0.9007032030347197
Ni 5.361084040763556 1.7233064021440911 8.444287082113624 -0.28747478735305976 -0.5666940195655465 0.21227670475366667
Ni 7.719681151667827 0.45147564477852264 7.110465404568859 0.5956024750697807 0.8169618588510059 -1.140047710539456
Ni 7.594048431215692 6.271080451804168 3.8586592462860207 3.3658938833564997 -0.5385859484754209 0.12516464432550703
Ni 3.0922605223158484 6.7474227109066645 9.295135030743667 -0.31628194139273913 0.6346338779406296 -0.15218693855062176
Ni 0.5241898323837775 8.39606684966897 11.24506851320562 -1.8409363458432617 -0.07046133924535607 0.430856983127858
Ni 4.45514961460371 4.631603728460841 3.845132650303488 -0.5585305099181478 -0.91892281136654 0.8099890270775986
Ni 4.994508538232586 2.730743867927668 2.3329842466056427 0.21097906898816565 -0.48230398605424035 0.3538966664217196
Ni 7.506082235701489 7.355183223972662 1.7656339615679089 -0.24258795414269835 0.7125660716417341 0.7445806768751176
Ni 6.911774718433257 3.8131230914655614 1.0714006845849242 0.6726147280597772 -0.8853781426418751 -2.6918372806438735
Ni 3.5640377066670257 6.899132256315828 3.5695707635952063 0.33576036183232494 0.5913604119639752 -0.27151106493495175
Ni 2.9179771480853645 6.73982978045294 11.718973581379656 1.886074632942797 -0.9185993665888502 0.1986603995218127
Ni 6.88597738784876 0.4179586796247519 4.768522431675728 0.3295467768224454 1.5338694952908876 -0.11807534157889342
Ni 2.020818845222953 4.838476146528296 3.8812945638692993 -0.006009953639505778 -1.9462189065328612 -0.7188927851907103
Ni 8.571878126469283 8.607998115879214 3.618604324663922 0.2011821375024019 -0.22117246458139975 1.0872912447730307
Ni 8.970940191567296 0.3437193843933929 1.594439000153879 -0.5772411989537736 -0.9300975970364368 -1.8554165417373079
Ni 6.961683096887992 2.904039695375213 11.000336719083187 0.03333101005196195 0.633868974750147 0.1506926133932824
Ni 0.42252189108025473 2.0754786280106927 2.5770759986149803 -0.7199952742262697 2.233467693918044 1.5837306417873886
Ni 1.8680099552818403 3.705033301129213 7.1848202241408625 -0.9634098380353215 0.667421871004928 0.05323469095442444
Ni 1.8786214249588875 9.113035130561434 4.2855216849716635 -2.299864376175723 0.9520049386324895 0.25003695422157585
Ni 7.7085945415574795 5.186073981164495 10.3680393950528 -0.7410307547403302 1.247892632639593 -0.7448210750206979
P 1.2554607719664994 3.871546731803369 10.267109318892757 2.287245658970448 0.6929200152760324 1.1467114957128766
Ni 7.67376954274027 5.37422959275154 7.455446240230269 -0.8440232338441722 1.419009575325498 -0.11336610902868219
P 9.048024739511007 4.54448533254331 3.629839998439619 0.30884811082251323 0.0687852370945138 0.8863929570596346
Ni 1.1272660197661757 2.4662956091190784 4.97767925041466 3.148871950608364 0.04854114213349705 0.6911240997178743
P 4.292698168810319 5.961521801269273 13.280728509609903 -0.3141489542101364 0.26384660641115854 -0.44233695874299955
P 1.5889161913526908 8.424165350587295 9.300003822713135 -0.004447237138076212 -0.22627456169465546 -0.8298081186860549
P 3.5081108827238174 8.427761511513845 5.321337146046097 0.7670343778929435 -1.6053631324554996 2.62237661474889
Ni 7.740699128482066 2.518551740303062 8.874327371814928 -0.8786320821672932 -0.6307383995409653 -1.2932656614577536
Ni 8.911864397693586 5.2478422374935745 1.3289035082361487 -0.2541273222408656 2.6882503346235636 1.7530994914339357
Ni 0.6381844071637718 7.605395902740402 2.086029540573692 0.6005045403570884 -0.7165826490002949 -1.2498551556826025
Ni 4.7188246056483 7.977971217801677 10.489791801966314 -0.11643549198262527 2.0270983557877473 -1.3334527751996004
Ni 1.3109404049136602 1.7198220389665533 12.057846533353382 1.1708243296006804 0.16392351026125962 0.7503815998276109
Ni 1.9008971264495107 9.200572768037759 6.876219307655837 0.36552036670357696 -0.5282269738386 0.06931282746320966
Ni 7.276822318394398 1.803157944375848 2.61041501901824 -0.45323200838894845 -0.2459753825576925 -0.4896200600996794
Ni 6.933500747657905 4.237050839239641 3.11750911228228 -0.6640832935499983 -0.7644915568664318 2.5423402302205895
Ni 0.5195902866598459 1.7186481626019283 7.37818747412768 -0.6776628320066459 0.4877467543363665 0.11196537202641363
Ni 9.016674787392251 6.937096908584455 8.939014481041129 -0.16055099424460093 0.9811154828452006 -0.7235932759901732
Ni 8.000507780706661 4.411529859530896 12.473405287966012 0.16492804026637403 0.7295590066553048 0.5070233431777913
Ni 7.424264916382939 8.799768521350977 13.623718413690993 -1.081401618761473 -0.24260466631324668 -0.11580557170811025
Ni 2.752339466445135 8.702327466608013 2.3186126459701617 -0.09812229549573424 -0.21466834491429482 -1.6927166194705041
Ni 0.09741031036198587 4.816461306452035 5.892669294244472 0.0030971508680849883 -0.20231805087905802 -0.6116325319494499
Ni 7.340463187019427 3.141870773439883 6.6719303492384645 0.9383048154375776 -0.8837004978291362 -1.1709456856698932
Ni 8.74617081717885 0.19736401951399268 9.325679107421628 0.37476271123745136 0.03543108711410027 -0.8258532478033649
Ni 2.927880565352003 8.196722146701648 13.42671121532593 -0.12219861971864762 0.9203960534779569 2.3745294690897816
Ni 6.641736572174072 6.102070204735413 0.017010959160070584 0.6003844698394564 0.1853809088040872 -0.9585756498714717
Ni 5.51178740643161 4.086654917381368 12.65963984156587 -0.45422059755446287 -0.08831327982511242 -0.023618410749888356
Ni 4.118712921910534 0.8721938655080519 1.1480296567014128 -0.572137302068305 -0.8123636979573622 -0.36860800448996517
Ni 5.016253200415403 7.596079423656076 1.2233040127590404 -0.40506290488288954 -0.5573156636744402 1.0017634981128554
Ni 3.1640626266187475 1.8658485321342768 7.230063841518074 0.6968517462302709 -0.22755162863486617 -0.6497061988927199
Ni 6.220845996581484 7.588924367719314 4.764145549801912 -1.776863683733069 1.0866901208539221 1.1983245919034782
Ni 1.0677803008127553 6.109215944193091 10.701580526046568 -1.2763586012897694 -1.7718394910456 -0.5482687229808235
Ni 5.072254556191286 8.609209258160176 12.676084358797612 1.0538157387234046 0.6090647712222736 -0.2187548562788426
P 7.331388936391295 7.523634482296358 7.021547996540144 -0.25487859858459333 -0.3869299427276046 0.050452500223596985
Ni 4.034100658866686 4.163255008412696 6.3888686968673 0.46817371730044527 -0.6065605167431811 -0.19706374445865416
P 6.060779569433681 0.09114497817777674 2.0298371969765805 0.18826568655104997 -0.16859314782278706 -0.4158083163248516
Ni 1.6793885197405791 1.5957358540424171 0.7387921331474983 0.6494537165622816 -1.0347124422350504 -0.7899660469884524
P 5.6141755115683525 6.239180827419436 3.0707394556310557 0.49734751065092414 0.7039045393119941 -0.6384679069747391
P 8.529804906924467 6.6844526287757065 11.901050190364177 -0.8134160504812765 -0.14750830212802982 0.17457044845214453
P 9.239934892169037 0.5895039406523523 5.288244080690662 0.12494172968142354 -0.3417805998844759 1.1345550628560008
Ni 4.997499128018655 7.13920860583982 6.7225737978929505 0.19114969296706433 0.5045483992747374 0.5258726146738104
