# total energy = -340891.9230391232 ev
CRYSTAL
PRIMVEC
9.07460687790624 0.00000000000000 0.00000000000000
0.00000000000000 9.07460687790624 0.00000000000000
0.00000000000000 0.00000000000000 13.28160444113552
PRIMCOORD
 96 1
Ni 6.3002636998662265 2.0747001744402294 11.006957443633523 0.31039282960181386 0.019934019919765667 1.8701880436195275
Ni 4.70776999215742 0.3952862510488552 6.006698348515878 -1.1303150566327242 -0.6957356303479566 -0.4330475630212735
Ni 2.6101564350438338 1.5536180913235946 4.8017783833671785 0.7047674015329217 0.6547234496016531 0.37918218046138563
Ni 3.365445050206674 4.454189174167603 4.973496264155165 0.1437393220039008 0.17035126816447435 -0.008503409485320839
Ni 4.997640163537634 4.405195370978117 2.6475819292305496 -0.11987871333621933 0.3613078712841261 0.5775114218960248
Ni 7.294704507889919 5.97723491451039 2.6588979641587382 -0.05245307559339354 0.06608994965053779 0.19660814497847431
Ni 4.880741076172017 4.535143743208798 11.634526410044723 0.9654736625428856 -0.9530788884229585 -1.440207549559352
Ni 5.682691320525511 7.9982134155144715 12.524765320816288 0.7195201343620641 -2.6505240237173835 -0.10541471539208941
Ni 1.9107492497829859 6.126702766396672 0.5479946450946049 0.3684660795954622 1.2024576402352454 0.17656176785056044
Ni 3.269054574659586 2.0727582085423686 0.14143047246695845 -0.3001693521015927 -0.6215027398753102 0.38093747258959554
Ni 0.6681787401939868 0.004751464224859287 4.76188005877314 -0.25776389055218835 -0.6084621046412683 1.0373401096658843
Ni 8.705488285043755 2.519691677867321 1.548913815055132 -0.6238290740156418 -1.5520523368475012 -0.10269037448239088
Ni 6.6631300099492075 0.8532435529566164 4.667873482484781 1.0439984955226667 -0.13177289367064401 -0.2422241430453764
Ni 0.8781932774406274 7.5065421336827285 2.83054869285493 -1.161875862158141 -0.6194543419867139 -0.31349229446274396
Ni 7.473292773637112 3.401434941566093 3.8602189401714955 0.2573036630863182 0.7993991673768942 -0.14729001546963666
Ni 7.713043890559921 3.7217322702151256 12.705927145108495 0.10989254865778493 0.5179420469728242 -0.790001271101762
Ni 8.224053159907278 8.934749156275316 7.0515758222419525 -1.1520223664028288 0.20262684036872844 -0.8980410828215243
Ni 7.161561873995465 0.5225267605509312 0.43277980478806666 -2.062164346252945 1.1187548625989505 -1.192136203704579
Ni 1.5823755209045325 6.732705021813218 9.388301643945592 1.0326977257978667 -0.5915653288859296 0.4645371489891225
Ni -0.03536374347646417 4.81027675282207 1.3419601427493721 0.1732987808285725 0.5820100810973268 0.5180047818899595
Ni 6.369031071707296 1.798069854672066 6.8873889578027265 0.7542395401211204 1.1455395868919627 0.8234878328949817
Ni 3.8883511293301782 4.443208899698391 0.5688762232608077 -1.653820199515623 -0.7878274033788948 0.7260270822426463
Ni 5.917006747855709 5.5571350580825145 4.654153584162465 0.12153861753714552 0.009466287619222408 1.0452855897652062
Ni 5.375506798990538 2.931860327777765 9.053206353662722 -0.5487883429297195 0.14809862741386107 -0.15402681997283796
P 0.11026645710979312 5.5802299328958584 12.548698689316371 0.4443892132863379 0.09411060323317985 -0.9844394050121109
P 4.101531796958891 6.1272653920306315 12.640674368558274 -1.0932909139998912 1.9642420825831588 0.4748138483247823
P 2.140391254508519 8.36014504107652 1.3989777134476835 1.8583128894484962 -0.9063640008649229 -1.7309386390661803
P 6.57452554720756 7.834217117822232 5.7598735754370765 -0.5595412105708493 0.42586544345053756 0.2948574529703761
P 4.9495356718340835 0.7869825875687678 12.490047689358176 -0.4679847412180908 3.6093860944810228 0.29769029443348083
P 4.020232392851721 6.45139220483339 8.262857994357896 0.10314751662446751 -1.2357356855620847 -0.4995378334340236
P 4.533356045629926 0.9768179212309553 3.8089383360181723 0.6839720620541252 0.17155120200984647 -0.1635617560464667
P 0.13571982228226795 5.624949596188651 3.599195129520812 0.858763111157508 -1.6379338673026695 0.3742968273446264
Ni 1.5849164108643503 0.8996928363434856 2.6490955736780415 -0.21615444254151808 1.1615889270453414 -0.16782438797756255
Ni 1.947437885881355 6.4716830260839355 4.850946419011053 -0.5625694558742117 -0.022608995648767515 0.4087848338191669
Ni 6.107700539340035 5.6679269349375705 9.32068493227204 -0.9274071946884674 1.8273133557431884 -1.3075471110774322
Ni 8.637319837264643 2.1961365653055216 10.162685047156463 1.0396818704251836 0.5465571396063554 0.8069510115822232
Ni 2.384579854254009 5.351341120551272 7.2564713736802595 0.03718020859472306 -0.0571291409128242 -0.8104343421451333
Ni 0.6655171579610777 9.093754420117914 9.050922275080985 0.03959576001475116 0.6654354367025185 0.499168880130379
Ni 1.7461812518497868 1.1425565434670706 11.770436799073977 -1.0735738951869382 -0.31000536435540804 -1.0789174188870387
Ni 4.194528369488223 6.993835912826492 1.471628109623774 -0.28221585294696555 0.081300338842389 0.07938718098007617
Ni 5.604994535397083 8.010318941251604 7.920392308270152 0.369049462902758 -0.14244888532725145 0.25326805956436377
Ni 5.218007919909832 3.0993684983787535 4.801154050405624 0.15149968267561006 -1.345822609618863 0.33487255991073295
Ni 0.9413089840425015 7.458537462656171 7.152529010188314 -0.10224968740054649 -0.2793503584737124 -1.0376280732199483
Ni 5.056652332854403 4.760556981072635 7.043912316631002 -1.1004491223112274 0.629326092574471 0.6503132363490993
Ni 8.177645619712605 7.26944987661073 9.09380886775991 -0.4026954330919774 -0.2718622776267834 0.1568583758843621
Ni 4.530016590254166 0.27350139527478806 10.24601444084939 0.17686387247201155 -1.0314620536185526 0.2061219980061805
Ni 8.532862036095134 7.052113038976314 5.100441848929762 -0.8245085608500121 0.3101647727514078 -0.4538066499454958
Ni 7.201081787477632 6.139761125868737 7.025663281955311 -0.12271232613027254 0.13321553965444152 0.15921941991737096
Ni 2.2440232664410877 4.943020104008551 2.7757625680177584 0.7707876742877887 1.1348926487010778 -0.9677801991888753
Ni 2.1507181572737784 5.3915960772003855 11.482318934305336 0.17726882121991408 -0.6958346178196662 -0.44815382253509267
Ni 0.9211270580759487 3.2379468218658167 3.4962890861481912 -0.32814269738606716 -0.28861635715667067 1.4895639885052927
Ni 3.46172663046977 2.4693729820559285 2.5575055652336087 0.9643701450660618 0.6725224254562869 0.7243445523339008
Ni 0.9906113238699662 3.4881337368378764 8.223837184260693 -0.06960876143707366 -0.35845009012035683 -0.16316092106362223
Ni 3.732440306474358 2.783172892093427 7.289502035697192 -0.9066074843342967 0.010825886970910388 -1.417153753063682
Ni 4.146369430142676 6.986539928799016 5.949056444856011 0.11888523907469849 -0.06526565397702953 -0.059450847067465354
Ni 1.0310477726590666 7.63035607158185 11.793361071275733 -0.340053332780724 -0.38430561773088007 0.4435497481041781
P 0.24990832453717982 5.574050125529301 8.017387152643398 -0.8664411965280561 0.447314614463249 1.1782759007827193
P 8.483015219847708 1.850012905136341 7.994596277164532 0.09583761322661559 -1.0368539140580852 -0.19826162142149725
P 1.9002590040917382 3.2943727281877706 10.308371510306117 -1.563744428473449 0.7408271233699564 2.1798157129205427
P 4.001810940643042 6.188836600521217 3.5754741068245135 -0.1345167749643683 -0.41175857173551017 0.9677580877016883
P 6.78399470057354 4.169854513056992 10.513851466435183 0.47814059870517 -1.9280643471110215 0.8135479480734505
P 6.411990261242216 7.974655735744161 10.336475568183102 -0.39887503090462273 -1.5702315788596892 -0.3735707478118792
P 2.482213550960008 8.654561590563407 5.936930047522781 -0.2451631710690423 -0.5826482289019579 -1.89782148906608
P 6.798559444807496 3.793884470466952 1.6488452022533662 1.123192329545014 0.8363883430067339 -0.41711880760615905
Ni 5.609785927892739 2.8666139034524436 0.03261413755566134 -0.49483400020045104 -1.141651564691466 0.2659315139646452
Ni 1.4288331704755428 1.2493011456004162 6.959481265648356 0.053925803484178095 0.5324176148811798 0.4155234380945811
Ni 6.949560905276668 0.6875176351703002 9.19587732490649 -0.6720110330375072 0.04950273471581797 -0.9944456242952034
Ni 2.6322168046592513 1.7128865187691742 9.184774543242787 0.02380198751560417 -1.729920739324627 -0.3693898769613122
Ni 6.097791068496745 1.9366118797311311 2.454055045441027 0.40567122789084975 0.01105317249036806 0.18710740457689068
Ni 4.188212443016676 6.660471150098397 10.429499364533433 -0.37734101348758886 1.2978080294127972 0.3863663569146507
Ni 8.088360561446008 7.219430642830317 0.2566997604154928 0.8718119739216663 0.2286240357634385 0.44679525162466915
Ni 7.473991518376063 3.878114972634912 8.359813817921042 0.7802495910316368 -0.25248515865175225 -0.9994361355312594
Ni 3.268909380947596 8.35677836187976 12.615438793953786 -0.4899982693747045 -0.23434216919413836 0.3769432638285379
Ni 8.913550874324836 4.808888337951169 10.196500662678838 0.7654387512710495 0.17164607571649793 0.5979622335512089
Ni 8.621765960867759 2.37592267917663 5.791112002571636 0.2748974649086814 0.01966096876403711 -0.006677412020175598
Ni 3.8189394603921554 2.405052167644541 11.18829077799802 0.33331138607120014 0.537156672228062 -0.2503652840952721
Ni 1.1020202740009775 3.3630039809238492 12.66070293366654 0.005602948009074221 0.41577180665996133 -0.7374193832399881
Ni 2.984338780055002 8.470102054087635 7.929583070239094 1.2508537721504458 0.009727511700409053 1.8311507272114076
Ni 5.743681754168137 7.803381603238442 3.7035885009806266 -1.2364620222051481 0.4522858424255952 -0.2756831940347704
Ni 3.0344578345124082 8.195277581112341 3.6064865762447895 1.3879172247960678 0.9341116032918364 0.0625503119283955
Ni 3.3735668234710916 4.414814454397427 9.339504759727992 1.060671071082341 0.7140616823506541 -0.1441391285454808
Ni 7.14254149772483 6.074324134796428 11.58490645897228 0.3016225396083515 0.38940360107907773 -0.54020780034956
Ni 0.3430954638134977 0.3322186398640776 0.6528027260942895 1.423180418873736 -1.061752477071978 -0.571513552441377
Ni 4.616769833167945 0.4446130923152181 1.539656808455096 -0.7095331983526814 -1.3977226409222638 -0.5414290743511707
Ni 6.143744878341451 5.594395394421842 0.5042577617398412 -0.25166240564014075 0.2137085521041868 -0.19434197465211692
Ni 8.195812982925304 8.868658793499055 11.095173513195597 0.34515157323923784 0.6979984582402043 1.2406400648422375
Ni -0.07405786772168953 4.8517658560230945 6.028918431214484 0.5941965958611896 -1.05598240735742 -0.8998709369414116
Ni 7.813717580610701 8.699199582393206 2.4879632219547956 1.9567280335943011 0.9797222020420999 2.20206475412673
P 8.67444405449898 1.4043226569703002 3.6172844511133153 -1.2621445145729167 1.1826331493101505 -0.2849368514225544
P 1.8394409879820992 3.1312929658024644 1.395179082957756 -0.6325625972338976 0.744001664443196 0.652188084774309
P 4.661126512180765 0.9977984126134508 8.17383156239078 0.5044540397887183 0.8299310174171641 -0.09975006090714435
P 8.586393142784296 1.6901727774498028 12.46850457234172 0.22237085576487509 -0.19303816823902883 -0.7915696440301465
P 6.350582395677619 7.740866635619926 1.4890141491738274 -1.6946629445635975 -1.2065734621758317 -0.8637561934967254
P 1.8172989469036869 3.401734403597072 6.034205297252305 -0.4224163085596725 -0.7878261178273142 -0.09666499422391739
P 6.776417403729083 4.003562339793916 6.164603769990154 1.3782496197993166 -0.6066245372118972 -1.470953572492957
P 2.418546108252573 8.537127101384828 10.338679790223244 -0.24115970633660405 0.5698911863466056 0.48237957648718216
