# total energy = -340897.89911576314 ev
CRYSTAL
PRIMVEC
9.00301125426817 0.00000000000000 0.00000000000000

0.00000000000000 9.00301125426817 0.00000000000000

0.00000000000000 0.00000000000000 13.17681700894939

PRIMCOORD
 96 1
Ni 6.433714029064047 1.8650908588966348 11.379934302629055 -0.39017313225525063 0.3784180486018515 -0.2785512596111848
Ni 4.482032206139725 0.3655438716820316 6.07065228763596 0.20426309042057078 -0.5121820045605954 -0.3493301300969596
Ni 2.7585767232135194 1.6177871376576507 4.786993013241271 -0.19278722857048733 -0.16951231720294677 0.1495883245855101
Ni 3.3374523527677145 4.387086447495933 4.911988123167577 0.2586421793920836 -0.3048724140042169 -0.4088051455341411
Ni 5.050626396629706 4.613647230377692 2.5081939720621342 0.5765793970000587 -0.02068992424918372 0.2985953227462535
Ni 7.188535511185627 6.02638177948319 2.319409825181642 0.4419518074894389 -0.5153614307298414 0.4650991921401797
Ni 4.9795116092669796 4.464728418152491 11.26967082032164 0.794859884745644 0.42999694912040787 0.14496188155709228
Ni 5.546638308892279 7.676426707129529 12.183798789267623 0.3225387209357284 0.718892270970078 0.7254514122448344
Ni 1.7260213411865402 6.565067965970261 0.4403417910247673 0.9816878104089029 0.014274250530827029 -0.6231094222407978
Ni 2.8506775302423444 1.5215719544008512 0.5283426266439224 0.0418318484341215 0.002456174849976415 -0.25377148156334356
Ni 0.6273181332081547 -0.06023914954348693 4.617249335254744 -0.4227515804119042 0.6754383135515013 0.22532890995193453
Ni 8.767213567148927 2.3597163073974823 1.3397660416873225 -0.4758299482941225 0.08848451529565407 0.9891044145879481
Ni 6.773298617560653 0.6885287076859926 4.8468684411225915 0.03125098759448166 -0.1523967405685827 -0.15885689437162964
Ni 1.039253622538166 7.532090427727169 2.568675302613351 -0.3704322021828975 -0.612260395341436 0.2737713217240381
Ni 7.571937756359583 3.928121927308006 3.6637881096295573 0.8054674850581612 -0.23342505669650765 0.1344013324324266
Ni 7.576628325319702 3.7100869962597076 12.520545628558414 1.0171734049100223 0.07637770472979105 -0.07719145888033803
Ni 7.920309284021401 8.64607804822685 6.999459666734485 -0.6324139874711753 0.42540881552909315 -0.0228535075594058
Ni 6.757201233106348 0.8254879195146055 0.4259738850680416 0.16358849551934404 -0.8613794657344326 0.009502025953164281
Ni 1.8177170127005762 6.528173625090092 9.145079860588568 0.09841540125612083 -0.3039028510020959 0.23898995237879486
Ni 0.24168134059484905 4.915383158781513 1.2995738977167668 -0.7558415945009177 -0.8112342123386094 0.4043075147741037
Ni 6.340361803445095 1.8457163782782542 7.0044932504304604 0.2849815886175608 0.6181605628759548 -0.6864364644342178
Ni 3.490548562300968 4.478403992529499 0.5304196213830769 -0.7389201361552307 -0.2768833849904586 -0.4326454424868484
Ni 6.004063314124005 5.52679567167903 4.740886791055932 0.3985410446039717 0.31226433559291383 0.1513022219528233
Ni 5.265555288731285 2.8560703340947655 9.296350259401837 -0.06371784987393543 0.17907579252166578 -0.1812406613834685
P 0.06757210236117787 5.557685003928873 12.359010896402667 0.8719922082532724 -0.5503659718294844 0.25816986774135536
P 3.947289338663272 6.198006186559485 12.53481630199159 -0.5411308263844615 -0.23166976456829777 -0.06389859842617382
P 2.6156089015500052 8.477604695154472 1.3634970795414068 0.12137072450071355 0.49132264461308284 0.40654077497999663
P 6.355955019258772 7.605825091418869 5.664647982242468 -1.5454998804409639 0.7572922109045152 0.9857496391831024
P 4.725329587288013 1.0826931527350463 12.537780993658707 -0.09647421836934998 -0.7044493560718708 0.11713997424881761
P 3.8336353222476425 6.124784694519852 8.067691282193833 0.6516525239858132 0.7895055624122661 0.628524422608782
P 4.671248497569327 1.042134586198892 3.8652214875829243 0.7187616589294846 -0.10554455610173435 -0.2272364113872925
P 0.12387333470091033 5.723943616187067 3.470760843457502 0.4957374858513268 -0.5329282359690113 0.5881498754464773
Ni 1.522076123041478 1.0353013005161082 2.6225421206597703 -0.1566539731830399 0.7863616174666457 0.057609165873036265
Ni 1.9322173121915442 6.524734474720101 4.7113182005843015 -0.8755958664441306 -0.3509761503408149 0.2380774678668545
Ni 5.808274824343373 5.558513280981332 9.23158619630872 0.37590479526169457 -0.005448681819397068 -0.8321372810398637
Ni 8.562971249626353 2.3292501166853077 10.167258371630071 0.5334491414694877 -0.3098834940655631 0.20036504091774524
Ni 2.2255534309220613 5.1764434815004625 6.985215102034485 -0.42741633287742514 -0.3527828645322505 0.24942323189697688
Ni 0.4057729279994905 9.028399932028032 9.163619762046482 0.10686610312663532 0.6087312991422548 -0.14098284230468622
Ni 1.5206446442225552 1.1398352663432532 11.455674837269532 -0.44070148002210546 -0.4044463543448132 -0.7575950868569147
Ni 4.12308214003618 6.9238829869022105 1.6799655358652636 0.6959608589848852 -0.4000397406366852 -0.8141315884910624
Ni 5.548835043683581 7.763521839797843 7.896365775097339 -0.4213174190685389 0.3484407855134709 -0.11726261586961095
Ni 5.312560011458313 2.947117788785138 4.704097785409608 -0.1704952499415064 0.17122287213615028 0.6676291019197276
Ni 0.8770067521775333 7.405147966426442 7.016839980318958 0.24301372882620725 -0.2442871962219922 -0.39752263064178633
Ni 4.927366167007843 4.634156090437484 6.858032260328316 0.43184505807274015 -0.13462347574556172 0.3538182477753003
Ni 8.179145862914728 7.03751899729496 9.118054620848673 -0.55012917322833 0.26955059877447124 0.06135989116472013
Ni 4.468383640797038 0.36665214239026706 10.469679429204458 -0.04571447131797933 -0.330999707218888 -0.6495300783261716
Ni 8.256508740216653 7.135957924377382 5.0213026880692375 0.7361991376796418 -0.9118345370611909 -1.1836909011507035
Ni 7.150425763761089 6.078536224753765 7.027104313661437 0.39401795992263755 -0.8358113874573412 -0.13035390183593035
Ni 2.4678514778005347 5.21418410545597 2.5897324460698243 -0.7451838576767554 0.2697904826994192 0.6005845016654044
Ni 2.174560374127216 5.353568728566456 11.417593899481602 -0.023624324287159312 -0.3657875043220346 0.2906647550452672
Ni 1.1467945941861937 3.2857120460233684 3.8061896418735097 -0.46383189539198183 0.36600116299473745 -0.6228852220451336
Ni 3.6869042418023055 2.734664724829496 2.6306457312567058 -0.16832215354958752 -0.5451654014651515 0.36488581844337153
Ni 1.0733750358948866 3.174542860765115 8.39709796625778 -0.6304571208551206 0.8683859789592528 -1.2639293743874813
Ni 3.661281671244726 2.631481210718316 7.035524830261052 -0.3127243059484679 0.3307870769874497 -0.297066801916869
Ni 4.034780603834936 6.894407127448411 5.912978046785585 0.5801514306220331 0.11902305020414339 0.1910242231327936
Ni 0.5949856182245162 7.327262914461011 11.205236267447223 0.5660959809702315 0.25632278723028756 0.059730325981097135
P 0.13409805479305473 5.484427499843481 7.98140912145853 0.637001863952174 -0.32130433430799504 -1.0299566727176197
P 8.35593799855745 1.5941362266053805 7.877905100140094 0.837634556709009 0.2684879618379118 0.7741918148733312
P 1.7718646754378384 3.394036279666656 10.454657904617205 -0.0537594531096429 -0.7401396103846286 -0.2707214791541208
P 4.1437260452675675 6.140206853116175 3.8123296956754316 -0.8402491115137206 0.3354420592609578 -0.5252442370611922
P 6.987471256701291 3.8395683067864494 10.303717916323775 -1.1734802791662886 0.8031288096226554 0.1708300075731058
P 6.291988622979222 7.7083873977407045 9.989700980014968 -0.6709417112327284 -0.7339152267414716 1.034261984961193
P 2.3878507181467574 8.524132258275193 5.741270812004044 0.16197924205069525 -0.21080526241446274 1.0213684168279766
P 6.918967342656098 3.7856222622393605 1.4750921072407617 0.4274124762226833 0.8142879115632685 0.6174681647946204
Ni 5.233504568005711 2.900842309984731 0.42992620709009977 -0.056270649567270827 -0.5968836557750494 0.1364708133669456
Ni 1.4317309032434076 1.1216941982921207 7.031584212153866 -0.20114845605098902 0.08487391512626029 -0.3901764746893603
Ni 6.764025515777691 0.6856810551675939 9.186956467999504 -0.09842440011718533 -0.05541112978045296 -0.09667193620245286
Ni 2.7852526461095515 1.7691367629715886 9.173568089687427 0.3808780801065698 -0.982418003706708 0.7851717109236026
Ni 6.36109573879088 1.9882250463583402 2.6714149682605504 0.9050054299544995 -0.16904900441328305 -0.3954616343476996
Ni 4.025561520120614 6.749035501730479 10.41984505998191 -0.07116530729091614 0.7432462743344104 -0.8564018100141833
Ni 8.240762473208498 7.310175198748331 0.18252615362871016 -0.965797878651524 -0.7533301409329736 0.018211895022336378
Ni 7.502839643559365 3.807994745667183 8.053499835261327 0.7911454120085343 -0.09155132714643588 0.7666628534861377
Ni 2.916444528809849 8.289477768109084 12.266562573132267 0.9550064444629744 -0.2111770439315847 0.2996006240823163
Ni 0.011423020914777496 4.892038350118195 10.117120600922004 0.24804254949936635 -0.8961484937845017 0.08068455963526104
Ni 8.571326044242456 2.3290700564565125 5.675835124257524 0.14990251339181926 0.20888284858076928 0.884218318005819
Ni 3.5158110124009565 2.803429726206443 11.694398688606418 -0.4011573991808962 -0.6230906531877205 -0.49919870492705
Ni 1.170832634730374 3.133921273148882 12.571606207939059 -0.5686691410140464 1.4579250214437731 0.8205994556035932
Ni 3.055982203114812 8.343441818679052 8.030492639527 0.4665762909063384 0.37903999845656655 0.040640656339497754
Ni 5.883260906625199 7.823733980307011 3.501278351334883 -1.0379335202755091 -0.11927501831394943 0.10061960799629123
Ni 3.169447156290206 8.32530075062792 3.638158336662826 1.0186093660256006 0.09842080057275954 -0.052766493068754285
Ni 3.4027061796831526 4.382999080302279 9.320094801773081 -0.19939547791562434 -0.17174943406358165 -0.26754950918404247
Ni 7.21558956056213 5.989856562072052 11.30201954072587 -0.577671858733289 0.0869462242742567 0.10845118822556805
Ni 0.6980592955961308 8.993810362076445 0.5238339185148867 -0.15331359595589725 0.9954797219866727 -0.7819040959159244
Ni 4.775224276687206 0.37204584654383205 1.7732439367904107 -0.6534466397717585 -0.45668988503056185 -0.6357047424073051
Ni 5.862571986336612 5.271992441910719 0.1862678051830777 0.15821437569162428 1.7508819149573263 0.43246906480998426
Ni 7.760469818919762 8.738079822129837 11.338611380421664 0.07784349064204013 0.5430874358902003 0.012894853684797147
Ni 0.18352188669394848 4.78633399280388 5.665017105711498 -0.9019928683804207 0.45480629485460383 0.10854940436632918
Ni 7.951999884289384 8.578033287765082 2.3887726265181897 -0.07227833784943681 1.2165920227540985 0.43337846399813107
P 8.462623684118698 1.6415730938815174 3.6434160953436505 -0.11330260278059842 -0.6429251714151444 -1.3664960788078144
P 1.860040169478925 3.330808130325166 1.6070186356745442 -0.08492379452758922 -0.768065390260619 -0.3364977542189818
P 4.729633026756222 1.0532713113498848 8.173421748241323 -0.739576795902623 -0.7749317783631493 0.7220081908912404
P 8.51180713561415 1.5478787538278531 12.464531592283612 0.15093326864917878 -0.26564226485900055 -0.7385815218688893
P 6.331835951611634 7.622201569227807 1.1573821356393608 -0.6635811571025991 0.6833349426907587 0.3794403192187788
P 1.7621504260943286 3.223330179757217 5.987150256833257 -0.04357094261241529 -0.5218398393653335 0.32926112726122647
P 6.873997300514457 3.8296199791455057 6.006309565478228 -0.21774775517056694 0.8909216981679238 -1.201463394642776
P 2.2314323973922296 8.510897831458735 10.163806617044063 0.9069604967983412 0.02971629611751011 -0.19149190679783148
