# total energy = -340863.5314842058 ev
CRYSTAL
PRIMVEC
9.34022111632997 0.00000000000000 0.00000000000000

0.00000000000000 9.34022111632997 0.00000000000000

0.00000000000000 0.00000000000000 13.67035772776824

PRIMCOORD
 96 1
Ni 3.504647119732362 4.10748367312827 10.33427099713154 0.010432251076917518 -1.3789445889838121 -0.2523414339850364
Ni 7.906497202591124 4.755676340423507 13.657275100091697 -2.1807335967491217 -0.9103546100815548 1.0237603140989209
Ni 6.417170919726667 7.958363450631276 10.343854064030369 1.228093852746111 -1.2492082661272228 0.24269748313736914
Ni 7.130642392631957 6.397995445707861 12.202516975699528 1.4794446406831039 -0.06376490106178696 -0.9854735027035801
Ni 8.783665391353015 6.96915930918766 1.461306553439704 0.9289205460092003 0.5336663996866164 0.38141826888075603
Ni 4.709330163082388 6.35363873547147 2.0964584039667695 -1.7355933642293722 -0.14206296274274244 0.09906383347339713
Ni 4.023300259912731 0.010802899780882332 5.392614041234254 -0.17698728542375328 1.7096948991960557 -1.4399311559695136
Ni 7.033326628480987 3.6255749629478933 11.513203050773898 -0.9510490024771234 1.1307696276716397 -1.3773821295926987
Ni 7.217487768874949 2.5384199223151773 13.472889794390161 -0.2269561611427124 -1.0410687234703813 0.58388004442653
Ni 2.083924761206986 7.857825310183915 9.179741205262946 0.21250836114849853 0.0007168235613665074 1.6286354727198789
Ni 0.36904427988273913 5.804265607932185 13.215285561079844 2.064843949967637 1.48173677915139 -0.8562501149276672
Ni 3.933783580421138 5.9946846964959475 11.629660664147538 -0.4474560251371197 0.06297634372222058 2.1575414749033746
Ni 4.675200995004104 2.1722832532761083 0.2662224553644587 -0.1347134643562067 1.1493661597269043 -0.8447007195271711
Ni 6.664509315972167 6.966217139525739 7.964159057854203 0.1699576322704815 -1.1089710437393097 1.3856986198781942
Ni 4.49731648322224 7.684741672072614 6.809971118079661 0.8287619368097274 -1.2368029504843343 1.1608461353420458
Ni 2.250171357437251 4.057980501038804 12.932376800632776 1.4100708780749716 1.2367834101003088 -1.45777512612947
Ni 1.598382704999665 5.330557611920591 6.800839183862327 0.3252718035961753 -1.0470938466185387 1.7269616566963033
Ni 8.172394618259599 0.47653434693126767 7.338398799692412 0.7713304341651361 -0.328412406107686 -1.1054902842795606
Ni 3.110882076534681 4.967054885245528 3.644134916392983 0.726808183383045 -2.270970318849192 -0.4287612769410938
Ni 7.158280107011718 2.0091095898038493 4.097470956056589 -0.04260060827934599 -2.6288658220176595 -3.206209607987568
Ni 5.241162355303935 1.5979530548268133 10.543742268794944 2.386033613074639 1.3621095197043442 -0.3623291134597889
Ni 0.2561069958601395 3.106127903969863 7.411083466651472 -0.43255545387620337 0.7550383818733319 0.17875311907492442
Ni 5.108820761844379 3.2641270849255997 2.3500024431436355 0.8925664328601982 0.21697282467775533 -0.5330045977329013
Ni 7.068511241549103 0.14446893659935967 12.788783976777188 -1.3635403386136002 -0.3973891903877156 -1.5749703790962555
P 7.688832688935857 1.6228073833041847 11.125469922394212 0.46177526997326923 -0.5290170738400631 -0.30195395480584125
P 4.714140376974101 3.4949519701797453 12.167096989058455 0.42183035414921544 0.5517803356785078 -0.7830482368226965
P 1.4762593134770674 3.419576385507672 9.36202122511751 -0.20535143838874312 -2.197234422617622 -1.1526692559582083
P 1.0244728165020731 2.590557036768649 13.64858122224625 -3.4836702056377358 -0.12961239568421548 -0.3245367252023637
P 1.3790649722010329 5.060615880494618 11.138402392597055 1.8940789913045122 -1.7349991822887991 2.683502278415617
P 4.354756687825727 0.18189707078745554 13.362159604625061 -0.1158942747671746 -0.7156642509510837 0.3267892686819663
P 8.776959112568063 2.0126028325135588 5.497192761350653 -1.0112572965359035 0.9109235952111473 0.011760997190670067
P 8.917295935331126 8.097719550173696 12.725941100842784 -0.009581987261480273 -1.4047666922532387 0.4519035193855121
Ni 7.955225136325226 7.089872327316765 3.782546719577245 -0.5564990813104158 0.49521786590243094 0.37194169684888845
Ni 8.802523297852757 5.003836676130116 10.439054268091102 0.6684549402551326 -1.2426853774070405 0.9122060614679967
Ni 2.293762169539428 3.4637929924268285 5.493802261073582 0.49601130833800383 -0.48686229484888416 -0.04527069891234139
Ni 6.0566383833769715 1.4518533156148457 6.206861830226203 -0.49115218047348963 0.07324661529997709 0.6750642180415342
Ni 1.2199076038228251 1.2263710368579026 6.107957294457795 0.6695450879955179 -0.23425706567949978 1.8428063091724651
Ni 1.3947658839524275 8.829376433656005 1.9155859554393544 -1.266673769901838 0.644828044864812 0.30354958142773525
Ni 1.691710194720032 0.7393868505051832 4.003651236681672 0.7310525604816959 -0.7127617325923079 -1.2699460128952065
Ni 5.36206217785602 7.621330910692354 12.852651474971633 -0.6938656670187534 -0.06808332593148274 1.96566390263135
Ni 3.8300230636773875 8.622798762504548 2.5328438102892505 -0.2650007746202598 1.35836547928088 -0.538318553746647
Ni 4.730177536686858 3.0718679727954927 4.544422954564884 -0.9028104791857096 -1.1179426511103003 0.056910340033798766
Ni 2.6492042853629427 9.064656604398202 7.381063995878728 0.6287352530680075 0.8375263132659189 -0.6754740518854432
Ni 9.023559631342795 5.732075038671905 8.273054181581896 -1.3834337351034176 -0.306080318269389 -1.8111125776136097
Ni 2.9191833776735114 2.4956884105587043 7.7282493562065655 -1.1287474550352885 1.14729770723365 -1.5147736550017008
Ni 6.308404044447076 8.704161428933102 4.605666784638587 -1.0176341465965246 0.6794857441479975 0.3430162720637899
Ni 6.241145111953446 1.0808597315783195 1.5286738324986628 0.9555386628173609 -0.0940751220095541 1.06727520666242
Ni 6.987867772149019 3.716109726544722 5.274803029816129 -0.28582053957908843 2.8689736900509817 1.920989956762743
Ni 2.4214896937513988 1.5322352588227597 0.8366166846215837 1.8218803576530755 -2.125009049493308 1.671488306219347
Ni 7.279450795977122 2.153219861911089 8.71665771080829 -0.7600090956150459 0.18832662169597242 0.40667395812375123
Ni 9.005318179438886 0.6771968560290905 0.13966899695091126 1.4151475212669307 0.46513004537811514 1.127273184482607
Ni 6.201729378704853 8.166827846454822 2.248774060353367 1.2975810010036557 -0.26093946006669255 -0.5811778150040184
Ni 1.4343404009605536 7.0718457004992805 11.420722719111739 -0.04000507963802788 1.7659076989421976 0.2949083608129695
Ni -0.06804164302591355 1.934518583708288 2.4365769529733075 -0.969898788193775 -2.7177033497773584 -1.1850451011857528
Ni 6.443827910885787 6.326468032149157 5.635851146373247 -1.3923613766103504 -2.1014315192836843 -0.3912810206074487
Ni 1.933061509209051 6.538201505374837 2.3703856077570022 1.4174581716779782 0.7530192945607742 -1.8509824172253542
P 2.477755185952709 8.99722954792389 11.228258122116356 -1.1651257365540064 0.05505426066166647 -0.4155661184070585
P 7.015776352942099 5.827756264121809 10.06730225809728 -2.1766877088145224 1.0446803520810395 -1.0652370931864685
P 0.634611985744656 8.895692003813592 8.15861966010912 -0.5794258653099182 1.8498207928170851 -0.7555335763421956
P 5.0695171112495725 0.966731569359228 3.4843003819814764 0.28641420729902933 -0.10449837422540711 0.3225448915833155
P 3.028809553298806 5.923325406917925 0.44844082975943833 0.6075645325276633 -0.13329858628655106 -0.4107522419581829
P 7.60418226466287 7.8824648135748605 6.205125483114612 0.25311996402227377 1.669004363455229 0.2760794010319245
P 5.331715799343061 5.213720785568302 4.133246805123435 -0.45224624743691144 -0.3654992836576544 -0.6750978994929471
P 7.3757111151382615 3.335747900695793 1.861930121027063 0.3694150737722929 -1.4235609421416064 -0.06020649428656728
Ni 9.574473895371659 -0.17889605773229603 10.975575251329422 0.7550977743563576 2.369551556259216 2.6010513709085528
Ni 3.3659448356703674 1.6955677060545506 11.858925732469807 -1.2434106856088392 0.17961083908952935 1.4805484152702437
Ni 2.7911382859424756 3.9943735950144146 1.522276715033743 0.2651588974646788 -0.325293143752414 0.3407004794464197
Ni 2.877488630464572 1.2339646366520038 9.56211491474736 -0.6274890393657322 -1.1850353309937396 1.3166670711008293
Ni 0.04502360202642676 1.5012350648293753 9.450673934152825 0.5999047019895604 0.41263737479603774 -0.9081133794558619
Ni 0.26077897447884724 4.019526810568553 1.513062586870298 0.13939544321290834 1.4709481731763183 -0.4626273335609194
Ni 3.7064425976555526 5.637094329808173 5.757489780418214 1.083944439787985 -2.0805875859551395 3.3807314625899645
Ni 0.7977398821332848 2.693084644320737 11.426641617253834 -0.46186885812834 0.26265978519190897 -0.19016856000071763
Ni 6.789219948753026 5.382666705710617 2.3725179802453082 0.7701389849601963 -1.2078944949801005 1.1925828043236946
Ni 1.8349331458181206 5.527907144576879 9.162434709496047 0.9459281363107902 0.40606332112294585 -0.6608246774033846
Ni 8.919462866637684 7.797655605542341 9.535443913256517 -1.9604713026868175 -2.830334380412229 -1.2555342083452508
Ni 1.5606108506732876 6.275208898483688 4.820632908403921 1.6234498147538814 0.40616359414623593 -0.07038909124652394
Ni 3.642714268756227 7.139048591666017 4.320038151792943 1.1070100633581965 2.9337595761781152 -1.6348904524906553
Ni 8.71698555257062 9.196942156530863 4.737093036425546 0.4821988279349437 0.76697549963055 -0.08809730715956442
Ni 8.878860925303172 5.369179426371524 5.484260291147808 -1.008600832749663 -0.7131993343503588 0.20550724724031705
Ni 6.12848336445474 9.182894463922834 8.478069233735132 -1.2547950161863808 1.5832326191050474 -0.6216053268914457
Ni 0.4883618689721905 3.4934948956805085 3.8631341476504364 -0.09121579818388807 1.67593245803363 1.7754068966818843
Ni 5.027542157406165 4.692779291206438 0.39140943942391393 0.32338281410357855 0.05898599161590487 -1.4056778912135985
Ni 0.3502396126435463 7.380315844164697 6.398246697656768 -0.17913415656342696 1.4101791215180617 1.6499969691147907
Ni 2.4465308266517494 7.937366633488423 0.042385923573961634 0.9154441087893203 0.2488401056999973 -0.7888059652420802
Ni 4.7758138572206565 3.71925738107192 6.660759217180861 0.2591826252765859 -0.6263202158686116 1.1825675861795375
Ni 4.114694323855264 6.910325256170387 9.575552690914362 0.9307827960289197 -0.0700461060848084 -1.141017273541577
Ni 5.793543034053184 3.9502877511913432 8.807975184937401 0.09082910426843066 0.6812631477633945 1.5218485595706113
Ni 4.540094696084458 8.837446384728702 11.134342198463603 -0.8197219380946462 0.28438355002224575 0.11697593786712757
P 6.8415251871871785 6.61806039619841 0.6889309758585236 -2.0625569537056734 0.6189645468344889 -0.8552509842391915
P 2.0293965501393814 8.343993161208216 5.346627462407369 0.5868098164788152 0.9307244319871585 -0.3338114656360703
P 7.453150888684254 4.266659721948775 7.333162671716308 0.7859073035380464 -0.15220133672832498 0.05633698402883201
P 0.26236214196359525 5.895631651211271 3.361992054080129 -2.4157537658468913 -2.5163576901138986 -1.445914113025826
P 2.363486920416383 2.5560542598444056 3.116418025609667 0.24907124787419682 0.9256315908452832 0.11714074557976599
P 4.493627095868402 5.451522816020718 8.026413499856224 -1.0813805357155506 1.4128805796096247 -0.9278195996355375
P 4.75279955230963 1.7728486958410112 8.495252438582867 1.7445469738782342 -0.20003568260278454 -1.4049847218013156
P 8.516170797868067 9.100952703783044 2.48342563421224 -0.23709402090766268 -0.12061070640623743 -0.11153214114373695
