# total energy = -381166.3032078741 ev
CRYSTAL
PRIMVEC
9.28620458401541 0.00000000000000 0.00000000000000
0.00000000000000 9.28620458401541 0.00000000000000
0.00000000000000 0.00000000000000 13.59129907265032
PRIMCOORD
 96 1
Ni 0.530063043331542 8.596480786870782 3.824877056484004 0.32428861374729956 -0.5242571905575746 0.23835823233206688
Ni 0.015319451278348807 6.803918334596997 11.25790416114452 3.1136846040739536 -0.07278021718651981 -0.6041915022903723
Ni 3.515794103041748 6.310319429796516 1.7947307809841526 0.9126246370626541 -0.2569118269645382 0.7390852009781853
Ni 2.9042232584703136 2.5093459918707945 10.317766049211793 0.2121985432175636 -1.1279208453689349 -0.5641126319916155
Ni 3.604152337213712 5.417246587254623 3.895049188101856 0.045413909358425014 0.043040781140558135 1.0077022321947937
Ni 8.692045115600543 7.084157408778976 9.156811284585938 2.3939402695162255 2.3598921787925806 -0.9113902504349206
Ni 7.739280551644316 2.8699850231164477 8.42585792580627 0.19283916485434532 -1.313479417401467 0.5842140307271809
Ni 7.188404338554537 5.369004755775553 1.1261528566693368 -0.10136471369243188 0.01825868909987178 1.405814673901779
Ni 4.885369948218007 7.327270238061374 5.145326094908824 -0.7120341103976641 1.1759793914390586 -0.17415907194633876
Ni 1.2887208641005583 6.148498033193191 3.420440571150211 0.4277683169002052 -0.18807619624806318 1.1063094377467462
Ni 7.35212940704491 5.228207325768688 9.344031378644203 -0.5813523929086698 -0.45329757151956124 -0.9766494766540469
Ni 1.5451965414095934 8.613530258015262 10.973424077446372 -1.0042150449771414 -0.2567051102703708 0.4112816320990917
Ni 3.373798752676693 7.345916936350108 13.399444029270036 0.4788880183941559 1.759836810157769 0.12644582503077575
Ni 1.5363189300729254 1.2274690603592786 2.223019810752429 1.6177175402557946 1.2894051500610826 2.4156398659768463
Ni 0.7423846763062785 3.092241037480272 9.320083186305151 -0.25448059181522625 -2.7941329907910073 -0.1611855425048063
Ni 9.11518958817163 0.0907076438667098 1.646368808932466 -0.12087758691437892 -0.4876050865521796 -0.03795513908753463
Ni 0.3653694237298571 1.8284907768151746 6.97043390748765 0.5178289184337276 1.2064780742485481 -0.37727647879824056
Ni 0.2976219200618 5.263671340093725 1.6311459341791184 -0.08421802670981625 1.2354968300784013 -2.1708839576485515
Ni 1.2067329660969566 0.7518129595595412 13.488657522860521 2.50676361866756 -2.2340086540231785 0.6530339777143721
Ni 5.444288014255019 2.7199199611911786 7.457668047842365 -0.6613304133952095 1.045996756899618 0.04957215450117269
Ni 8.11033870414493 3.518115654123513 10.68751763276359 2.2164978988329245 -0.5889075795481084 0.05719084738869505
Ni 5.208111979604934 5.763937739601034 7.232459949122969 -0.5477282770963212 0.014688712360426313 -0.7767793730948493
Ni 7.945007122305975 3.6647262480391163 13.360001805011288 -0.14415969737077106 -0.16058596124759442 -0.38905778770388477
Ni 4.028689740433856 1.0907668464606468 8.245270038878392 0.04237743652494637 -0.881206784873005 1.7034131799524017
P 8.41566910241862 6.329244714215063 7.36907951580309 -1.3362887019864989 -1.0158441445756374 -2.5686865814246023
Ni 2.4293917726148186 5.1377132646015005 0.11315425696607619 0.10919475125981194 -0.5687583582937431 -0.29614994652955445
P 3.1184467060912313 9.472857034032623 10.045927275464072 1.6546339536661696 -0.2526139709201327 -0.3527191011738506
Ni 1.6514121465024914 0.7789556061871012 8.586330036920874 -0.6937828774969599 1.0003861581493545 0.6609156944552941
P 5.911486240153671 9.396895882637281 4.210461618413436 0.8689220539683811 -0.6322358100220983 0.5263927488433385
P 8.620123463087474 1.6328025930310657 0.2345667354402057 -2.098524372939218 0.3576304224325389 -0.591464284531691
P 2.93050321671589 8.992138094633773 1.286526534018074 -0.17924419977873002 0.4585266811289844 -0.7943932295218706
Ni 3.1201739400960644 6.883129657506808 9.264236882102653 0.09883603373330721 -0.1447569646351378 2.0989992556931076
Ni 5.9940963138471846 2.4408416625500826 0.9378295615370185 0.05030594734340368 0.6840705353052025 0.7848899180171256
Ni 5.061872833862412 6.556106685925108 11.770690221325568 0.06368648241536774 0.09010533872852869 -0.8731468906830059
Ni 2.8032636450265307 1.8282214768896898 6.644636714877121 -0.6906926686074104 1.5630417459794694 -1.3075712794471481
Ni 1.2625151954895983 7.50654969879957 1.4586045433006363 0.6059287966964532 0.38353094434838464 0.09959373783493816
Ni 6.962155256330078 6.29477432375302 5.017146759341566 0.7599000808410075 -0.21408599004826356 0.5958626707097029
Ni 4.639415540411529 0.3156111550841782 2.5063437620118565 0.3174685055016726 0.6491320715568046 1.5715338426108807
Ni 6.392845927651088 0.822389969686053 8.593057891955828 2.029940196111917 -0.5364804720966437 -1.0792128386402704
Ni 2.610937067208817 6.499544415368993 11.505836530472662 -0.9392039302130794 -1.0791207931470963 -0.5656241835401355
Ni 4.872090676030313 0.3213556010808967 0.32453055434031813 0.9464300156478732 -0.5769360090085289 -1.9449192138848312
Ni 6.139211828866133 7.126075335111319 2.4773132300446052 -0.3021161914153184 0.3049773150131973 2.181295382789863
Ni 4.906756076783223 5.365949594551951 9.41496405039644 -0.030389668035450887 0.4526118583064463 0.45839709752965574
Ni 5.160603758267701 0.8985702755035122 10.3935786213379 -0.449518049872471 0.03862851100547541 2.5400228949413224
Ni 5.232404690124518 4.800261885560514 13.491484243457679 -0.1513137919170491 0.21801952077471484 0.3360853492719115
Ni 5.9291578869880635 7.285955915010289 0.2937282145874643 -1.423085802277401 0.5736773928619152 -1.6688637241123063
Ni 0.477965579815877 6.3711069233214435 5.620640463389326 -0.40381154897429167 1.297847881511797 1.0459437921744954
Ni 5.306109293868385 8.093196370957179 9.473910089603311 -0.6508786219342663 -0.8855347228243974 -0.4530854555087552
Ni 8.624005096496184 3.423582094074055 2.254714554741113 -1.1952050724378898 -1.4663402420906617 1.0105019064271177
Ni 8.043097298612697 7.591499895983503 0.957468955068315 1.729338384458596 -2.7279203995196757 -0.6474197168513882
Ni 1.472253406420547 7.911873945267029 8.021325792567907 -1.262961354047257 -0.4117310609316845 0.1890773838190679
Ni 8.167188847035183 0.8339717237227607 3.4875956149822014 -0.665316651736467 0.6418496789627784 1.3351952118120036
Ni 8.040283578701597 8.606222015209866 5.429628812104323 -0.6575542341822289 -0.18182095936697074 -0.8092434071608257
Ni 8.646505569580647 9.225370402512182 7.580125224303289 -0.18588407369275084 -1.0449744862826906 0.95966425494996
Ni 5.697708530340451 3.2098415290781435 9.985813031752857 -0.17036360945964854 -0.6438330279413944 -1.0222335930417492
Ni 6.563972100990126 2.4130016219775605 3.5461739204977207 -0.1458522545818456 -1.3462085322033719 -0.9362931843241874
P 8.591976977772157 0.9405439190618177 9.48968920799585 0.38945579447325185 1.0519845990519368 0.5086246262266402
Ni 6.046006196035444 4.658247962786804 3.3116963326190545 -0.21592972812522168 0.8859916078561579 -0.3277153800406614
P 5.786596078159057 3.110962025403622 5.303555587678443 -0.6655385379392862 1.3119686371838952 1.107432752717912
Ni 4.094083191305004 2.988737004050875 3.7575455747697992 -0.2229627237126031 -0.39313118644231004 -0.6083109237753846
P 0.4918150249492524 6.768510037497922 13.279976081981992 -0.03607849089011206 -1.1190708511774727 -0.16332855698973806
P 4.2251393929727845 4.127355661408855 1.7838575643375996 0.09949140792911898 0.32596574433940634 0.6638033004157342
P 1.1695788625843946 1.93417706826143 4.514567166336388 0.44876703063905937 -0.3839019545345582 -0.03960655864802857
Ni 3.360760921801502 2.2195606996405997 1.0277302342477068 0.27688904141741344 0.45263294135236887 -0.6116659562905465
Ni 1.1444411074710465 5.132986586599028 9.804572324660787 0.7544195173424104 2.26507966439637 -1.2573843741801118
Ni 1.3844616307125337 4.144414418757663 5.373672930690766 2.7240215786859023 0.5267498750724412 -0.450943726575404
Ni 6.952358310765031 0.1378453456512927 1.362922279775921 -1.9871765798921455 1.6782593063945934 0.6184225582880898
Ni 0.11392779778652018 4.294655918565146 7.445612697384978 0.41680076214510803 1.244921465826411 0.13055907586820098
Ni 1.5505546813063065 -0.10105433272791864 6.071776341663464 -0.6912891645408288 -0.28401845337334314 -0.6557986849437027
Ni 8.785798634486527 3.177599827654596 5.386639257792637 -2.4616520710409024 -0.04167783935476048 -2.211172372854953
Ni 7.260065977346449 1.6392007878124093 6.1886079355430565 1.2259544378056049 0.324653453285886 -0.09317497879278791
Ni 3.4327197191318803 0.5945130158430604 12.229844737036123 -1.7613619885530438 0.4250375482326035 -0.8836513897587556
Ni 7.6456756120275635 6.048281316095573 12.377269731071207 -1.6326379090110528 -1.9579045704009055 2.6616260471678164
Ni 3.7660851682689622 3.9463025356441914 5.972491959480283 0.7325556273897835 0.4652922819875922 0.3803638594743126
Ni 7.057115981778581 4.325783275469447 6.836395905610452 -0.14021588223167464 1.1735412143112114 -1.1972655545113444
Ni 5.37384286822995 0.5535014230530382 6.343086730384977 -1.4700020072129651 -1.8321575712093672 -0.33782418633988914
Ni 0.7859314028775877 4.59593753175224 11.957420932415797 -0.278891673669739 -0.11034583414511964 0.31387744571630466
Ni 3.8329551256281125 7.883040280831513 7.428161133593136 0.6171817439024533 0.5594257680389075 -1.928412217368743
Ni 1.782375486127001 3.7450054844465392 2.8508972301221784 0.4537883951130508 -0.5618678018214969 -0.10174060897461187
Ni 7.173481408200954 7.207041750638944 10.620145291750346 -2.728586058128133 1.8167198964980582 0.3420083996245658
Ni 6.62224303314242 7.779257661272304 7.2415530004000255 -0.017217135209234864 -0.4721010773793095 0.36565586384017673
Ni 6.928214179514678 1.8888511049410566 11.931217121045702 1.8789249092718932 -2.261600704708834 0.31524552970842484
Ni 0.7746375211750188 1.7651310046916528 11.618018521845693 -1.2072483767556692 0.9381945151119585 -2.5328706001672567
Ni 3.5050592508396683 0.5692211097378832 4.810232483146477 0.44897091911974935 0.26368154158820395 -0.5121974311795631
Ni 4.91813167708387 2.542469882705413 12.355211281312714 -1.6427636845911453 -0.5093836158798517 1.0685065079663598
Ni 2.7126395769987646 8.146304173503628 3.3545363790410754 1.42955444072088 -0.7056492899172429 -0.16256185402704262
Ni 0.9563304664178176 3.1892168692677463 0.2370294368277417 0.10879134517380619 -0.4513931554079968 1.942312115279287
Ni 8.55114553734608 8.927682550399659 12.214731439493834 -0.3793099642885016 0.49952626346979784 0.3813195385193627
P 6.310514440087385 8.76614902613047 12.036073225825117 -0.7419843769028511 0.1470349620360371 -0.10255153491168145
Ni 2.1098441955164002 5.83748447787134 7.48558423529037 0.5226070565486612 -1.0411399430279489 -1.6331037929038779
P 6.492728341392931 4.271068959574417 11.637536266100305 -1.7651163133891534 1.093206324705885 1.5187393245176684
Ni 4.007359329094602 4.291387174642021 11.327505191196256 -1.2219386317779926 2.199857719173082 0.1369009589258287
P 2.4814409478679833 2.9072412748766077 12.409806733792356 1.2765696888593112 0.2289014577945413 0.08923373475685277
P 2.5751666081409867 7.316721109945835 5.430593648733905 0.47664987309225654 -0.4888531000266677 0.39193228103820243
P 8.61523891961144 5.173372289217407 4.184801978616907 0.18496901807764918 -1.0566488372968255 -1.1802039710433674
Ni 2.864283293659634 3.7414488681892752 8.225249910969685 0.40787132086596206 -0.001817512824712999 0.21715691566410342
