# total energy = -381163.5796139323 ev
CRYSTAL
PRIMVEC
9.31751812832501 0.00000000000000 0.00000000000000
0.00000000000000 9.31751812832501 0.00000000000000
0.00000000000000 0.00000000000000 13.63712960997909
PRIMCOORD
 96 1
Ni 2.6765315451940106 5.419860375920524 3.59173355589111 -1.0383536385320633 -1.373622919660583 -1.680775130837912
Ni 0.7297535892421517 8.506549057275896 4.604999646800783 0.8039302224780285 -1.063522681598523 0.18549712266697732
Ni 8.424368549757878 7.380918359743371 2.4497189349549933 -0.8204297627949484 -0.7554335604292215 -1.0566390671048125
Ni 7.492588811285714 1.8072350814855476 3.822391505750614 -1.7456044686084708 -0.290154648178068 -1.2713122971151136
Ni 2.923473721016013 2.5263797448932306 6.578373525729901 0.920188565452841 1.0685784988548759 -1.0566889465061415
Ni 2.2029780175187486 8.535731523210867 11.026423311199842 0.17739480527481705 -1.5989772835338139 1.2758968311620025
Ni 5.121997964998071 0.6806484066206704 1.0070485112422383 0.29019758560086156 -0.5394012452878646 0.08357113715443672
Ni 1.9629680749839802 6.168821096477601 10.310665565533974 -0.14949730753360058 0.996874031231038 0.13132089373488995
Ni 4.456289266512819 2.1253071886445754 10.864496031828624 -1.943795641803349 1.0690790926403781 2.1926879408975206
Ni 6.14080332027503 7.606243894132063 5.7475183454530825 -1.1763876826210709 -1.054300905889939 -1.0775171961054024
Ni 3.742912146659972 0.17207964683058805 3.317982085932872 -0.6712119341749795 -0.5301028507050741 0.02130081836030525
Ni 2.732017364045462 0.4686758070759781 5.535651965611985 -0.39639340213334956 -0.9824210890305014 0.001434932674313658
Ni 4.817548068949173 4.494472454699763 2.492362418941129 -1.420039045031277 1.0274426480465146 1.6144985190978647
Ni 7.834336731324933 1.4268753674378627 5.95841663518861 1.7669171140433182 0.467417298750395 2.805767746816458
Ni 7.813223235856017 6.277388814572835 13.202677755746661 0.7671151105322078 0.3013469173494616 -0.04214552301979838
Ni 6.767574111626744 3.2257153653322836 1.8590684333361986 -0.5435409784878511 -0.7846238088399325 -0.4304772311909361
Ni 3.4637686291166236 6.928711265483504 8.502913361807241 -0.23003839961246186 0.5428354677803942 0.009725197707563896
Ni 7.853922153864941 2.0723836872043995 0.3006539392730655 1.3051423582906814 1.0368469720795497 -3.172119608282395
Ni 5.639194746325759 5.083628426453943 11.989805274995007 -1.5417224156764031 1.3651174532927328 1.1173420414118242
Ni 1.1097629646183313 3.7032474731334184 3.857534387860105 0.3931335004351552 -0.3512954813534466 -2.1096238252864894
Ni 8.333010287148559 3.6248126077947918 4.843744270410274 -0.9246723122558075 0.5928444527086693 0.4285435045033329
Ni 3.446205107952058 1.8026135926273914 13.307124335692777 -0.45852102470202966 0.20097644924949903 -1.0091009123145331
Ni 7.675109668629306 9.02139782410307 10.59767213639869 0.08068893051063522 -1.943885630413994 0.4628047396790481
Ni -0.003760550207967411 1.361112326387729 11.959475822611571 0.8034530257312936 0.1859828040541442 -0.4117871109806005
P 2.3983850020615947 4.538274106155795 7.5045944330472745 1.581294264431754 -0.34618772781323603 0.21559522760393837
Ni 5.792635630430833 0.6781559705933382 5.467547432323837 -1.4699989218891716 -0.5753732925070993 -0.19872981930716743
P 2.2250791698807375 7.645181801265601 2.9063313516586833 -2.1489097673703057 0.6351331861745513 -1.1035043641977833
Ni 0.5336347463348642 5.057539376448223 13.027549417072546 -0.14423760179655803 -0.7641076911644518 0.28095112730192906
P 6.442262293091129 7.229508694531601 9.868004268320844 -0.1702391680666423 1.4522485398842861 -0.8816184184891268
P 8.577846703934386 6.349115067052849 6.045407777177327 0.5502546430626007 0.3657306829421701 -0.4980267961061358
P 6.030446638750833 3.4913577994976728 4.090197467562906 0.3670013221244776 1.4750367414233951 1.151708948927468
Ni 8.453728048532172 3.4850964274962997 7.3513398992993855 -2.78534573151668 -1.448939530115711 -0.6530710015998946
Ni 8.080962111539723 9.133263943520456 13.161002361866094 -0.20867561766596968 -1.0204047673631267 -0.09912399728737122
Ni 0.3766317751522247 4.771454308099781 1.9157850962968488 0.23965201144282594 -0.45159472989584154 -0.7008860642006445
Ni 8.581713473845948 3.56714648976429 11.652054570117379 -1.2672291281846757 0.6308422721086813 0.14686398367581158
Ni 0.6131262181987224 9.245651843937955 2.111573167320135 -2.6347302512182367 -0.4752643055986395 1.0221343484597234
Ni 6.745230703800416 5.281327520390149 5.606482804625729 0.5665772914820242 -0.7372257791719433 -0.6978084537165853
Ni 2.706282379718391 2.8691991794862552 2.1573529278176733 0.00031573146820590783 0.1002704521869886 -1.54871453072352
Ni 3.7799026925609405 7.21189858577774 4.112890282308952 2.6322601924111892 1.3251537684156016 2.185071562002843
Ni 2.0412911301082963 6.607480519770213 12.657983115712943 1.8624089138947408 0.8560071456789257 -0.38159516077825245
Ni 2.9316917717678153 4.292813415673403 12.169624052159435 0.08727918213364323 -0.16554407658381812 0.3013001232719263
Ni 1.0005243852372363 6.960614446633357 1.0472964613867775 0.27196563597386714 0.24240566292856316 0.8289077183589724
Ni 3.236682083852546 0.5659879635973152 9.645310000975586 -1.2186244798030947 -0.17351063972906247 -1.1027903688498943
Ni 4.531789113725802 5.458295137089666 7.042840609988886 -0.35118312414529845 -0.35451347407011197 1.2325565165031547
Ni 3.4872115040503346 4.551532934069416 9.802395898067171 -0.2512705695183608 -0.7913166474790759 -0.6340250407120371
Ni 6.061958484150599 8.530737333638342 7.767108976467335 -0.427372109903051 -0.5655609344023679 1.659761761811038
Ni 4.669427487541695 3.811861778817948 0.3262407750661758 -0.5153642589433189 -0.5531849293355182 -0.13048914186221397
Ni 8.6362861759472 7.492150887946331 8.76904217040488 -2.5392482215588266 -1.1025810810525656 2.2773674806247874
Ni 3.478015113923319 8.595969276170504 13.244380170429018 0.913598313829833 -0.36337658088769675 -0.33509058945881
Ni 1.1849273811883836 8.979208103236676 13.17836276114133 -0.6513599324460589 -0.04399028953802101 0.012525643270836492
Ni 8.214165346854644 8.444531658405154 6.664505592572001 0.9415711448936751 -0.7850693810177833 -1.1428499558749416
Ni 1.168854662881288 2.6473490792590404 13.631592918862136 -0.12553771139420958 0.3866378654084825 0.577787815485863
Ni 4.385839513979515 6.908678602086255 10.77361855314084 -0.14536657319467866 0.6473824358555496 0.8875499534822134
Ni 4.8623653298518565 2.1390225749332967 2.8655970270818942 -0.027238781111295022 0.2955200262550394 0.6185138324503153
Ni 0.9053533943199401 3.7218825088517904 5.962097986494775 1.7233528562991225 -0.004916977685643145 2.170465382053894
Ni 7.511549960129157 5.732826483292718 10.92679109273157 1.7351094826144184 -0.3133907358878732 -1.3475632464590532
P 5.85080489442573 0.143972422456568 3.2772887584346635 1.145982587966652 -1.0194321190372122 -0.3962489061356853
Ni 0.4555222671141655 6.2325529186344335 4.077392402769027 -0.7773182763174548 -1.0801129818570365 0.0894543354080911
P 2.806035725918835 2.1842684416575033 4.10694384241122 -0.41879799508079485 -0.4319075358795593 1.5983414497220279
Ni 7.761101040951732 8.689209677387376 4.253638843586242 -0.9866865491750749 0.510297900164005 -0.12413183218561848
P 0.7864879554867344 0.45716121850559627 6.769716208982571 -0.0613524349655524 0.020184445367674917 -0.05777885868168114
P 4.5888216405418785 6.603278319215719 13.097671192977208 -0.04297136135520341 0.5797367116821176 -1.8801032458507103
P 6.468109087632511 2.0244636928546065 8.154021700825385 0.016424206994294296 0.8662812739114241 -0.6944601060696427
Ni 6.394342298741336 5.493794880133164 1.1981079419519878 -0.11752821082617178 0.8533614805259626 -1.3577008491136875
Ni 8.646311825163684 2.3988974655438495 9.295994392931135 -0.12225209866440234 1.3695937438965315 1.8392152493870968
Ni 4.457137160638005 2.7073725293079156 8.566094518658595 0.3994810399197378 0.12384463996250283 -0.2421632079004539
Ni 2.452426605644872 0.45313605079042796 1.413965946443961 2.8006885325213378 1.0006975187421863 -1.109845990145095
Ni -0.05069381941647248 7.322767730784192 11.413650035909749 0.6710702663907926 0.14184107653992345 0.35839069763733117
Ni 1.2259151422509422 7.965387620014381 8.138720472997031 2.6839802464933005 1.3713186970074382 -0.8934660618563321
Ni 7.050286238510161 5.899349162472087 7.804461042061239 1.5786552841470103 0.904570913520242 -0.9173642086301685
Ni 4.062074403408524 0.4862924380923408 7.575398251259228 0.4791096474866587 0.0806015130031515 -1.041396539123445
Ni 1.6813833677615244 2.13783925016518 8.510536954919628 -0.3264462835202507 -0.46680769019085416 -1.0018977096978745
Ni 0.470027778917346 1.382216504338785 4.330484140378092 0.541465584016061 1.0329270681998532 -0.06381143802900623
Ni 7.6426008488186055 4.926525757830211 2.9598847173061396 0.5455004162070669 1.3623221499357827 1.756615217896678
Ni 5.726443983559176 9.034675287052409 12.316100091664767 -0.6646641057541327 -0.3379830805152566 -0.15373371421245136
Ni 4.269258730525381 6.901802273906175 1.3997418236801276 -1.1107245360953064 0.018559251059426102 2.6651399738583454
Ni 7.882676013978389 0.5339534054456483 8.516019382427972 -0.1067005240830485 -0.9701319872505034 -1.2863853893981523
Ni 0.5611130382533891 0.3581029591374477 9.938031005543339 0.213948950249767 -0.16292078002835814 -1.115988355597407
Ni 5.384668110966379 0.4089318825628784 9.95502243111135 2.344833484687246 -1.8261604730856678 -1.3980975077631794
Ni 5.434945437334546 3.0838747909618975 6.254764949458947 0.6678142213473401 -0.03807366694326991 0.2077963003848099
Ni 6.178641760301184 6.875182125382482 3.314899851025053 -0.4071812367774729 0.4310529011887479 -0.1708300075731058
Ni 7.5919974093253675 0.5788862035697862 1.8270208306595288 -1.0623859968909186 -2.8144544759571786 0.876828196189335
Ni 2.6550826190821644 4.872456201693356 0.934162227788757 -0.5473063590675542 0.8688644612575682 -0.25652281905623564
Ni 5.564747778630864 5.339226576367129 9.199593489656428 -1.0750988164718969 -0.19676446805068049 1.5111340013665846
Ni 6.364917577342027 7.848713661381656 0.5667445460474811 -0.08061899650464825 -0.034866215749565756 0.8282975955787992
Ni 0.34087114160866944 5.213169877250205 7.690495685870179 0.8117872566286018 2.899334818841342 0.7713754284704586
Ni 4.585458016594712 5.116873330175518 4.953864286980848 -0.5026897487994438 -0.6581810691329504 -2.3683649921502825
Ni 6.947504699005482 1.5278958960671556 11.527029320227465 -0.2367158116326375 1.6569150363908627 1.4349195616875352
P 6.395628116205904 3.3730346402038713 12.92705719170587 1.7450352263685625 -1.3682475142812822 -0.5748819546929776
Ni 6.154201910956539 3.4995665327316154 10.576752445301246 1.2071344768856243 -0.24861179173927506 -1.6939137251023988
P 3.9216873618241714 7.846803570220524 6.4762861413057315 0.595358991600407 0.1518069295033837 -0.1610353900801872
Ni 1.3098380256086293 3.2702437831813334 10.489216228517767 0.5111808169895906 0.10653365948788103 1.185921590253435
P 0.31938960418431644 4.999789400756989 9.889141989336194 -2.629721999370368 0.7308905809825348 0.28224104975794617
P 9.028190294622416 2.169705161243596 2.2489394696145406 1.1275719466699485 0.8451897433484477 -0.09813823633533421
P 2.2240728779519454 1.5268336990312086 11.231349071987633 0.1732609856121016 -0.5792777697678281 1.912435896545145
Ni 2.0076642081544946 6.856379374342644 5.984340765128223 0.3782149314521099 -0.6567080841318496 0.6147757055641219
