# total energy = -340858.92729859956 ev
CRYSTAL
PRIMVEC
9.35366871100388 0.00000000000000 0.00000000000000

0.00000000000000 9.35366871100388 0.00000000000000

0.00000000000000 0.00000000000000 13.69003964187939

PRIMCOORD
 96 1
Ni 8.305225240449564 6.197506972760637 13.355632904658618 1.2606633020416997 4.811643188669688 0.1254171266559453
Ni 6.304054611785224 3.902603089045017 5.6033469774077895 0.9068234569998447 -0.21350980582981935 -1.3642939289501728
Ni 8.05898056088137 0.06993363865606486 10.44502097923593 -0.28695311052163486 -0.6508238574369307 1.4465982835770441
Ni 6.596562536249882 6.1420677789674025 4.252140330964939 -0.26303490914314054 -2.2575504458988607 -1.0845437639348805
Ni 6.983037415471894 6.977565519340792 11.635862718996227 -1.225844908810934 0.7854388485420601 -1.10750062984137
Ni 6.165676438514242 0.1445076323046763 12.918838094468246 0.2949109319161308 1.1340552404014468 0.5135811989009671
Ni 5.263777004748214 0.4900882724067243 10.884964234277117 1.1814476136424814 -0.46633743542265493 -0.3061479382825308
Ni 2.4536262861919815 1.4153316568982082 1.4734862206860733 -3.82135066731091 -0.3343953631639983 2.1290495381112686
Ni 3.1818187403841685 5.918851831492837 10.741218925963356 -0.768757017011005 -1.206772208450199 0.46383446649514315
Ni 3.170500801377957 9.277052700670497 10.289378739829605 -0.25948807233214666 -0.5385563807890661 1.017390663127151
Ni 3.787281708873465 9.15616588768184 12.757433059837354 0.44918612045434897 -1.0337706471470711 -0.11080400472846079
Ni 7.980138488250498 5.0692674662075845 1.9026007335888397 0.31055532332160707 0.7578503974008303 0.5474647390222894
Ni 4.575337642106769 3.2478182260269994 1.5726435261496634 -1.509099487435059 1.1663040731328238 0.005350208568319818
Ni 6.060597325459882 5.867659203244082 13.600396898487404 -0.1371539554768993 -2.3114824200306257 -5.921672241359866
Ni 4.504530370803447 4.32724093615574 12.008614831014922 -0.5510534848148122 0.2713022913582554 -0.19340892131488627
Ni 8.527225211006106 8.050431307780809 7.410650664564332 0.3578672210336934 0.5580165463962067 0.6287396239433817
Ni 1.3579469000361373 7.790146771643753 0.2372165186353061 0.17819801790240278 0.38514148336861415 0.6002296894291469
Ni 7.6002111770486085 8.34258379283866 4.185126907645849 1.802513008870057 1.7179486545644158 -8.000484737692453
Ni 4.745462166606744 3.88079033386941 7.226519956702456 -1.6677393806998762 -0.011868983523444074 0.14772273213168108
Ni 2.283454993349006 4.833134102396179 2.1109490248234275 0.07627923147871378 -0.6211427854327303 -0.7387180474467536
Ni 1.4101590781623117 4.623247132676863 12.217880717139186 1.8172107200915477 -0.08180273240010427 -1.609426503891596
Ni 8.213493812487652 3.883774154152866 9.459967431614348 -0.6555264051189226 -0.95043425171126 -0.2662863262009027
Ni 8.110940189955338 0.40917810364835466 2.0477154189856677 0.12668802294856893 0.6147602789451542 0.10406848577684012
Ni 3.2435623068139203 7.10558918147138 8.864259404108173 1.1701141909075332 2.9085172566715585 0.003790063170051537
P 2.1176799247481126 8.6448195326475 6.670964422396251 -0.023764706519765522 -0.0906943784627793 1.735067059412257
P 5.3465102035167575 1.8683953028848617 5.256098578194331 -0.16779919116658198 2.1785954673601964 0.11731480926378506
P 6.652413291461524 4.068621353029514 8.002704213748418 0.1666877032699581 2.1515014393568817 0.5047959965091693
P 1.5994212086182429 1.4141156799801855 10.5088298356926 0.3469480030180283 0.3218527506122973 -0.2619432187408585
P 0.7367735097659871 3.586121711958112 7.080091080867304 -0.9309982544738352 -0.08044467571031307 -0.4317712674120112
P 3.304716592121861 8.921575879189463 2.94823238053259 0.38606836605825773 0.8639690808384799 -0.9774604025911167
P 4.659361647142137 7.16289910898465 11.534022781378109 0.43847901844949 1.0063205213559185 0.6632875371215803
P 4.6715681846653645 1.4008241168993374 9.093759146148336 0.7771956346966615 1.7672541856677628 1.6535900857826875
Ni 5.591370540132127 0.9211258995736868 7.275736154775995 0.4767696864995724 -0.1316386820856249 -0.7161039095916635
Ni 5.56580696384785 6.167921318978284 9.661868239082837 -0.708521212148399 0.17607017292612256 1.0695544896149
Ni 4.70352031660356 7.959036611888504 6.979291271197523 0.10048899595569791 0.3029458864054653 -0.1249188468632881
Ni 6.695599179388529 6.389023337349211 7.714186564308596 -1.789374671715886 -0.48383944886216024 -2.199335013900393
Ni 5.951281000529643 8.983338152956417 2.478376093308043 -0.5391454205233166 -0.012959131263829296 -1.2219586863826504
Ni 1.7789929384043934 7.7119594558148945 11.56308650045257 0.5190026270268546 -1.1427157442899225 0.43473703490855453
Ni 1.924320887445305 9.085657933773724 4.621387623359149 1.0913019085943205 0.34386242211416906 2.1042795302554405
Ni 4.268163165277038 3.58976964271218 3.708987761222564 0.0025891008834148955 -0.5622318700291349 1.154366184044657
Ni 5.767415936856011 2.9997121664073703 13.35904138149652 0.7145463352965565 -0.44156228536050407 -1.8104824002287787
Ni 8.232921382170215 6.538981352347208 9.233534757508185 1.0253538838382859 0.15722630074674213 0.9581105373095951
Ni 2.7242933944752314 6.643012854518348 3.6517358264546163 -4.307819069155483 -0.2315548362569883 -2.3893827320525305
Ni 4.649493526768953 7.499023190131921 3.883248477977536 1.9387938177133834 -0.47018174886940955 -0.8475435882926048
Ni 2.6898251256835883 3.050446464894717 7.985003331289449 -0.7447899646724464 0.4793832128630196 0.23185359844432973
Ni 0.22992533396147008 2.7359761265568494 11.544495148742865 -0.3320142645263314 -0.4366198537535642 -0.5715724307037705
Ni 8.692298754461985 7.560401963486266 1.7209337820362502 -0.5894575385143074 -1.8425312011342074 0.38320647112943035
Ni 1.6086719868638155 0.5201331913173449 12.485931604314969 -0.9269053153513843 1.2873716645708215 0.8293571471915652
Ni 1.142204533773112 4.614314379163696 9.099508846236864 -1.0085699795117276 0.46680820441148635 -0.46030845561975564
Ni 7.184674449485856 2.095876523241106 11.33899411423017 -0.7386080042314506 0.10464081334054236 -0.7047170079109606
Ni 8.792495252507056 2.8344234885736865 5.002217563580953 0.709120793405611 -0.5694337870942128 -0.5794670029604988
Ni 6.170661943878136 8.406085848965246 8.883494288217573 -0.2969482740611337 0.2937271960206748 0.5215459622739985
Ni 0.8831584233587184 8.637121463389557 9.596087629285249 0.3357842730917249 -1.2146603529490243 -0.5663726316703859
Ni 8.966782159534107 5.302781802810942 11.05500831722713 -0.9060757802005427 -0.4949265599142572 1.2624219366040195
Ni 0.8427496396391045 4.815418254067449 4.871655315792278 -0.5045918509181633 1.0219263462139756 -0.6635014529045992
Ni 1.305192209131153 3.0536828342303775 0.28261735528683324 0.321610295584188 0.14664158325236035 -0.7351946076745274
P 3.1779182605778957 5.350139426933626 7.932994127771898 -0.31547281522788245 -1.940112536524807 -0.9969323952727993
P 0.324032593747826 0.978908187351265 0.8055098788412296 2.550365928738543 -0.6035394705286703 -0.5087686080036721
P 6.83974856618582 4.139494100013037 11.815229603440036 0.1608045050163037 1.1413157786186021 -0.40436639303649713
P 6.384037831985317 2.041793611394897 1.3694285282428516 1.160921982885304 -1.7909139911785479 1.585348894117102
P 4.264010136418561 5.561756825343974 4.592638187549652 1.3199922788193201 -1.8403277657249855 0.8792728010750858
P 6.980483863944046 8.086218443845077 0.4885842024958163 -0.18294761677224622 -0.7100281357112288 0.4157543231584646
P 7.571906975864481 0.6423398069454851 8.527128868219524 0.05085667764055113 0.38491316940789194 -2.4359672646802886
P 9.033034194229144 7.42767340604979 11.136600368426453 0.7571443724727411 1.1127955596917223 -0.03844339157786283
Ni 8.69575025817545 4.239550293029104 13.48707065582827 -0.12013093855634148 -4.1620606598390255 -0.2972110408042172
Ni 1.1957917011835117 6.650495789398488 8.032972685338583 -0.8172809327533215 0.7602682628137035 -1.536874086445166
Ni 4.432048792820695 0.9634559268237767 1.1106854766911038 3.5639482738631973 -2.1394985013587347 -0.8360229892475151
Ni 0.25296716119114 1.322982886808685 8.85169181497698 -0.4153966827087298 2.0669615105312724 -1.1297201033612028
Ni 2.9793866445391908 0.7740020461615418 8.191585649892323 -1.9573427843601647 -1.5782595913704884 -2.021776172243886
Ni 9.087182581755554 2.8140231373567053 2.0218543960399047 -0.42126548278468096 0.12536287637924215 1.1140415162836814
Ni 1.081218614499974 8.67263734306442 2.713858441784877 -0.68908418646971 -0.08950704302289746 -2.528207904584265
Ni 5.400452810333965 -0.11430463639471276 4.750485086645037 0.2365918844602635 1.5726928959159883 1.7571919163357543
Ni 2.8664972182036843 6.834566633781323 5.825768798418201 -0.31385327734658847 -1.193377532310848 2.2249874243611742
Ni 2.842261862860633 3.9703236497102803 5.565329926749241 1.1993589467052634 0.9361121786616329 2.0509815901632487
Ni 3.882025018124633 7.561561818392687 1.282206503913084 -0.047471820328718245 1.9949850201929704 1.4082232833432715
Ni 7.641086708831371 0.2693557239455058 5.859350339426547 0.2846422030002711 3.191851025273051 2.000853820268922
Ni 8.046109912887529 1.8454133391342327 13.462497633048752 -0.3655494201692995 0.46144102656230207 0.5090714839560717
Ni 6.84076811606324 1.7727072731050761 3.5161768488997267 -0.3522269920287805 1.1280131479724251 0.9697383513565104
Ni 6.042694403759149 6.632630282372156 1.7809787222482105 3.2515479269130516 3.732347560507624 6.49150506366471
Ni 7.742227927405059 2.5416349540510232 7.110181832754066 1.0862769445759033 -1.4157198488306326 1.0774734873516605
Ni 5.042721754720289 3.7919866041793533 9.683143158313934 0.015280837418470456 -0.9685705563006545 -0.12402641695600576
Ni 8.467632988354394 5.555368269690055 6.492063350648732 0.35325903283772064 -1.3318090689485902 0.06215333360029296
Ni 0.19069978931977818 7.1575207495395485 5.184951768720824 0.7164142417432307 0.8483989943143646 -0.6266290053582821
Ni 1.0074836449247981 1.236265025216467 6.454073425629124 -1.2175132490167868 0.2995198914430519 0.05426596043241622
Ni 3.2070362309302385 1.5236658466254296 5.756852838905834 1.1008669265749362 0.2618899969054199 -0.2550986850151994
Ni 8.620958324048454 8.86618345373923 12.952009009425046 0.3880869391501833 -0.39645356594732367 -0.369697380899402
Ni 2.5093273827060205 3.587477993905137 10.45197543184016 1.3414442780455091 -1.853311836689479 0.7939425151376971
Ni 3.189021065206303 6.126241371695906 13.472559374361959 0.8790424302318345 -0.7045144049818511 -2.564866179237247
P 1.6620440198964115 2.847397026922128 4.215970629854924 0.29765944119554544 -0.6024480372367044 -1.0041199141601738
P 0.6094682093838918 6.097104694006363 2.9718606827834906 -0.5745258569051396 0.5479190529508885 0.4173831170111392
P 7.523913302276985 4.025304513742106 3.6839620208827975 -0.014266794331659302 -0.14790965133150655 0.09072368903881795
P 7.193859752051226 7.420845227971663 5.725503083225489 -0.8843093350577286 -2.6880600729896282 6.615722770695917
P 1.221467521490991 5.6202359614322654 0.2330784556465889 -1.3695212387873832 0.30279856219432366 2.3118516304445866
P 3.341252021674143 2.3672264493321693 13.440127399224572 0.6885794789191496 0.23274242880718626 -0.9228637982921589
P 4.609366288474204 5.451823158286123 1.3093358843210303 -4.067630725593214 -3.5882169166025757 0.4481628213961572
P 9.306806720487652 0.7215101933442223 4.272976563138688 -0.899108090633458 -0.6543226146188086 -0.06846384919935307
