# total energy = -340897.90891580697 ev
CRYSTAL
PRIMVEC
9.01891773516343 0.00000000000000 0.00000000000000

0.00000000000000 9.01891773516343 0.00000000000000

0.00000000000000 0.00000000000000 13.20009775159534

PRIMCOORD
 96 1
Ni 6.251219118515668 2.148080663248037 11.34859852382479 0.9277810330881183 -0.8409757052671001 0.444011518231945
Ni 4.609839275347829 0.34723643878512167 5.938974275646447 -0.6985710429142228 -0.501780349611297 -0.3822137681988579
Ni 2.605808761583985 1.457583324489003 4.654842771523084 0.555387593413792 0.46080596408146446 1.0121044750275474
Ni 3.4700284882321077 4.343375359337907 4.906396613207483 -0.4843022474311917 0.4226955303629881 -0.2603092826818614
Ni 5.125144142673703 4.722521629946846 2.5404116892746416 -0.32796323438540936 -0.4847223656877459 0.17019083132721013
Ni 7.27481213539264 6.175225720096321 2.5768039230702633 0.5494041221368473 -0.7873417219917278 0.0713735666469803
Ni 5.258642158743389 4.48811094654817 11.587718885914967 -0.8343877676369372 -0.754046707384024 -1.2416759623059195
Ni 5.553407437706066 7.862385588231714 12.348440221601672 0.6203097480084736 -0.35568512578071 0.46766849552925266
Ni 1.880254890703422 6.473643660625559 0.5290388748161392 -0.34201714137531414 -0.16338486414897022 -0.8076554938484154
Ni 2.9302643167864546 1.6353371684774802 0.377181048496956 -0.5704354888858498 -0.5774862250850442 0.26432765981263506
Ni 0.37000559777509123 0.07636587970996161 4.657430298939001 -0.6914218334639511 0.5778032421048306 -0.25417668742156224
Ni 8.796339584590065 2.1996057386301553 1.242770748705475 -0.38879193563700787 0.3300748814117735 0.2006200943513448
Ni 6.844438413677375 0.6104796993742573 4.780309441605063 -0.30291580449847827 0.33377675574339294 -1.027627767474127
Ni 0.7775876132067653 7.454965011422364 2.594135576730655 0.31547024412472124 -0.35216991353859994 -0.07166307286294109
Ni 7.541221937897872 3.857003179186169 3.697399906562389 0.6575999998184997 -0.3784746128713998 0.30219178184826023
Ni 7.797097644823495 3.8806327429007066 12.498934387602674 0.13236784694216558 -0.7104513392915764 0.7572582723427861
Ni 7.586118108955493 8.878510941461496 6.91403920340937 1.0593783204128464 0.08450779003609317 0.5352021196048524
Ni 6.885988566361678 0.6566466359003427 0.2569282145918384 -0.56360561044821 0.08005875312580406 0.3441254459675686
Ni 1.7771867021042889 6.736978012280922 9.21188620602033 0.12662091715605936 -0.6208586785334081 -0.4631148147202992
Ni 0.2053012254425543 4.714170112389724 1.3385426330889363 -0.44274962080038593 0.0728727769003261 0.5113417680474871
Ni 6.141972971464452 1.9565368944811143 6.856315426065038 0.9629254421997352 0.4281529539331336 0.8645293242173241
Ni 3.3903463525764077 4.390418032748221 0.657423164692641 0.43547057064046935 -0.08770958480284248 -0.7153806582723937
Ni 5.976079003920485 5.6253152665213335 4.743784629722951 -0.00897366425352003 -0.07592956144877892 0.3084243930215333
Ni 5.162527555496892 2.8619369981981597 9.21657153363472 0.3950947379265841 0.6787735485723213 0.11872840178186005
P 0.3462641994841953 5.526359704278624 12.380569213119484 -0.0072253141038456205 -0.2286165795642708 0.636574032386136
P 4.091828732787467 6.056383444880117 12.453698203357252 -0.18469108182591418 0.5953854739629681 1.7147753990427563
P 2.494731774290764 8.428944963416257 1.3784594598233524 -0.831804323180477 0.2655054821708202 -0.005535070885616274
P 6.204934034171011 7.600900114653251 5.826074565136926 -0.08050586796555168 0.7970301529240854 -1.118837395010428
P 4.773162851419032 1.0013523664494723 12.624493952534369 1.0011824287984048 0.5671002538650298 -0.5923091490304896
P 3.862991740371838 6.2513904779471865 8.177182784738802 0.8036471440199707 0.17621672580631587 0.5159211598880534
P 4.760824972349762 1.040728960028735 3.5967884710761715 -0.40028939475364617 -0.3933366175848968 1.9818664805331416
P 0.16675707794376923 5.557502026227592 3.493656248163155 0.5876935046353491 -0.21586750742871855 0.7427724200217853
Ni 1.5363816062347702 0.9023426907020725 2.6135794608574376 -0.5623606822975153 1.4278464568908378 -0.7042017588374389
Ni 1.7297111206564557 6.448913788982329 4.785232868640088 0.7064075082395059 0.30311429366252957 0.37122281640499294
Ni 5.894493876683193 5.592495425926983 9.208757543557516 -0.1046724379094262 0.15915385678675814 0.007048165096033022
Ni 8.645065282229787 2.4813747575498373 10.271590066468537 0.501772122081181 -0.24955590082009924 -0.3547016788215181
Ni 2.357265434543828 5.277103882760052 6.991972570971845 -1.1986668057342453 0.014849920528638942 -0.2036858777608621
Ni 0.498670375984235 0.02990402458331696 9.30299260440779 0.5558629903883137 0.4629518067798737 -0.007236112737123022
Ni 1.47057056561455 0.9752606382715503 11.495080173453044 -0.23391510895904874 1.1315764398436512 -0.09758493493502549
Ni 4.0864534579882825 6.881208540114081 1.456683236527663 0.5338803154696354 -0.2960815551854643 0.24342819065580654
Ni 5.623682842463192 7.841551888926149 7.9644373448344234 -0.6170125653144406 0.024314922596280705 0.891935998365051
Ni 5.279187252690608 2.9210289453193985 4.837320724470979 0.19474640917938718 -0.7107236191163567 -0.7637317958822718
Ni 0.5230079247184634 7.451140990424286 6.836159047459839 0.5590280183798565 -0.2911512077633825 0.708382886798322
Ni 5.055013040595749 4.494090488816391 7.010492917951923 -0.01871428858005164 -0.024016160408939287 0.13402235182645306
Ni 8.115790111776501 7.222791019550866 9.021368790059023 -0.44006384643810664 -0.26709210993164967 0.2388912220174015
Ni 4.7439595967214485 0.26680663487295764 10.35395803574034 -1.1005668788360141 -0.3761837599546941 0.9126416063435185
Ni 8.178624909638785 7.100458423282171 4.861200112198834 -0.6933074805224382 -0.3265470707641731 -0.7159678982344314
Ni 7.168289701410809 6.056203066531151 6.975617666071105 0.20949220002999405 -0.7901005156837877 0.3878740518084287
Ni 2.3696574271177875 5.175523815539887 2.716699057286026 -0.146966827802263 0.00015066664525135342 -0.09490584544096559
Ni 2.44096098846402 5.224821218312276 11.467188269352441 -1.131791641178251 -0.6407335630804643 -0.3175186420133177
Ni 1.0116249134230821 3.413443800161495 3.8464294003697863 0.20419855573122253 -0.4360254147026748 -0.27779355550955387
Ni 3.7445553164408074 2.7536648942313593 2.6998156438228147 -0.3256896078598842 0.03963381234153819 -0.12090432638725628
Ni 1.1978114452257167 3.4117031490939738 8.278229833937772 -1.1655581961057344 -0.019406429551069804 -0.6637032845027602
Ni 3.596924656729641 2.463878057700142 7.012063111479671 0.16841856991813575 0.5823489524939842 -0.43655917571895786
Ni 4.155015268430233 6.830134410604377 6.088491692887797 -0.7544017767305975 0.19260108070161025 -0.9367366996195093
Ni 0.716415001830204 7.395809931878987 11.358643794078702 0.3890698718887428 0.11948636299380712 0.1937778746185308
P 0.14780652860140844 5.534918656937058 7.970482725200017 0.42622899743754333 0.268516243972686 0.21602665871440213
P 8.400715751803089 1.5235386677883958 8.07665071572613 0.7402159721485188 1.1612829657691484 -0.34286637674948695
P 1.88317701995667 3.215857356704214 10.36272352160834 -0.352078125155742 -0.1586200957704752 1.1800026536658388
P 4.074746903140393 6.21452114341855 3.768284990139021 -1.1320232975730826 -0.317231449790202 0.09130835789769436
P 7.002747471647325 3.9626147025057223 10.399063445682762 -0.5080119323433058 0.8477436201185529 -1.262257386001697
P 6.340641685015529 7.658359637716348 10.260580673939401 -1.0669479052299882 -0.9178367773912128 -1.3026360469290597
P 2.07701159375546 8.513650636090658 5.702798590103139 2.1470084365825346 -0.3318201462376544 0.6026586105856137
P 6.999978663990698 4.095959396978787 1.632020010639997 -0.07008904350760187 -0.9043181740794878 -1.6080324517575468
Ni 5.428116636514329 3.0151774245621663 0.3727446430041389 0.02624453551882577 -0.41543859169025876 0.4585899302667522
Ni 1.4395094139226166 1.066054080223552 7.115129496295315 -0.4966828804837317 0.4149397976769693 -0.33184765704148006
Ni 6.77817642718474 0.7668478863093336 9.295799115851027 0.5560373111826489 0.015603510865211835 -0.8213761858686177
Ni 2.8185920809416465 1.6282933939503605 9.169209590546737 -0.6327682854868006 -0.6184343853626317 0.8489219566973704
Ni 6.386602088332048 1.8838534387652925 2.4526576225027164 0.7068551372998858 0.7785845446243882 0.16902535026419924
Ni 4.062390986236227 6.845150908155791 10.455414543791463 0.2495870111683508 0.44873694873207237 -0.9298011488419407
Ni 8.173204540252359 7.083917728681994 0.31719983611531477 0.05424204917301626 -0.14101138154977652 -0.09438725393333422
Ni 7.391715343357459 3.766732834446169 8.159732983259838 1.0704556612729306 -0.34769773669985926 0.11561582429480732
Ni 3.2321815972856305 8.346097187736204 12.490856143244233 -0.6204596433227766 -0.30811303242870164 -0.17045385518060968
Ni 0.20116064044204132 5.055500062137956 10.175440289443992 0.09218716095822188 -1.0975394048636002 -0.34296047912519
Ni 8.528793398486348 2.2619084203629884 5.818074785360287 0.3494121482878047 0.3191091264288891 0.0354331439966293
Ni 3.7695196799376927 2.52032746200903 11.399445376614796 -0.7119996576153028 0.6281626683939892 -0.29818291779918327
Ni 1.2563261816302649 3.2792062328610494 12.656992719667562 -0.2748732965389653 0.19781219258890448 -0.9065264945847162
Ni 3.1170821728104694 8.42669925297163 8.066288881469783 0.14212518343924557 -0.14961275006554237 -0.4459606715385158
Ni 5.64963928687939 7.8232795621759 3.510420611916049 -0.4629332948371124 0.6373173383100637 0.19078485342847787
Ni 3.07779576840569 8.23895244845044 3.530089067087294 0.7180463780300149 -0.19065038473314264 0.6156822765387913
Ni 3.2611864357993525 4.450420890531739 9.20921931213087 0.837468720555106 -0.16826533216972311 0.07963760642798542
Ni 7.305025508844434 5.968277640327708 11.394997246529297 -0.08562930523504607 0.884967794577334 -0.24998116128297596
Ni 0.5494892701301518 -0.05644218917492964 0.38872977228949973 0.41006652874506794 0.1904416111564462 -0.020918238209905907
Ni 4.6425779456851455 0.31871321046313894 1.544424676815161 0.1792305729319752 -0.7284251501611777 -0.12403181627264444
Ni 5.984583843074228 5.582403257302339 0.3276103725258835 0.5247606125565544 0.6552091309888199 0.666530212428594
Ni 7.766776044362321 8.722312310174447 11.31010758793895 1.2404683151510636 0.548295719564017 0.8901588518599702
Ni -0.003348724048552519 4.836737200512075 5.839221441101309 0.5872265923012596 -0.502269887653206 -0.21024964702130886
Ni 7.845051228896087 8.738762815600142 2.382050321583492 0.09666576555486577 0.5850190431269796 0.5413879367005903
P 8.455298240200179 1.6776719669797842 3.398088191314025 -0.3136774138903566 -0.35785256574567403 1.035399955220378
P 1.8558857757581246 3.0292198790291645 1.5978716835055113 -0.28101514777064507 0.9574842165795059 0.8546267203916313
P 4.738304735481366 0.9796257943165259 8.290954624565574 0.2579379542362074 -0.18441237424323081 -1.4861678183395501
P 8.459149317950603 1.5835415255719132 12.301790772992103 0.2586807459395029 0.17377006403803621 0.12774294657564453
P 6.285536099406436 7.616710276940115 1.3101357488020369 -0.2893779179130435 0.6750310508107537 -0.2516312952918892
P 1.8488329823135567 3.3071648769507687 6.028167761643122 -0.7172256819009325 -0.8156002026167889 -0.6232271787655848
P 6.967826223287521 3.9497988208116928 5.860077687700494 -0.8594161713604747 -0.09040281536428946 1.0391581367112295
P 2.490213296649168 8.502963218914426 10.38771133429059 -0.2948137442166342 -0.01480852576774224 -1.352697225251509
