# total energy = -340870.7537649464 ev
CRYSTAL
PRIMVEC
9.20330795998196 0.00000000000000 0.00000000000000

0.00000000000000 9.20330795998196 0.00000000000000

0.00000000000000 0.00000000000000 13.46997148405887

PRIMCOORD
 96 1
Ni 5.939796356513443 8.766030902212929 0.11425906458668046 0.5940467005468866 -1.1061112056930111 1.277896892311167
Ni 0.15117169094546082 2.0397658896982955 8.684925833137086 1.4065032153283712 -0.11740634053632683 0.15732451688750326
Ni 7.656967906147919 4.474795436735999 4.71512325029741 0.8585805628330568 -0.1795434761867037 0.6405314743719872
Ni 8.219234784267826 5.430282837895014 9.72705685392114 -0.6918319244181763 1.3914260092802744 -2.1097243554200955
Ni 2.021414494226218 1.1967337048247944 1.0067102505967984 -1.0525780096615613 -0.7764050204745662 1.480543273063921
Ni 2.8656983289413454 2.2338176316886424 5.967601389612861 2.149611935643653 1.037829133487161 0.9015701790207054
Ni 6.643021094738836 4.856051659818386 11.640668403883478 -1.405567333777663 -0.3594759602817099 -0.5612990738022204
Ni 4.629217735946624 3.4386502472533707 7.790276897257995 0.6164970591306028 -0.3926755869621302 0.9064542465858841
Ni 4.61784244768008 6.331691603249652 4.170652808197739 -0.7252961176138929 0.7510282322726743 0.32874382130517577
Ni 4.9571684010679915 3.822639852710484 0.029455186162679885 0.4786879865682078 -0.4845840403376687 -0.5761091422318594
Ni 0.21085790210647562 8.241755278109437 7.866772949858202 2.0367456490695246 -1.1054141796259864 -0.9451614333480948
Ni 2.6945352130989706 1.8669185685543208 8.392182421465284 -0.3299347562894834 1.0283947275471386 0.9326612439985551
Ni 5.9275191440963155 5.706041545282102 6.039719428759675 -0.27705642023321314 -0.8958283914409217 0.6121362110587457
Ni 2.7769968497237514 1.92555284164991 3.697452780609489 -0.5265719547336802 -0.038793061607797705 -1.8165484039172006
Ni 0.7151411809822866 4.2092984173887125 7.898939430457229 -1.327643624716991 0.39697370011685185 -0.4936286670384402
Ni 8.944749933643356 8.630318927473082 12.718010359440157 0.5888836682887084 0.22085313356876804 0.38186924037524556
Ni 4.141801359017491 0.809371087110651 1.9633425432285945 0.9685291615397578 0.42897287873126766 -1.0929337877707888
Ni 7.816728123800773 1.9340382913115226 3.6086049688001167 0.4566148088182523 -1.088897412917886 0.9436007737291943
Ni 5.537225272892776 2.9402727309023495 5.767100889945842 0.9957057219545495 0.8585558802427085 0.44325509968189464
Ni 4.5613249353460645 8.61837303413168 11.051532469053072 0.6559058999455285 1.909482470343776 0.25495753145164474
Ni 5.419524171241624 1.7664000423025505 3.8043105451767887 0.5217994730457013 -0.9024669798033619 -0.2580976197425232
Ni 1.1744524969823171 6.045137415978537 0.8680762256752147 -1.7814682723846158 -0.062318141312931376 2.215999619040267
Ni 0.8706706381042914 4.281590399050281 12.435207440370856 -0.5071943215380168 0.12537393212283568 0.09842440011718533
Ni 4.463180862470321 3.360735044612143 2.448019095467638 -0.39113755305104897 0.3953899005694997 -0.5573604008694465
P 2.773370746506099 4.0477619613576685 4.245694738187822 0.2980412500149964 -1.430880615731471 -0.5095679639765159
P 2.7527737439652222 4.3599289538438235 8.16103766828604 0.7999740660437576 -0.1974147000401697 0.4257988518786602
P 1.581680454278446 0.8166766727303778 6.868513176353913 -1.9170975636868726 -0.5780145867846884 0.2380831242938093
P 5.608836209787578 4.284682710423711 4.0029786662888975 0.33706134003193566 0.9579570424508663 0.33455014357430773
P 1.2916382134045645 6.897372908511055 9.515820695869879 2.7646552930468644 -3.2515109030275293 -0.11185738569363961
P 4.682965052675276 5.771946431428314 12.226948552347288 0.32173319431529757 0.939215500177305 -2.043211973520159
P 7.469892271363105 7.620375554895672 8.582957785929022 -0.7497347102722314 -0.055499575729201195 -0.3971577911031999
P 7.960778295279687 5.536967580278325 1.1146402005063738 1.0517002350422984 -1.6104014662103556 0.16412868429353022
Ni 7.849537915605164 0.5113919137116347 7.788040493496855 -2.2381417023549455 1.7601535700672397 -0.3012697842546231
Ni 5.861163295874813 6.052058303338117 0.47832811061585473 0.5641447707811317 0.7975849969862908 -0.11574257968065872
Ni 7.903579738178904 7.626808666949324 1.1931333708685872 0.08234369250523883 -0.3195019909919336 -0.8354684022956256
Ni 1.8249790955521858 4.414090419417131 10.147804470168362 -2.0309452403376635 1.3011656330311203 -0.10985449633099792
Ni 4.043105087682206 8.997770189066944 3.980430562524309 0.2812396050766253 -0.7832755223421543 1.6839823249213
Ni 6.0030506900538585 6.890626883996996 9.988334156706767 -0.0576364195665459 -2.087233116296115 0.7511403323705065
Ni 7.808408333677023 0.9977121766985788 0.8446077911447246 0.5222905537495071 1.208095555247313 -0.6259636038601414
Ni 1.6166806333056827 6.884994459709678 12.292668452009554 -0.07864207528393553 -0.4305255679303682 -3.0871773018120443
Ni 6.560007259654514 9.106433642596944 9.808374519403905 1.2341981658716357 0.7078655808422712 -0.3771471523092279
Ni 2.0525584873443274 6.397329593473751 7.454981992624734 -0.3724417764137586 0.9078303009978042 0.5299737813263776
Ni 7.194740982281512 2.606487168725167 9.099046147539052 -1.1485526626866733 0.33951083001369275 1.4291790596593321
Ni 6.495979848270742 6.088024829669551 2.786223165651915 0.03586560354835759 0.09245764101078917 -0.22985636550864286
Ni 8.37852563323007 6.209075935308585 12.482985491751872 -0.3201943890732679 -0.016839954375474225 0.14198737230980063
Ni 4.420293448779308 8.06715932851025 6.6805126091493685 -0.05804728185171939 0.15159249949973247 -2.2998960007446065
Ni 9.166365582072455 6.645993763112698 3.2610530990265776 0.893847613565467 -2.1029045042847847 -1.0183370862008203
Ni 4.931362326392111 1.3383265931587514 9.323617898388228 -0.6053703530898219 1.036425054050783 0.1126307735245544
Ni 7.198937690574024 3.772831551659891 2.425443381780073 -1.5078113647512548 0.5392120120951939 -1.0749463500544327
Ni 1.394273500417908 8.951219858927644 4.420615564547373 1.4688411541356445 1.2997821224200325 -0.47526919069464596
Ni 6.319119884987435 0.8992239001163878 11.964715025895888 0.0054561380185647965 3.035496585608301 -1.154552331913534
Ni 2.9779786823813374 5.143360518317539 13.149372150410521 -0.44227782337029 -0.7760082992567797 0.06974760100778311
Ni 2.9353857745354124 2.4959186305097516 10.965943548485757 -0.41647963136026345 -0.44776712861963525 0.9660053666766397
Ni 2.1198346663317325 8.747164121511947 8.992269372079152 0.9772488008009428 0.8557333231922489 0.3150388130142574
Ni 8.864184178396332 7.683675904974383 10.21496560781003 -2.3853779817685115 1.324434887971706 2.268314883504216
Ni 2.3406588303021563 8.147034835682849 2.3592651573963885 0.0744635184262137 -0.555377823221779 -0.15263276783878876
P 1.6991238633151458 8.242049783954528 0.3510058711379674 -0.8983084775502981 0.37626963480028097 0.4777711311808933
P 7.489918668829124 7.459464923785441 4.042769166952652 -0.5823430389567132 1.584571135410813 1.0697861460097318
P 6.969232334712649 7.986694809647475 11.79884565261898 0.1539211476329091 -0.17893335340653055 -0.10837534068231013
P 4.21933002273704 8.465993869221357 8.736636457880799 1.1397476628005339 0.17084003487543484 1.6216577558504652
P 2.8215500621010468 7.533763226516675 5.069099949147707 0.3590152185952075 -1.1860028371133318 0.9875046742009962
P 6.076097342943466 4.854201794978923 8.73103348417799 0.48996690191613684 -0.048295858891910376 0.08296744213216678
P 1.3959761123348262 1.1425998491744636 10.370880683522946 -0.6808000920840469 0.2582182044807875 -0.3030024506750137
P 7.743359355143099 2.0158280864771956 5.826893859475701 -0.007607122923296576 0.18699196204494892 0.5831904745586731
Ni 1.0985436154107553 4.671138802333441 5.430149389933957 -0.31689129284196393 -0.43777530751424604 0.5548497186324509
Ni 4.116464653032221 4.628113339027542 10.043089235624082 1.7925124460139192 -0.6101112102089169 -0.16996380291806856
Ni 4.0923519869656 1.4556411558882252 13.15853220252354 1.418249814341338 0.12457277637777898 -1.2076013892197137
Ni 7.557480150353958 7.35353485263017 6.519277101278774 -0.6163031979522419 -0.30230902415241484 -0.1292688963018677
Ni 0.34083621617475496 4.0420835205320556 3.245090882222781 0.15723401405622597 0.12315686986685886 0.49997312119922926
Ni 8.70309868444058 9.178274662183222 5.615482838578919 -0.5359431115359351 1.8751998950118223 -0.4616739685087146
Ni 3.892732243841548 5.5836375534171925 1.9147702463966072 0.0783512835163941 1.3787093330445546 -0.5661759422785475
Ni 3.4643274756220244 5.026119582049337 6.198827131899505 0.6594936172967868 -0.2714334176194809 -1.388509092743796
Ni 6.329703688795305 8.813446343272178 5.209969457499666 -0.22121591622482545 0.6639961331528306 -0.8149641116946867
Ni 8.510988840366284 0.7958072522827936 10.875843166503993 -0.020437956139377704 1.3277912060384487 -0.8860643700756224
Ni 0.7907334687703783 2.041993090151777 4.9795655705869715 -1.8336143582605517 0.4451453747260721 0.08421571271697109
Ni 3.914442846609166 7.938552307283165 13.282293682268156 -1.3633624182748392 -1.822979761364841 0.3887446273388402
Ni 2.151779347216176 3.886796110401483 1.7067938999181693 0.3007015704559789 -0.10333597848618978 0.6007199988020042
Ni 9.032144543173368 3.152721884903069 1.1521832534397967 0.36335935449651613 0.9073155661449149 -1.0776357239611374
Ni 0.5122257333855416 1.893976293071827 12.713470367771965 0.7729355738687269 -1.0991563716417327 -1.1983942687991491
Ni 7.647746191873585 2.953709560084513 12.689292358220964 -0.9556602759968895 0.0875424630973589 -0.48486866145762303
Ni 6.448656440288083 9.105393668831475 2.3267756406985307 -1.288272579118536 -0.29411260438455156 2.681112952247834
Ni 7.44180377638779 3.9380585340622005 7.1633843927564795 -0.0985840656235012 -0.2637288498863716 0.06645376074785975
Ni 2.4131808946552002 0.15810730359729508 12.103321440894495 -0.7045293173801865 0.195673806089663 -0.923455666239887
Ni 4.514590539053583 6.314490621234952 8.140698358359614 -0.26508922056900797 -1.191338133283316 0.321658118102988
Ni 0.611907678971107 7.165005095235232 5.621005743505094 0.9733849469701622 -0.6303427067644435 -0.704214100132613
Ni 8.833988125967101 8.840577694250957 2.8368974979532213 0.4722244903310512 2.3015952428239004 0.2617706977187363
Ni 3.478224470187138 6.795262210034274 10.549034631863108 -2.0147552608413624 -0.5406654567122688 -0.1121414925929617
Ni 2.1954858552888417 5.991592572018384 3.6476546031973203 -0.2624720946611351 0.10989769086410749 -0.5257610287966107
P 5.00018466106623 2.8198842634147647 11.000386927399623 2.093483982301833 -0.7074223226572655 0.6288694646530266
P 4.550455829000767 7.83864119933689 1.9783485363666198 1.0041104010784772 -1.142447321119884 0.26799148181746746
P 0.5481388805325528 1.8056981660065479 2.584604464104325 0.7811343076294353 -0.8325823389970823 1.1659765145900758
P 8.532220871135634 3.824121585243586 10.789352321786096 1.1096567569524243 -3.0709199594129175 2.0220728775486982
P 8.733782512175738 5.596328914678976 6.50762571378246 -0.8400925313311983 -1.772613135986831 0.8256141352093651
P 2.5219823978000844 2.88023955504259 13.324710806937793 -0.25987939423329437 1.4979046471605042 -1.6089631911019322
P 4.810053528138624 0.9393079862944649 5.889313453011444 -1.422564639666608 0.38636738535591525 -0.16485039295090317
P 5.941195259277613 2.232363509078518 1.15968947116649 0.3730560129589897 -1.1409715079053062 -0.03277410910722743
