# total energy = -340866.34172776545 ev
CRYSTAL
PRIMVEC
9.27359772025159 0.00000000000000 0.00000000000000
0.00000000000000 9.27359772025159 0.00000000000000
0.00000000000000 0.00000000000000 13.57284765321072
PRIMCOORD
 96 1
Ni 9.265436972414323 8.495886011286673 2.116957417172211 -1.1574990732466839 0.02128924839607946 0.8374196124847255
Ni 8.372528614170156 6.0685125296564175 2.755234110794051 0.6803000125191767 -0.19138880556106394 -0.8220978945259907
Ni 0.9761852659352167 7.295316774472546 4.038179788958826 -1.3654596671235 -0.8800562162083295 1.922854777885624
Ni 8.277548426133215 7.635425971529251 8.245559150734522 -0.7472566810453841 -0.007850863502986478 0.22542918297522463
Ni 4.908774943684572 0.9140623620452873 7.505526978568049 -0.5742363506891789 -1.3307580019762564 0.3259675441116192
Ni 0.07306667658104378 2.2919325866605718 3.70854975734654 -1.1213213377745463 -0.023112417647747293 0.17342939286916584
Ni 5.389295684098756 5.296522612323561 5.649181769199676 -0.1466377265976184 -0.8535072620752074 -0.6127797581800157
Ni 4.35449200685896 6.800811448668817 1.8029088844800256 -1.6567211752125015 1.1305009473912853 0.8877877805246325
Ni 6.494337590609377 6.770950463951092 1.3426259164104035 2.264513507480255 -2.973700635347427 0.7574624179337923
Ni 3.538267028313822 1.241846020347853 3.7108570284638596 0.751399499569164 -2.692771362422369 -1.9452236324991272
Ni 5.548616093244883 5.187149800596587 10.016775514943483 -0.02542203961753041 -0.40024002957294946 0.2728606369843107
Ni 8.793689055460687 8.764282477032145 10.329914307697528 -0.0323295653706411 -0.2895383547503078 0.984187436902305
Ni 5.9603360120377 4.993962212509736 2.79098475743545 -0.4545201310727527 -1.2247974413830263 1.5777646540119408
Ni 2.203592294604343 3.422430518963166 13.07109984527764 0.5310253625193435 -0.7124205472028053 -1.3406935159224136
Ni 6.693256262098575 0.7580192423399198 9.978933672012069 -0.3322785739313116 -0.23926043243136214 0.38420431626632545
Ni 0.27978815320735156 3.5876674834664075 5.805622726248021 -0.38779331916916443 2.8712059218156103 0.22100251466243875
Ni 5.3652028771743305 3.1527635703275307 13.18283186026927 -2.066397924718319 0.16165219772857967 -0.8457615566915176
Ni 7.525246356799034 3.093672205538292 9.849285993549577 -0.49238605288059073 0.37378363515363366 -2.0594811429938273
Ni 0.2180120818728392 0.8732112366477551 12.984845185352786 0.25007706343089187 -1.261085734291099 1.0162223538506627
Ni 8.939451464713239 3.491222066986796 13.357541804862313 0.7083101245788576 0.7774586585500611 -1.082485338743955
Ni 1.708307986590587 2.685680273036322 7.706486768919474 0.598398292647363 0.9594732219850766 1.3472056060093185
Ni 3.063060059403754 5.972753359409449 4.460472536533219 0.6644882422979007 0.19781656346427867 -2.5308502273031186
Ni 1.5656429589826701 1.1397344356500647 2.0671721077134815 0.5541192682243296 0.08382979013246208 -0.17410970676564205
Ni 8.547308110746235 1.388118477476017 1.5618686047031314 -1.2856220288695663 1.35304715239176 -0.45223544880363403
P 7.672028861802811 3.440105996252602 7.495198045406992 -0.11839235859867996 -0.33685899421314247 -0.9025150594324779
P 5.121733842149744 5.354603154959312 0.48910345512109654 -0.6011578576703712 -1.84797088409254 -0.9773120499387103
P 1.062643017650545 7.492955689473842 8.186313844222825 2.1603102958977636 0.035889514807757546 0.7204693856492108
P 6.949754701945648 8.583150566005244 1.8566836956858255 0.6248372035651819 3.9591481699090783 1.0235160592985986
P 7.386327862677441 2.996484901239607 2.941819824650918 1.0290133349677442 -0.176001010251084 -0.8301852995198155
P 4.9570903879017605 2.118924347252531 9.406770311387001 0.36000380776072194 2.5990276556103047 -0.2132385544463037
P 2.5740261562656954 0.7313502299637595 7.389315815868761 0.09623459155471814 -0.7386414285725472 -0.045387941216496024
P 8.815602566916585 5.73377274569026 0.4490155468174368 -0.236842824128805 -1.0407097974690658 0.3527851785250956
Ni 4.6457200702364325 7.5989714588195065 5.928009177681326 0.601493386632919 0.8848996603435599 0.27546824981048684
Ni 1.7103389044953021 6.047730397124608 1.5043871364812833 -2.646556297318887 2.1796393352436785 0.004512286048056745
Ni 4.671862342261051 3.877958913472298 7.985163945117763 0.1282931626521597 -0.3236448095157136 0.22474372687242586
Ni 3.487586816673334 2.0740494077962963 5.864013007048236 0.7207169828836426 -0.4926238799230097 0.5515692481089661
Ni 2.225663457221793 2.8943362221508653 3.871668632126325 -0.8165756791561809 2.594482716552099 0.5026997761017729
Ni 2.7630869933589484 5.373335822390929 8.83056273478821 0.9908612493780549 0.8339290828329639 -0.6084322798445974
Ni 5.396223061609359 2.4643287686178765 3.2800279341712466 0.096852170534059 0.48410427248777266 0.23436325224006088
Ni 5.277270623418593 0.25332872414007984 12.255901454002146 0.5112597498566421 1.291529395492937 -0.34675722716346086
Ni 0.7903674059710908 6.146169637117981 10.020249404656296 -2.4325091309283593 1.472595221861438 -0.11382247983981042
Ni 7.929760690149095 7.732724559000797 13.447217494992872 1.160700096682485 0.9464752670635119 -0.4775374179035324
Ni 0.7913902838016389 6.767027732107739 12.509821833677936 0.45443631310969484 -0.12171679498622263 -0.24168703959498378
Ni 6.7941437318948905 5.519997770624107 7.880219276310886 0.07458358894384574 -0.44941006353969704 -0.15495010311805574
Ni 5.542680990692292 1.0901577821404493 1.1774946709213803 0.6958328180474532 0.1956159562685341 0.38004658534421
Ni 2.3219883169308044 6.764458945534194 6.334081475451443 -1.4296256602784476 -0.48474961938125555 2.3873446185765785
Ni 2.3888973246135343 7.764941037544083 10.126606442398735 0.3358837747840667 0.9674883789800691 1.3044170500888825
Ni 2.99105057296489 5.808471575473266 13.189102667059993 1.5818455089495338 0.5477668436437404 0.5435147532356058
Ni 7.583716390539799 8.241492678126223 5.312548316575332 0.11359802253383018 -0.7835493448288312 0.02255731647522567
Ni 3.8138505323065717 1.899640855129754 11.712159815725801 -1.0455100470711864 0.13338780356624771 -0.08580979667696835
Ni 2.780641913877785 3.1283183666890446 9.933872333241291 -0.06258219360759544 -1.6826705480884119 -1.028839528394041
Ni 2.4650150148505197 7.965018908750584 2.581704695193111 -1.0468580764586486 0.4710924336091371 0.7573444042986893
Ni 8.147959171336478 1.5350679072390858 5.996212779608341 -1.8684764602450592 -0.5774810828787216 0.07656796636372619
Ni 7.341267451266438 3.8283173447785135 4.997210753797505 -0.007525618953083814 -0.09987681629299573 -0.24357088688125791
Ni 6.250979838757651 7.438139453242017 10.708135209379837 -1.1745701697963575 2.36254272904155 2.7950693865623473
Ni 4.294853499803155 9.55727709324253 9.780689191078455 -1.4288692417283972 -2.1108522983769515 1.6191954103529016
P 4.140717031792808 8.20990680422915 3.867596595359383 -1.5234426435306085 1.4911680997676189 -0.4604586080443747
P 4.611092456281157 6.143739954510514 7.49123450973359 -0.189153488472642 -0.5065494888651663 1.7402486036131966
P 7.571336137559003 6.213996730976814 9.926855001832628 2.37146060035647 -1.7059824833414745 -1.6537304680152938
P 0.9745160183423004 5.13040465603517 3.6198783978510494 0.8864330662689508 -0.7774954253252674 -0.16106290088401293
P 1.0705997645101129 4.5728203184146805 11.411330796609738 0.34378117525427243 -1.2997515262924133 1.1077070894252212
P 3.400368629943455 1.9406857987200192 1.1701833664644066 0.24396040901019275 0.8423741282765235 -0.3691649054346997
P 7.097446019527791 9.188670130335648 7.19667629740825 -0.08243162423335482 1.0143577898380982 -0.14502178826075024
P 4.18030602053814 6.673114007810717 11.043602043408686 0.12295632382027856 1.8876967419272521 0.588263003985574
Ni 5.563565132799223 7.517261789146251 13.022590582867718 -1.9072906048987799 -0.9331325272080188 -0.3855276630634393
Ni 0.4716746555315023 8.608819884545202 6.348536232246325 -0.4355070803053597 -0.5614026892596202 0.9944811055188292
Ni 7.27505396341409 1.7462091805475264 13.108574453738614 -0.6471006429490727 1.726059199486692 0.35223419111763205
Ni 8.411004771186878 1.479908547890939 8.498108892664574 0.37885385058768944 -0.41133819636864 -1.2242531388437818
Ni 5.840400572486661 7.176883657755131 3.835116746640326 1.6122403191913075 0.17972499606989048 -1.1150918119250666
Ni 5.568452318807372 0.501888964323062 4.892156656537315 -1.0748139382416264 -1.0402853083371375 0.7316336297961463
Ni 5.904342028893095 8.06596202013333 8.617224546175537 -0.7414058786915618 -0.490809195311774 -1.7263957568905042
Ni 0.4207996983385075 4.000639337953911 9.354067528079764 0.279933227560376 -1.3027638307561757 -0.8219621402790749
Ni 7.41875763396871 0.7461258532403907 3.623326321490196 0.5221838529683135 -0.3524465642387543 -1.3464980384193326
Ni 2.586109654118862 8.842013773275616 5.220972466268167 -0.09072677436261148 1.0575944890395463 0.27012729721354767
Ni 5.924373000008091 2.377277506647289 6.2470116662853785 0.4164953150895472 1.722102271721473 -0.2921022588227421
Ni 1.2119201204459582 0.7631085927787669 9.301363817412753 2.125980926488274 -0.9170518195960723 -1.1054766574328057
Ni 2.8952450347292307 4.270463937751099 6.051318352089606 0.08522949869346612 0.15469607812572067 1.0256287347662272
Ni 3.4055154766882807 4.7892011744453304 2.312080405107072 3.0400016725675068 -0.9520504471584441 1.325650505546362
Ni 2.963647091647847 8.483273918362416 12.657033706257003 -0.004904636390468973 -1.137646300186815 -1.9671489718173087
Ni 6.906994142773773 5.567265298296854 12.467122480251138 0.36299220096508455 -0.6277962861935059 0.2442632849625922
Ni 3.5987401591660855 9.015392956593194 1.123845053285049 1.3277102162888683 1.5087305341314146 -0.7500033905525858
Ni 6.97050901368424 3.8843484223140723 0.9717571230151193 1.1496317546834653 0.5543378119930389 0.7851179748675318
Ni 1.0572736045599973 1.6193370898881458 5.918752272418832 2.3946043854627854 -2.777699784935648 -1.8210995136229928
Ni 0.46209688378725783 2.0637000727202155 11.024437226322458 -1.5013661233465432 2.8413844675788034 -0.14220720163009057
Ni 3.4531817690637805 8.062521515372374 8.067958625726414 -0.23309518416091468 -0.1718157685251428 -0.6749505752818054
Ni 8.857389398325923 6.057449127554477 6.417364874660908 0.19392134217493054 -0.04695091482824172 -0.5526167155368741
Ni 3.270056034523119 4.844425448977646 11.174607376580083 0.013081001553674245 -0.710870429106866 0.49030808730563935
Ni 1.6530837120582713 3.875835259590199 1.6307640170214321 -2.8126102236595885 -3.2628782643242062 0.3792132908096372
P 7.464374461244018 9.354556246680579 12.005305659115578 0.17360422788413327 -1.8948189547943302 -1.4490863401062204
P 7.343094350020907 5.947631183136059 4.655296914620903 0.8028688710930495 0.4109065081478601 1.3206425108088093
P 1.3169065204426578 4.819952424545946 7.3598498864146915 -1.7647291052530638 0.7095478536407006 -0.03175081004903565
P 0.34705883120188025 9.424015493741376 4.303909167994727 -0.3507761185148669 0.1887310562232427 -0.5773293877922057
P 1.27764210761817 8.29999980625794 0.477278690644832 0.8318061229526902 -0.23364899978185566 -0.23604398237659346
P 6.9511642888018885 3.5017939684085997 11.66385364510635 -0.6235853334359518 0.41190846704981315 3.34148331572262
P 1.8294211730544063 0.6306528689210811 11.510752110603612 1.7276100889135795 -0.5567279094917702 -1.1888960995007267
P 4.179842340651219 3.8834859777243986 4.383650052868114 0.5981447818756602 0.42816709500052064 -1.0733414674611579
