# total energy = -340865.79648972943 ev
CRYSTAL
PRIMVEC
9.27004133073995 0.00000000000000 0.00000000000000

0.00000000000000 9.27004133073995 0.00000000000000

0.00000000000000 0.00000000000000 13.56764251767714

PRIMCOORD
 96 1
Ni 7.953231794696106 3.654704448775739 10.148745556904029 -0.012405315642888314 -0.2449016898775395 1.3234144171269917
Ni 2.608088994126197 5.187542831175855 0.7424728209313259 -1.049554135233573 0.6659517142173047 1.296445858957948
Ni 3.2780719473634092 3.9363839188073677 12.591463506149845 -0.4727554231338567 -0.48612515957254343 -2.4625092768348753
Ni 6.487591940508301 1.8913108732223072 6.413546559911162 0.14885684573612426 -0.026617088366896094 0.9716311975038493
Ni 8.4571512309799 5.5070996892990145 8.891757642667711 1.2794498386205837 2.1860871477515516 0.333876771656367
Ni 4.6632107643052905 6.844228963185087 4.881325562250864 -0.012585035753862196 0.7480979459997569 -0.7456302011855546
Ni 7.690667149491872 -0.042645897253126605 12.75614764098187 -0.23111800582988581 0.6824836504340569 0.3620421783469894
Ni 6.182728097589517 5.286658111027701 9.568809929277071 1.2800751309094083 0.9208017735568078 -2.5411168993364495
Ni 3.978590416110534 1.1070468528308157 2.5024290652306367 -0.3329935977204652 -0.7053369008831466 0.09298163183505921
Ni 1.1767019419448044 5.201114171402483 12.084155869829965 -0.5547425036306253 0.2556602139456242 1.363581990484813
Ni 7.724651120305272 4.673871311614458 12.962037108674114 -0.892059925537425 0.4749902260016465 0.11566930324056209
Ni 0.12661578389304298 8.147522586915974 9.139068435178697 0.1991298829590635 2.150576870660083 -0.5893768058750429
Ni 1.721465179484418 7.521804080114654 12.94513133465 0.4694039901631207 -0.42814035552764323 0.2222656976455785
Ni 4.883680152700019 2.0924244157200427 11.659041053263769 0.28982606119405574 -0.9503365497911311 -0.04363084931607324
Ni 1.5886069498887716 1.8323812217054551 6.125899037394627 0.5939934787114479 -0.8128033565979421 0.5945694058195761
Ni 2.7589774537360445 1.6342433624131485 11.098833000183454 -1.9220592785675221 -1.166059047001553 0.47009870223730005
Ni 1.7278058876230882 7.22340145586934 5.020597733310173 -0.14144641220466608 -1.1062896402524045 -1.3519883721099426
Ni 5.905776348538476 0.5804185967702675 1.2036592215752913 0.506479040638547 0.08952606918629098 -1.3179760197202397
Ni 3.5878767222089643 8.837686419711497 12.249653914273942 1.7593560138666087 0.1977049775870789 -0.12751771793871586
Ni 6.867886108170301 7.302595417314749 4.037323542755252 1.7042703857463746 -1.1047595767611234 1.6624714474327176
Ni 8.724119145724876 6.982371116229625 12.433685551965935 0.11459355367788006 0.9387092499648478 -0.5357338237386065
Ni 4.944760453760982 5.073771616284189 0.5263297607358915 0.9929250738856191 0.8926654203319078 -0.0972334651328777
Ni 0.7582383798954143 1.6412144333492305 12.533543362112967 -0.11162495796785936 -0.8808905391841667 0.2976347586051971
Ni 9.372660493808953 1.4452179535598957 9.334442895207644 -0.6233112538389588 -0.9618458359823112 1.4279565001061407
P 6.9988254392502975 5.279344048569498 1.376383263086656 0.41261114954379263 1.05896900078957 0.9243699505240403
P 5.420647285642232 7.9411807412161775 13.684052802821203 -0.07641704260815871 -0.3395684227245055 -0.5755177885047638
P 0.5355395466068987 8.556637312477282 0.8486370400648157 -1.7272784166057733 0.5991914779726197 0.18935223474700938
P 3.059373136826116 5.9914593387807695 11.850955933939863 0.6359058026745178 0.9418611653302683 -0.1494559127727039
P 7.04517564494233 0.3225779645301657 2.915157252827694 1.9238461952646158 -0.1945713170541036 0.453808963938341
P 5.698285017737516 6.612329614066702 7.697872752468755 1.3693170931963772 1.853823229108259 -0.9355799603072468
P 9.110818911813515 9.353378808241068 11.141463138366646 0.08896916824155646 -0.34752187324362727 -0.5494025794749506
P 1.527044606688612 5.722340774491681 8.590000190534408 -1.348247931230904 1.0478934597016987 0.3746511253602516
Ni 4.867401960460977 6.96494343888942 9.580939778106679 -1.038517160693121 3.6123690883687467 0.1545065878227339
Ni 3.397516427431781 6.7764186122576415 7.25202734290474 -0.08820503638202229 -1.1693433741797796 0.5576807603233428
Ni 7.271893041064345 7.775701236854477 9.551131960826131 -1.0280630552393326 -3.164358476279737 2.674987041855754
Ni 5.474051992640594 7.153217974410462 2.2646432399893635 0.156176262215673 -0.7421892938248057 -1.4052361756904894
Ni 8.891100396750998 1.2496849758274813 1.6018909188401087 0.6439898652342328 -1.3449276086084192 0.208882334360137
Ni 1.746308889735348 7.204750133098865 1.9500773720151232 0.9009384589739774 -2.3363377885114085 0.9711588858531209
Ni 4.295143780904849 0.7111817970686337 9.266279355712825 0.1526235118674081 -0.8621978478706699 1.0364628492672536
Ni 6.827311138107494 2.449997712551808 4.0783787009490275 -1.1362285939036818 0.8938859230025702 -2.2329956393776316
Ni 1.833243335531327 -0.053740282487571844 2.849598594892768 -0.7808453156341068 2.1416651699927503 1.3363378100568792
Ni 0.258869606806465 5.544105693523535 6.668062028394918 -0.35065681932818316 0.003924788975702918 -0.31847689216152897
Ni 7.51048535988466 7.465989162420307 0.7688581390235731 -0.7557145820047501 0.32972598271278697 1.5103927523251859
Ni 2.452825075099022 4.310800880387618 7.315116461880395 0.5706224080856753 -0.7100271072699642 -0.6676476138624888
Ni 5.568467361635267 3.144935616533611 9.400232377166917 2.074680476442085 -1.7247821325464812 -1.6420147222402626
Ni 8.946525972717533 5.686252504339864 4.2185194748630055 0.07703282181528669 0.6707429649583609 -0.48108579737642315
Ni 3.4376464355199436 5.192613543678564 9.67649628916549 -0.8662205958768178 -0.8379839696286278 0.43402381089161385
Ni 7.488033320247438 3.0641379379712577 1.459756159077259 -2.035332056551449 0.42955369093540213 -0.8968920568187457
Ni 2.8642943911094836 8.003262206720088 10.167849257682057 0.07665795497437121 0.6874898453993966 -0.5285720158828445
Ni 5.1732484277404325 3.703307274464406 5.185797282429494 -0.7404463429917699 0.034704750471037 2.0172867690139644
Ni 0.24900072101051712 3.500386073944681 8.1980850993013 -0.4895920350752213 0.31862730169646414 -2.300198362476374
Ni 6.9413141040276205 1.3094025808410974 10.81094167558498 0.8575860601302715 -0.03653383325997579 -0.14875425871998896
Ni 7.297042662672843 4.197159446071889 7.112592019121394 -0.5261055566202231 -0.54407499661445 1.7971813122444986
Ni 3.483208687715213 8.613156753298147 1.0825637471801697 0.7515928465268927 -0.6426593193482674 -2.3487243351012195
Ni 2.9419680658081946 2.2288794212773904 4.313465090210796 0.7363798862318801 -0.07243980312796557 -1.0781864542582849
Ni 4.9261740212784755 4.7091716282695115 7.533148756459836 -0.8166124459313872 -0.8841756376933418 -0.5412506397917775
P -0.06611578740734492 3.5898327008891684 11.944232941882738 0.8638901479714283 -2.528008129868633 -1.2871299808736607
P 3.6481041794851934 2.9724665011535527 9.755188741385311 -2.784957494939326 -0.10592662203150145 -0.1498346362683613
P 3.3752683286996046 5.389611187910846 5.5882542644451965 -1.1207081296705796 -1.611647937022947 1.0914471759229332
P 2.7661524655771714 1.1129147888714273 13.626661051129211 -0.16389754211933064 1.575527537151306 -0.6279749778632153
P 7.44927527824776 6.073007890675333 11.075618963164658 -0.14640889841626398 -0.5671779011805006 -0.3459200759741462
P 3.740118607825019 7.997403540720614 2.9959521503777062 -1.4626702494382422 0.05705843557588883 3.7515958672142746
P 1.3642256041336354 5.002698210876024 2.5989088723868328 0.3226505639232443 -0.005312156241532787 0.1412309537597503
P 7.177968984250008 5.32011368949621 5.473647818846959 -0.37419835409354907 0.9275465484798091 -2.913953082975149
Ni 1.3115346903029312 3.387124711315627 10.133495412227237 1.1575011301292129 1.2273477186087056 2.2670442443219083
Ni 4.635196699985025 2.7640574362798915 0.3101987515939372 -0.2580312852809621 -1.6761165490199776 2.310559136885408
Ni 8.001760460055666 0.952023954873239 4.931824111352335 2.083730759569811 -4.626742561936128 -0.1349993710277417
Ni 6.714392767000562 0.2438363810923107 8.615655956389062 -0.9382670202211068 3.7361293961475592 -2.0191081384934195
Ni 0.9270504640463711 6.9383569609044695 10.668426844135455 0.6789617533237274 -1.326263713650329 -0.17708164490977246
Ni 9.072153570225222 3.5094243640546274 2.973361987127523 0.6281528982019763 0.10897595038078652 0.631319725965732
Ni 1.4468402107591167 3.9107986052653647 4.954278932001897 -0.41360925179100383 1.5859464184917846 -0.22525794750468303
Ni 7.76516120008011 7.8383203647444155 7.264658700959933 -0.6039120233767407 -1.4293523520124027 -1.3391876208008484
Ni 9.1368584573713 0.45324197538835087 7.247875291478847 -0.26608423749242566 0.6880799135749117 -1.1533750237759814
Ni 1.89589027354468 2.329978489932855 1.9445552085089741 0.30410725370341823 0.11731403793283667 0.06066954996591487
Ni 5.111074261825138 6.507160997351478 11.905809548368156 0.6447938491927669 0.8124223191094395 0.5338916283235451
Ni 4.691067237926203 8.628229840189196 7.0476034687164795 0.8393700513428771 1.4131592871923082 0.0997678015189572
Ni 4.362907781626602 2.200448205105897 7.505727974772428 0.02400021956933931 0.7208411671663327 -1.023754657671966
Ni 0.6591713042574885 3.6242245535126574 0.3806074950524783 -0.25395248722589814 0.04411215982786596 0.8874486520176588
Ni 3.454119298622893 4.542255267531359 3.674457052433456 -0.28517262158244433 0.06976662717117663 -1.996613299825013
Ni 5.449310252842186 9.159718378818612 4.212549568369872 -0.8163741046683359 0.48313496659596794 0.44358651487938444
Ni 8.812898329707398 2.7838860542749435 5.9439707720369395 -0.5926642183770632 1.2853119538283155 0.13653123429123581
Ni 0.061846933463108586 5.994778013508319 0.8936106446477964 -0.3179729559419169 -0.8417681192614085 0.8196304068221045
Ni 5.892214278352986 4.152199746550616 11.349698853471018 -0.22531039800917327 -0.1350173687498707 3.8548333724493875
Ni 2.173824646956392 2.0718912745984714 8.29712899983638 0.13849350022392923 -1.4075113448779113 1.1662127989705982
Ni -0.4347287762308387 8.134739200186111 3.0289080736288563 0.22223355885606244 0.6191339825328176 -0.2585964137558127
Ni 1.2724151166988544 7.7176522392457745 7.206873899523674 -0.8654685482021418 0.2951060786460724 -0.018958029159741544
Ni 3.047053252153174 9.109604536424385 5.116615892417677 0.40799190560422643 -0.04347812578829287 -0.2628952982414827
Ni 6.112748557035684 4.555984198457339 3.287453228995477 0.4894596232624151 1.578997240867461 -1.1408084999648807
P 0.6019612453718111 1.8378320058948383 4.114889684976756 0.6781107181773418 -0.37213478669630107 -0.6689629902398028
P 5.473607030665951 8.844036397891307 10.87032741312584 0.04278469926569406 0.24060229117123724 -0.37863684948087695
P 8.89120236720352 7.948133272069983 5.296550171926494 0.3966939640929039 -0.2361501689371546 0.3733375487551506
P 2.4987859390632425 9.111690295680527 8.26052346138904 0.27017177729823794 0.18010397667586403 -0.12519961132850052
P 7.564724370585478 2.4126209066817514 8.509652108967266 -0.32444313704729283 -1.8795985383001501 -1.1489239299831633
P 6.58843144801189 2.7205345931350715 13.042913582586143 -0.011425211117806129 -1.1490925943505437 -1.0857640094952268
P 4.502162339607749 1.3949187103429002 5.522328512881189 0.7177622711306929 0.1408252336808994 0.6329729452984388
P 4.733524026340106 2.9769810111879567 2.515332035491185 0.7085170983833411 2.033970914537865 0.717838632894583
