# total energy = -340893.08065738005 ev
CRYSTAL
PRIMVEC
9.05306196562314 0.00000000000000 0.00000000000000

0.00000000000000 9.05306196562314 0.00000000000000

0.00000000000000 0.00000000000000 13.25007128422007

PRIMCOORD
 96 1
Ni 6.391307925357463 1.8062126275275308 11.408311235358957 0.13051716688667198 0.8368454851488103 0.3624908358486338
Ni 4.723172600651036 0.6865923757884295 5.9171637573649205 -0.037555075435638546 -1.454426007151579 0.14927310733793647
Ni 2.730186249382212 1.5856528761093185 4.8240463448605935 0.08986596902421298 -0.7346811583732186 -0.268708305378834
Ni 3.4132035709558464 4.316237460222984 5.007254972755378 0.2199979846573243 0.3398592144920469 -1.5317876730611941
Ni 5.187821011829453 4.304694806072911 2.7756914659197336 -0.2721903503901635 0.3320857411942152 0.11045304914694525
Ni 7.2290239717283065 5.881086399675936 2.5023424042156477 0.036931068698394465 0.8804364823658837 0.1754867896188268
Ni 5.1932709552007035 4.633339065646196 11.532053919684984 -0.27415055944032785 0.4098148177455781 0.42611175513338867
Ni 5.418628829520514 7.7233935857104 12.449024998021955 -0.23928125836696854 0.8885897076006373 -0.028361581861828574
Ni 1.6756131539832575 6.66346107756098 0.5857919613817084 0.4150904643222207 -1.3896262370673746 -0.33624295789569836
Ni 2.5771351818832873 1.546751868358054 0.386235313985589 0.49288561822482857 -0.7635073385762916 -0.055259177583620964
Ni 0.5024358922940266 8.991220611430226 4.694009971777602 0.7709727937154013 0.21635396014683383 0.5795891303606598
Ni 8.548489663543831 2.453787211063883 1.1883619627134794 0.5371319896377137 -1.0113591122210903 0.571129686739397
Ni 6.935315478715908 0.6412057543641358 4.65769180263733 -1.1252481836327783 0.21205764676432512 0.13172584248279248
Ni 1.223394597038606 7.4538748745717225 2.903859286989725 -1.7743866829474861 0.3042072696163922 0.2486403309843653
Ni 7.6383762797313155 3.7945094926396985 3.685401083163548 1.4607532349211874 -0.2957668521585229 0.3354037498238546
Ni 7.495356005015356 3.7247194370766317 12.574622654767861 0.5083996547000277 0.7172619344555067 -0.6140671095328715
Ni 7.947583615022086 8.970552470705039 6.633462851057701 -0.2717445211019965 -0.2508378528563164 1.3721946718544884
Ni 6.889280658046795 0.5007013255997883 0.4147841452501021 -0.1531197347775363 1.0919559972385517 -0.6945899467792876
Ni 1.8692943640904378 6.403511453039266 9.17336912575562 0.41926567874583276 1.3262189764553225 -0.1288426073977265
Ni 0.06427945667589105 4.830496651591517 1.2842565227798677 -0.252178683154927 -0.010364631063775697 0.13679400103431924
Ni 6.532752967271765 2.1562221136060487 7.083700598019579 0.7311250655908441 -1.211174965503585 0.10788168887534323
Ni 3.1763211486101195 3.957772414163158 -0.0019111014047688973 -0.3070830485022905 1.125176192744262 0.906440105518497
Ni 6.246178287177216 5.419506976542127 4.7319984308713545 -1.2561823834522108 1.7742159616975766 0.05967736125597465
Ni 5.229483203514657 2.993014747644887 9.10188524227767 0.4022480611419137 0.22156404359286358 0.7294481921090534
P 0.12289712832789547 5.608091312699119 12.46735020628123 -0.04351026457780893 0.0761211086342947 -0.9639582543396237
P 3.713375950292286 6.004090354136357 12.86350043385518 1.6912215229822165 1.1905326066628852 0.3095402517935314
P 2.2845311624444644 8.498598238429281 1.5090775505184244 2.062823577103499 1.5712597630138876 -0.8296934474850614
P 6.480833656251634 7.650154313495428 5.668168337958175 -2.7719705957613554 0.8013766028182392 2.242595624361241
P 4.733891426151966 1.000752641342341 12.722943497330776 -0.2312401332300469 -1.5870010850085443 -0.37496300017371553
P 3.997171340328739 6.295761908181096 8.113442954749656 0.23808723805886742 0.776366711037463 1.2402613413465802
P 4.735692985505586 1.3325926318293326 3.663154088411871 0.10799353186285918 -0.838566324494659 0.6357443373959889
P 0.15622597636985044 5.668285122458988 3.4232090151649914 -0.5285591603670381 -1.2347100725110478 1.058427526463803
Ni 1.3160979527223269 1.0822302000487365 2.680158123030277 0.7741270230736668 0.4811678155672681 -1.0035313886465556
Ni 1.640460113932487 6.45235272295271 5.0351863851861385 0.5308402430917308 0.24773607400254108 -0.3222890668187675
Ni 5.85680608718143 5.587196845421968 9.278269671977688 0.4563181035134399 0.6093545345485506 0.22200987288103055
Ni 8.650925060961926 2.364822770018578 10.20280639429365 0.22870631106459965 0.49931517590025615 0.04103249246127772
Ni 2.5806749291559763 5.29456566679691 6.915119907831216 -1.3373055732867871 -0.38520987471270435 1.1309362351564909
Ni 0.4031219906805934 8.979234357238308 9.029870849361917 0.8178008098125334 0.10204708447143716 0.9535522285149514
Ni 1.3110282379583733 0.9069267059608875 11.353827191851991 0.8881911866106382 0.8990767231748904 -0.23484481986216973
Ni 4.253789438005571 6.879937897981795 1.7561111713727604 -0.7415313485258326 -0.18412878156454093 -1.3534752410681141
Ni 5.780534039170165 8.018025491054804 8.161765484206002 -0.8242637918290578 -0.5868699802927893 -1.0824485719687487
Ni 5.353519207052026 2.9008817348721108 5.180817563005534 -0.09889131245127485 0.22488796575977396 -1.6646928805640686
Ni 0.7365797633610109 7.596949467660152 7.068409976169013 0.04494545436243872 -1.3625813171344403 0.3039031081124121
Ni 5.264699614999976 4.974078216156342 6.9560886349612066 -0.342316674893604 -1.5059907666027483 0.021818638536988226
Ni 8.120225508858859 7.045264917659149 9.328328578740692 0.04626494450481064 0.2052053997291821 -0.27960284080415077
Ni 4.451816117910425 0.4276222925836065 10.598997360646955 0.5772489122632575 -1.1476648607650815 -0.7796970609622766
Ni 8.092957685878453 7.161596765367725 4.678016832309744 2.4749529019148664 -1.1760377554808197 -1.3451296973168962
Ni 7.3791599532379575 6.131168186532099 7.192536510327167 0.325807107274355 1.0775030550380154 -1.4276199427023282
Ni 2.1862420674583163 5.193687396056314 2.8636184260508446 1.4733382706750497 0.33054307929744364 -1.452732164388924
Ni 2.1706255353729236 5.47453148785518 11.521347768470964 -0.9967393054253866 -0.8621291994162635 -0.5233876434684276
Ni 1.2869108805812803 3.354078022521239 3.861083900552486 -1.5085117332523892 -0.42242093654536284 0.4806032013130497
Ni 3.437103654843056 2.8100976283490287 2.6610118020404823 -0.5236889767589303 -0.4418489633629874 -0.3381653717293918
Ni 1.1319586700458732 3.396274344869073 8.173982591480923 -0.20119499301820834 -0.20199897697674243 0.2729927916868008
Ni 3.746220459513041 2.898708999973273 7.023968494425713 -0.13550870656399244 -0.3345110628062562 0.6744209280305804
Ni 4.356876655893318 7.003856211712144 5.9528201476672535 -0.44057292486404126 0.6204971814289313 -0.5466931509635875
Ni 0.8303033991409775 7.537108727321344 11.33588673873105 -0.515910361254776 -0.8158526849472272 -0.3559031553287871
P 0.3334224657383114 5.543533927017418 7.9814456884204645 -0.2341969018655257 0.6363503464111041 -1.0433127823095516
P 8.573811078177362 1.604311237053083 8.042686937462815 -0.5839713185887556 0.5145492192411913 -0.12327822593607157
P 1.8778132955062954 3.2399098566494215 10.359554732345432 0.07823018455749753 0.24573189908831877 0.336372284384711
P 4.1146167146729695 6.118294732256489 3.7402961356888786 -0.5154701883935638 -1.0361113794651058 1.077364729687938
P 6.893300217609643 3.8683462669518494 10.333425784574498 0.09160891985724869 0.18005049773010925 0.16896287245737998
P 6.260156215026401 7.857532806527362 10.26818217678725 -0.7701736948528736 -0.3362568418527693 0.544230805466024
P 2.3528636750128946 8.473385460540692 5.856783454526234 1.123704493294742 -0.6421296720970424 -1.213322093753575
P 6.788483864864905 3.83780123549903 1.412418006706404 0.5841309840950714 0.8370542587255068 0.19644050905235846
Ni 5.105963224515761 2.8213234253263546 0.3970347117390178 1.127723384646148 0.4396162173777267 1.0194827697694893
Ni 1.3981368012775885 0.962621143867748 6.934080641048402 0.4982520247430645 1.0890581068654663 1.0209632109697577
Ni 6.934926197046533 0.7535660237388786 9.312945615656924 -0.7406481745899309 0.34124452487534784 -1.136550496019475
Ni 2.6955492338699156 1.5965346567276615 9.170096443814247 0.37530315712195367 0.4360069027599136 0.15206558248140908
Ni 6.58524262120284 1.906167485936121 2.600565411848623 -1.223207214077771 0.03197963823039008 -0.9216330112088514
Ni 3.9476239315731725 6.862646549411882 10.43400711487892 0.9074721463274372 0.586993393244531 -0.049172862180224985
Ni 8.106383376940851 7.236854870426199 0.34388961611345964 0.09424070105314093 -0.6874862458549709 -0.016019515356707894
Ni 7.6240996008335395 3.9933418950695385 8.125924411437268 0.49964813375964273 -0.5638802042658354 0.8617083098287611
Ni 2.928774219135933 8.190078935856477 12.401271906170344 0.6485535733455152 0.5103104985694954 0.4217637625773381
Ni 0.036922008380907013 4.877681211144598 9.991375750675386 -0.2196341735600024 -0.3891639742644459 1.8703693063923983
Ni 8.797919629930343 2.050898789384915 5.7645101192912405 -0.9401102440774326 1.7212754049448034 -0.32409938055462895
Ni 3.9052374949216895 2.616570320297183 11.42837191561868 -1.1460710339154003 0.08788544825907445 -0.8066095690824046
Ni 1.0685329171239835 3.199605624275992 12.423213812729976 -0.9470949029253818 0.6240530171009897 -0.2482531228482757
Ni 3.192390333799436 8.666912768592537 7.94042354822421 0.8331096722554618 -1.3087578435560816 -0.2321994118195227
Ni 5.620973820036808 7.796687176297842 3.5867543922253 0.84926931273446 0.21972956148728612 0.504907325276053
Ni 3.2847677792483316 8.279631825936884 3.733605017506668 -0.18111262044603646 0.6143735850296967 0.6630867339646839
Ni 3.493929725509727 4.5604890751006 9.531518219948907 -0.19189968375921146 -0.48199288257172473 -0.20614359527273532
Ni 7.203765928529323 6.290339123996081 11.493641777285957 0.43810389449825843 -1.1389858449338448 -0.17388730634219085
Ni 0.593334972705505 -0.16983997112348126 0.25638724459383017 -0.252544551134778 1.5601502833642873 -0.1585424484550044
Ni 4.460588535064481 0.26851020002313397 1.6358937494200974 0.30752502113571556 0.5377148587243772 -0.2621278239478389
Ni 6.0053487297652675 5.780479720797695 0.45930710455210805 -0.4474040888532617 -1.208205855572932 -0.39788695595974055
Ni 7.912195195357275 8.898852219043409 11.290981740209332 0.37530778510764395 -0.9941424912324878 0.4023406208557199
Ni 0.16047095717845367 4.56726076553531 5.912897049207328 -0.10121944636381922 0.6143453028949225 -0.06522348788518445
Ni 8.100317825348263 8.839210646070327 2.64031559682285 0.39026543485874077 -0.6603873327556498 -0.6583885571580661
P 8.558810154313308 1.7002918012092167 3.6008264719201026 -0.16790512061682697 0.4612011426373541 -0.13994437373784285
P 1.6168497280317895 3.2765023335706718 1.4752100452827994 0.6975359167814891 -0.4517263703776994 0.28237500423264916
P 4.890980159337897 1.1578594806524285 8.10492311802759 -0.8339097995592542 -0.9580681141074338 0.2527234999148035
P 8.569547085938394 1.568723650022545 12.371273679667064 -1.0012652183201982 0.2542805599892782 0.9029894279657351
P 6.473564047402608 7.858754969907958 1.5593609732209726 -1.5752339171702872 -1.3004704067363089 0.10310792163578371
P 1.7815882986740423 3.046436866970047 6.118206917554327 0.6128044407703639 0.635832269124105 -0.773683507778345
P 7.07783783501755 3.951571066639393 5.954078523296164 0.5420991038350019 -0.23869273285335021 0.39473761169748145
P 2.468534649189741 8.602862354387232 10.080561991741616 -0.7508307715498875 -0.963694973375908 0.3203931353476353
