# total energy = -340886.16541560896 ev
CRYSTAL
PRIMVEC
9.09583046552205 0.00000000000000 0.00000000000000

0.00000000000000 9.09583046552205 0.00000000000000

0.00000000000000 0.00000000000000 13.31266730692977

PRIMCOORD
 96 1
Ni 6.584889875828734 1.886311454485714 11.29392031563213 0.9628634786135482 0.5711600257567002 0.08386270025292654
Ni 5.061238266468441 0.7466630557693075 5.958923029056122 -0.3343722232355467 -0.5625051782951795 -1.3172946773824992
Ni 2.4902109076574934 1.8623166544696408 4.94202103945909 1.141623025446376 -0.642612268160416 -0.46269263958121604
Ni 3.4821930513091 4.38454488436238 4.43214609244582 0.23061586938248668 0.911294862507637 -0.15406590074088952
Ni 4.2401031010965555 2.7706535437816684 2.1734122383019905 -0.04982360839034645 -0.5132094173838452 0.4871908818328964
Ni 5.3479388337567775 4.911202547641629 2.381263782504908 -0.7104621379248538 0.08706089547525006 0.5561522394939584
Ni 5.854458329016472 3.4168304156322606 -0.05487241472970637 -0.6522564761183993 -1.1691428281331995 0.6215737023225618
Ni 5.937812516790276 8.107286260624123 12.460310455079112 0.791258797657947 0.7640904647732712 0.41726998847204266
Ni 2.118655340615576 6.726348226795365 0.16439439634969766 1.5367144209388501 0.628264484079176 0.3808816796509957
Ni 0.6377877876751475 0.1550311487619244 0.07839150282734123 -0.9764890398167828 -0.9190979034918236 1.6203860882268932
Ni 8.31052349017649 9.085679233986113 7.18784154349571 -0.2594438493577726 0.01985920081777225 -1.0532094725979733
Ni 0.060671006469754415 2.5599941168020406 1.3338489209844782 -0.3395558243190152 -0.9916099546186212 -0.20882577009058878
Ni 7.257508326013947 1.1157945840681305 4.850763484841477 0.13531355983405083 -0.9223572909693857 -0.3472251679388149
Ni 0.8593285562996684 7.5912980061465625 1.829692640361358 -0.3741523313469621 0.7081170347314449 1.8555078158995335
Ni 7.69473578695884 3.901192468572336 3.7541583737050788 0.9319485342022467 0.10367819231695692 -0.5933928690129715
Ni 7.984501649017994 4.210678090462744 12.589363003262603 0.8900907176261962 -0.24217786318847326 -0.27110457352515244
Ni 8.672528435528918 7.1279291292630065 9.217277705037116 -1.6626789354578333 1.047980877209182 -1.0176050931308023
Ni 7.011384257160676 1.186105351363144 0.23546739421383472 0.35235246186305125 -0.45527449274027393 -0.24445431792747577
Ni 1.805667824105689 6.704017963702318 9.21044855573762 1.5517132083405276 1.601686197824545 -2.1348594599248263
Ni 0.5391480572830675 4.804344734681497 1.243102552023008 -0.20566588430536836 1.3543918393451126 -0.07121672935414187
Ni 6.873336842511721 2.4766217373678754 6.824672331880183 -0.562671785780031 -1.4475897009560361 1.559158351764663
Ni 3.491816439640035 3.9856108684772553 -0.003603767917501229 1.0851729128784473 2.0289305239004802 -0.6761332827359968
Ni 6.467690103953411 6.064553814524911 4.49294535012112 -0.4885517667361651 -0.5939626254735125 0.6190753613807403
Ni 5.365193623609125 2.944274750266432 9.525879212233983 -0.39487645126819093 -0.019017935863399508 -1.0603656240267803
P 0.6663505136078516 5.739223256460129 12.48910512468142 -1.650421458246719 -2.080686059206217 -2.2605866616220225
P 4.03316386866074 6.348434674457301 12.741912809551296 1.4053169083297539 -1.1637329699715377 -2.744700190081176
P 2.7812138026211906 8.617416800465465 1.287716689475183 -1.1880774602541733 1.1540162569044061 1.049899948608766
P 6.764814492628563 7.8505291662898875 5.68324387919746 0.059794860670445406 1.816511122921362 0.6772571119277949
P 4.825992810511011 1.488186967486651 12.514879069080791 0.31168738004352126 -0.3875421223903068 0.6320782013983114
P 4.201936997659314 6.413679064341795 7.744843805840016 2.04059124806786 -0.792322463035771 0.7001607559988459
P 5.002479203502621 1.250303720776884 3.720091760930174 0.14003024858342983 -0.037801644228805865 -0.4856734167471055
P 0.6315180319317513 6.192604911805533 3.4563809044229696 1.1747336919574154 -2.3361763232328796 -0.7800948106213275
Ni 0.6314752815299031 0.19405407940216612 4.794783197995789 0.20272711339201863 0.8482087326804296 0.6065887988779554
Ni 2.2417310187874824 6.920244038752392 4.687363262730504 0.672770536911351 -0.5506145975051807 -0.5681706041110731
Ni 6.2641799994956315 6.2347640846919985 9.154082605692283 0.0432958345741577 -1.7572831904979798 0.23561435103834263
Ni -0.32789467259265537 2.6535538260383293 10.231849342941914 -0.11167766558266572 0.4070519102884603 0.6142838535293679
Ni 2.3818068035666817 5.476317380923896 7.047300052211271 0.9478976013323352 -0.29533953481311714 -1.021411611361086
Ni 0.6140203834135859 0.23856725313933805 9.17670120660205 0.21931561387831905 -0.16322237042917698 0.6617124793249766
Ni 1.435658548194451 1.03582404512146 11.464322507816027 1.6860988570436704 0.795435811853772 -2.875410446815261
Ni 4.418354085143178 7.054489396385912 1.350503386044914 0.44853923089896947 0.6838918436354932 1.364325810629373
Ni 5.964126753502369 8.138448574822407 7.791877434120197 -0.6195211906689072 0.20431296982189975 -0.8253631955408237
Ni 5.424170986499275 3.0294481040763297 4.79365167672134 -0.47741631894463593 0.20391984814853908 -0.07889481472468993
Ni 1.0968115864814947 7.485768184392779 6.702874617848633 -1.2179662773938056 1.337555227403748 0.5480404090201012
Ni 5.684238963019203 4.586799764255256 7.488042141937896 -2.0584020509970355 -0.146534882471167 -0.5511874392895153
Ni 1.0567444545365354 7.835157213284897 11.492199408153125 0.2695711675997616 -1.3198565245724043 -0.5661903404562507
Ni 4.779249339213588 0.6085883536298107 10.283822007010087 -0.5624182750083282 -1.2843403339436654 0.3365718019900268
Ni 8.41575314953432 7.564820044491222 4.262209606767164 -0.718134309758131 0.9569959640891778 0.815226364217138
Ni 7.4555063573823634 6.080917213019571 6.976409880533761 -0.8437818072573275 1.6729718327434089 -0.7311014114417602
Ni 2.5615949829138027 5.682156017907876 2.3520024968143436 0.5454783047198799 -0.49400559076188466 0.9075541645182822
Ni 2.4540004077090525 5.918101852789203 11.125422790288024 1.1809393065474953 -2.211450309106688 1.924566361260092
Ni 1.3303288347046371 3.632847286588184 3.54207453971919 -0.656270739484115 0.08784533904975839 -0.2465356259365367
Ni 1.6111534956963913 0.9509963328584199 2.7027377085731716 -0.12119846058890742 0.613870163030717 -1.173383091466792
Ni 1.1819121736499487 3.493626509845948 7.919745705214191 -0.6514193249290845 1.1543271032766056 0.7487924009636201
Ni 3.722095572318931 2.929930626071835 7.153482044988994 -0.09724734908994864 0.662121541837937 -0.425254549339416
Ni 4.4545554892614385 7.4809928735480336 5.782396614411717 0.3234419494762881 -0.9480279562626125 -1.106738811974681
Ni 8.429242265691952 7.104098054190181 13.385487364387258 -0.41485032328695653 1.1704031829028618 1.1235872509905873
P 0.32960832699865544 5.706778430206401 7.586462662822627 -0.08354362635061095 -0.3811218206862597 2.5398706856341744
P 8.678204233561528 2.001710251985305 8.23023641633954 -0.26133900949795635 -0.6253223707317166 -1.9425170322012415
P 2.1193466237092915 3.64872860608328 9.900603766510775 -0.8545056214327348 0.07058192398362037 0.9178115805802322
P 4.504127763744987 6.516934928550462 3.6845598099131958 -1.7248135000050488 -0.12100279963833353 -0.35914325953263954
P 6.80620051994969 4.234973052874772 10.609582797842405 3.4796752255457295 -0.37923411674524365 -1.1384906504649812
P 6.610121708749352 8.109423780716535 10.119251151554888 -0.22955811754193367 0.27652445898914313 0.31663726784962887
P 2.563350478138633 8.847150183333532 5.721570978828895 0.39669087876911036 0.8622137887102699 -0.12519138379838438
P 7.1642942583245155 4.156758009152933 1.6108597003815621 1.0923239221009315 -0.5044671524148409 -1.838029199498796
Ni 2.323266040525193 1.6993648567865651 0.16352847331651715 1.780270909642405 0.4035351553844534 1.3562196365824706
Ni 1.5874952413969952 1.328609722800529 7.240000672082584 -0.23094111393238936 -1.4707589399836476 -1.553863164803995
Ni 6.8826327809561585 0.9219715387525481 8.984173407504167 0.6315588385597316 0.49500112190593454 0.6451162655291922
Ni 2.8805493640220767 1.6830469374428065 9.191970376726001 0.08873545496419556 -0.3872608437044621 0.06517412270448775
Ni 6.691065501525332 2.1122882594892487 2.4769419105902277 -0.341672870662018 0.45056834551385627 -0.19371462548076315
Ni 4.699788166757023 7.122344289532199 10.640402199242883 -1.818029102227785 0.4919196547671335 0.11242508527165153
Ni 7.724197180913374 6.451162980515502 11.36358618856735 -0.6602376945516629 -0.9144506345277994 -1.324812068805467
Ni 7.760562309974882 4.243141108376832 8.420914123578717 0.87606612121233 -0.78560622735786 0.9927767212332128
Ni 3.585603544630836 8.70994868089136 12.640563431348456 -0.08700793075012757 0.19354081890706024 -0.9119898316921325
Ni 0.34528499031469123 5.091518285139218 10.022414214704577 0.06901920748219081 -1.34539246405998 1.016057031917392
Ni -0.12891065323267584 2.8164146654196003 5.649177266422555 0.8686582587840329 -0.5808304589669288 -0.0038779948981675144
Ni 3.5160386354106197 2.8662052398274795 11.334617788608597 0.5528347450849511 -1.3057931045008029 -0.4062253006221068
Ni 1.2994575870721303 3.44678298441654 12.057428848895665 -0.3711467117514189 1.520912163799271 0.2100429303271415
Ni 3.3270363800906853 8.296725115792722 7.748292035061432 -0.8107030224254878 1.9489779573352368 1.241838970246345
Ni 6.238129541858772 8.454746973517983 3.364430247545606 -0.03265558125149214 -1.5676332220048939 1.6790000412153598
Ni 3.512409399168613 8.764741961898496 3.4173352342072767 0.24924402600663523 -0.8404982514100492 1.0539982870478557
Ni 3.7343294639116595 4.803480630814353 9.134380127938373 0.5306268415293441 0.3674471514126446 -0.1523010955309829
Ni 5.02348147538932 4.744839813640878 11.219303582329683 -2.4687046070123095 1.3921559454677637 1.161010171723736
Ni 8.152965519790433 0.24417210369654213 2.197601689083926 0.7184114746789175 -1.0613817239961203 -0.0687168457504236
Ni 5.124818119429909 0.2901779031663288 1.6755992716910397 -0.8710889797127128 1.2410866654613528 -2.4653909692580442
Ni 6.101046285208946 5.78049103798891 -0.02979703008819353 0.2504354752115751 0.24228764929346014 0.6634847407340508
Ni 8.172339638074828 -0.1446355244486681 11.318176165974384 -0.6730631284511054 0.9104767374817159 0.11370395198407514
Ni 0.03794325559782023 5.2611009430238544 5.4396093390645825 0.8215661903922367 0.1987979535409415 -0.7175694383935965
Ni 7.790287483004651 6.112652564519222 2.463495544834443 -0.6192517390576044 -0.05292204481001209 -1.1252666955755395
P 8.809666267159827 1.8860385795803 3.505105447533698 0.46870979230957344 0.1121468919096004 0.4350049438579605
P 2.3228112490161696 3.449984716640065 1.5268160486800784 -2.2238103733339374 -0.30999405150149834 1.7713504672243234
P 4.985624630178215 1.3463920708033428 7.907085219185998 -0.12459643052686285 0.10844784579145839 2.300064150891355
P 8.850342819726876 1.8914687901980392 12.358841011917889 -2.0893275369312985 0.24017523093614765 0.9156927344650164
P 6.695849908200259 7.6643920974768 1.2502473266297653 -0.46704448879200855 0.986620728934146 0.16221141266615935
P 1.9767058148192003 3.708215335463538 5.873735121917936 -0.1836847520485869 -0.3388269165727907 -1.0051306148128756
P 6.961984803450557 4.237319777061333 5.7110007145761745 0.5986998830481818 1.0506064877574874 0.8328972991343397
P 2.594558271487817 8.6324885910745 10.123617150041513 0.8711046634419966 0.2600138629286296 -0.26433485890148667
