# total energy = -340852.5899184565 ev
CRYSTAL
PRIMVEC
9.36891199255323 0.00000000000000 0.00000000000000
0.00000000000000 9.36891199255323 0.00000000000000
0.00000000000000 0.00000000000000 13.71234972523325
PRIMCOORD
 96 1
Ni 7.180390430694192 0.5962094579610366 7.409166147182514 -0.9208997325872528 -1.0260347119553943 0.2471922856839291
Ni 3.7989345764636147 0.2947084983519394 2.898941891911076 -0.12151059251268752 -0.4315257270601084 0.5196608294361438
Ni 4.7984194859461695 2.742383623508855 9.071953167805084 1.7889648378719771 1.8480444176429527 1.3882607241784155
Ni 0.8136169365328966 1.2003075398924554 4.403227531766273 -0.6225743756729342 4.264081519058217 0.8377998786422797
Ni 2.6134486554798815 9.302983044539575 13.167421306693594 -0.022529805671399908 -0.0065336873534597145 1.6020451238258602
Ni 9.005323338882802 5.876940537725805 8.290143687779842 1.7399303010418292 1.2658211920935556 3.1573133965074978
Ni 3.00083443211569 3.7347950043718874 10.344527811017658 0.3442424311614071 -1.5451607519339905 0.049886343307481824
Ni 5.1400006514285375 6.667601765883132 12.893571754193982 -0.18111519154919775 -0.002207034953647812 -1.0785245543239943
Ni 6.474311740784618 3.8932420454492016 3.20593397088958 -1.2768103441152074 -0.7571662268496121 -0.26471229684556347
Ni 3.055108539788401 7.929800338968394 11.321258443734338 -0.6958747270289822 0.10191158733483739 1.7454527735219554
Ni 5.1846435174842025 0.29577093298167967 9.04773734075491 1.6463706852161129 -1.6764446217833577 1.2471205303602588
Ni 3.8640297775873833 7.422417536426823 9.466430273993364 1.6811255721987952 0.2803667155533688 -2.8218561677378884
Ni 3.7439109558245973 5.2455695527328885 8.852514509094531 0.29287744642586977 -1.3753728124721538 0.7895832097277369
Ni 7.7111018243120695 7.880173211686786 8.67367790466004 -0.529332805308269 0.9497212848046352 -0.47017352133929347
Ni 2.4741141950433976 0.11094290927277232 6.826034753592329 -0.0048267319646820095 -0.9605312309359456 -2.042352710843657
Ni 4.523882255299969 8.072273384951288 1.369734945926168 -0.5346732436845759 0.44614090587012195 -0.8783711151964227
Ni 8.025550620414121 5.61921113534904 10.952972131262449 0.605808469068505 -0.7837360069183406 -1.5374389578097005
Ni 0.3908457158665235 8.925087975839629 6.913917959565455 -1.920237909088067 -0.4124782235103541 0.24284429312787856
Ni 8.641528482861506 8.022383928131473 2.7128097156407938 -1.281891615292857 -0.6961056120928657 -0.9977610618216817
Ni 6.604342871526816 1.696072891456266 1.164225048803225 0.9398492771065621 -2.3402535786260468 1.0292581039886985
Ni 5.02013479029188 0.19903316820284211 6.053563268236066 -0.5897699275484036 -0.07185359160719239 0.8719847520541046
Ni 3.008067232240553 1.7082243704225193 4.7534131061018465 1.7077547447505492 -3.257295628030106 -0.9135756881220136
Ni 8.954618786712127 2.0103624160529776 6.93898354694118 -1.0114362453159291 -0.016296423167178387 -2.559506971807863
Ni 0.5127034077111425 4.070408172860035 1.722778038445787 0.13249408810738472 0.15703603911280695 -0.358422322206215
P 6.53430088482542 6.009070304773662 9.001128876945105 0.6117338334140046 -1.1782848996437836 0.9308969530092808
P 3.9051311948772476 5.217678301474186 5.60016507398397 0.2728683502937946 -3.7178303407280553 -4.595346821233666
P 9.660004177127867 1.958224420334242 1.186301016334592 -1.4410063913115634 -0.7479015137182345 0.9380461624595522
P 3.171367369774706 1.0580406099752948 10.077576588481692 1.177247973738837 0.7635957845250398 0.6625190343866719
P 1.285986240853432 5.042161102589229 3.4576101191722066 -1.4833434615168777 -1.2526440312816491 0.964904934523609
P 2.2206476476625046 8.646540850823685 1.6854532296149025 1.0628768204844081 1.33750329111989 -0.7674200433671363
P 5.969795825339172 8.591564074745062 13.525518927279748 0.7246731393179132 0.969817284223562 -0.376089657578991
P 5.510962725190143 2.568899478545005 12.150033343119588 1.5418720538803898 0.2857480344699401 0.2529947512983191
Ni 8.149473220480916 5.429218967302278 2.715867728543327 0.06500468700615902 0.8799798544444394 0.951104024084775
Ni 9.523592817259981 6.613308920386264 1.0957457966365798 -0.48240785862195623 -0.48835687711653963 -2.022773503160149
Ni 7.6252638518457525 9.5282772732994 11.792895099130309 -2.0069756168959434 -0.8843862110422511 -0.6461025407018616
Ni 8.070502660568389 8.93201160186589 0.6017558539117089 0.4782781527242989 1.159826692938596 -0.3922546973746277
Ni 4.252830259947097 1.606459247422177 0.6670206323441049 0.19743681152735673 -0.9098149355280009 -0.27511523734644233
Ni 8.132618547651086 1.1329544309576864 3.2083333492729706 0.3083745136202044 0.34270336880906144 -0.731756785637572
Ni 9.057723664139743 0.9429903696471598 8.942317405152613 -0.2143040195963406 -2.8802181526165493 1.0567794493374187
Ni 0.624112888805441 2.7661619223649465 11.217991484127758 3.205018673003261 1.0866410127835415 -0.5571066329874277
Ni 1.9728118164409936 8.748352818384422 9.150662335070612 -0.7487044692355042 0.5485690278300618 -0.9520126519419734
Ni 2.1123898685915274 2.73605023894356 0.39020581917153885 -0.8557677759746101 -1.829929710320113 -1.4877621594098636
Ni 3.3930077228237847 4.346266420109352 3.1421579125865113 0.3184928330011289 0.4831802180116066 0.6239614858284479
Ni 4.053909518689201 7.281518467673173 3.801776167497126 -0.339279430729177 -0.8885632252380761 -0.9306853512191068
Ni 4.4881211178950435 5.767764605271101 1.467180063566958 -0.3692109281812867 -0.41005418744989375 -0.5266938250235252
Ni 3.6544284765596116 1.4119418948413351 7.959675925805393 -0.27702119611990356 0.6649415277852355 -0.835814987001767
Ni 9.255660669629362 1.1720509010626787 12.868093934686788 1.317236570451054 2.1334386683179 0.7916462629043527
Ni 6.32662021077381 9.07217989547739 2.7609546810315284 -0.466673478605835 -1.1572111096926199 -0.5452947279541641
Ni 1.7832974629102512 4.403679113328473 7.530890800475614 2.3849203254058025 0.46009479694705274 1.0125611029489916
Ni 5.4501491168864025 1.403828416981061 4.124701955248111 1.3176895988280726 0.3001981484569991 -1.1741418240096875
Ni 1.3547540555121058 0.4868602006328748 11.09497766853261 0.5443465051082819 1.3388358938883846 0.4241556598482824
Ni 6.047520319945215 7.506391095389451 4.966627059627218 0.6406330329468579 -0.33009750711959274 0.5291016631340695
Ni 9.155778697956865 4.274856572244445 6.860480495741385 -2.5323571508659484 -1.1878478607418703 -3.0652733026501013
Ni 8.03412317496626 6.878955053469647 12.788713016425206 0.392887188752304 1.825065440249276 -0.5680237941205636
Ni 5.949062422908702 3.7231775533941276 0.6980879447975329 0.8756478027279888 0.4416214207332136 1.2830771509605257
Ni 8.629695546905934 3.28602411579553 4.205838607633267 0.3934222353201676 0.29285122117362467 -0.10850132473721312
P 7.28750520249155 1.0434063693081492 9.784817760733361 -3.217215986400401 -0.40806955291969726 1.1318394636970508
P 1.7468617638356487 6.799937648996725 8.287031335187253 0.08076992026021573 -0.7736783655720224 0.1454043684111496
P 4.7357039884904255 2.724376574493328 2.396630481477781 0.41952278906196133 -0.732584680855506 1.058277374039184
P 0.5124242141311931 5.927513925127375 12.278847452182745 1.4366871951109192 -0.27462698485611414 -0.3691993582170609
P 6.598702786455355 2.49063158703839 6.683604804604996 -0.2858771038486367 0.9701183604037485 -0.8292897842887397
P 2.72395497344978 4.613608326279004 0.7828672301989412 -0.1777403615396939 2.4080543403201045 1.5461136027655629
P 9.943694834875092 8.640750863158964 12.832620422882682 -0.33734364715904486 -2.2582024776605625 -0.16739012865362138
P 2.707287678861527 2.6661956304837418 6.5122005581226485 0.26196610155899397 0.18959494688543477 2.2543486511321107
Ni 1.5454020474043875 3.3464442297919583 4.92921980437004 -1.5283719625114258 2.4660787393536885 -0.7451931136481359
Ni 4.209630206351573 6.354164812285594 7.0469686906706634 0.33004634216668316 5.31356597739612 1.989559221191709
Ni 4.705676625277748 3.1337886634264853 5.321571104407632 -0.11836073402979616 0.46997014707923573 -0.9274817566801447
Ni 1.9305111784050382 5.859383196490063 5.393574941298337 -1.1155597527004208 1.0406614607296336 0.054978156008092416
Ni 5.295824397123776 4.278585399251823 7.063218131780199 1.0244714812333326 0.7238231326127921 3.65699212639476
Ni 7.9342880478541575 2.7304101538720995 11.101285757035292 -3.5617360967032274 -0.40107512387973504 0.22880786963947045
Ni 3.479445305663148 2.2185115357085294 12.242413626890556 -1.7348994234861412 -0.8400058851546629 -1.7671045474637759
Ni 6.067757170035506 7.577398080034967 10.510420326524025 -0.08936691790060738 -0.20443638277364146 0.761766701736101
Ni 4.363064879466709 4.3214669098366665 13.14197065703143 -0.39069223798351427 0.6644617599353395 -2.2916193625581114
Ni 6.915334539071775 6.996675433740251 1.0090393260205544 -1.5634055570767915 -1.6328189146736072 2.6200826765083907
Ni 4.818590753651909 0.23365223522535772 11.958403489241443 0.725520317809557 -0.11985248808397424 -0.4520780972901634
Ni 2.5080858702412656 2.1530228402774494 2.52172888001047 -1.2429753978436335 -0.07576552506708886 0.6379948239930625
Ni 7.3574628689842365 6.1973385929979194 6.854748595331552 -2.031429893283566 1.886810482667557 1.1042181024353563
Ni 7.517999177455132 3.3246989848569743 8.82304740682417 -1.5132834436094196 -0.3309362009708043 -1.1539717768197157
Ni 2.5658171064710675 6.686161580711311 13.351304007173747 -0.6489369248268629 -0.29678552323102436 0.748076348733202
Ni 1.9252739565529677 6.737119093508112 2.435793470858533 1.3261138183360257 -0.31561833966681124 0.5448072467947843
Ni 6.920983993055315 4.565180419743489 5.453702745237906 -0.3906436441337659 -2.0512101612342866 -1.4770355170209788
Ni 6.089942753838195 4.326732238424974 10.58469987215868 -1.4103567847465064 0.1907329171446199 0.2790950479297967
Ni 1.3419561216124125 1.9372099505414078 8.242383784675548 3.79986550085394 2.253293727505035 0.28952498501386914
Ni 1.2981564576438431 5.407726682993423 10.242453513918715 -0.176029035275542 0.608237647335288 -0.4163927280734119
Ni 2.1835936003906986 4.3053336432369065 12.411815736861657 -2.2190072955183395 1.6307026396615532 -1.0453951187598771
Ni 0.7409722660559998 8.64304624661828 4.158941581331434 1.6333452194907225 -4.698251625719709 1.1447757121427444
Ni 8.113290482032442 2.9969838092512875 -0.1852580567733261 0.4328243912668739 0.2986104922549051 0.43870707529989605
Ni 9.198219869674004 8.329206429801351 10.45721614861072 -0.19480862987589032 -1.749171617134439 0.48349852058297377
P 5.821251724329191 7.882346799289078 7.273249465872391 0.6064234769446846 1.3615629031722551 -0.11490954225640211
P 2.7861458118291087 8.149342055711813 5.218618940246902 -0.673118407169073 0.8230736281756986 0.00013498291596750946
P 7.388445861228956 4.950139648150878 13.495872878788678 -0.22798794484133636 1.8783716078715844 -0.06703380162104584
P 0.13271532405278477 3.774331813344585 9.14080342889005 1.8433367277546382 -0.030280396151096234 0.8835508596251493
P 4.138810599947633 5.761562385474911 10.991586102395383 -0.04810354037544619 -0.1733723143789853 0.8903681396572988
P 5.8594956234350075 6.113749159430524 3.019747454929241 1.5645121598774088 0.1825120718967244 0.5803319220639553
P 8.678301462770948 5.731759876152126 5.2806673711626315 1.457670739341122 0.0767757114991581 -1.2932782598632437
P 7.777190130116195 8.778202172267601 4.5351539934220195 0.17463112648675086 0.5241309493923554 -0.025167500404563108
