# total energy = -340866.7465585981 ev
CRYSTAL
PRIMVEC
9.30155461360513 0.00000000000000 0.00000000000000

0.00000000000000 9.30155461360513 0.00000000000000

0.00000000000000 0.00000000000000 13.61376539255956

PRIMCOORD
 96 1
Ni 2.7540136169881846 2.657017004581604 5.859582284311087 -1.193673466284712 0.3670959387208129 1.3007665978204888
Ni 8.6012313446372 6.566776697649082 2.758230941888946 -0.6376351266607986 -0.3850828622165368 -1.6467203552460477
Ni 1.6405896147917025 3.3163577094569847 8.321985650381073 0.5902640935760028 0.5086277115504337 -0.8900974024944155
Ni 6.399692870581627 4.777548238759071 2.9687539595586223 2.192778700839114 0.8945245850278336 0.25044524540358803
Ni 1.8378569868590944 5.649001597002274 3.626870579835546 0.20153155042202064 -0.28373228959149205 -1.967272898989683
Ni 5.895697430742908 4.054845343270569 8.527512803021637 0.602269345566995 -2.5453563913390935 1.6157028238186109
Ni 3.679043930300616 1.9351512490160594 8.167932371292174 1.3885492019531118 0.25114561390472234 -0.6528794544143789
Ni 6.703277012864517 0.752954341837746 5.754551919110533 -1.896751653040669 -0.6600749437215535 0.5729070903547939
Ni 8.476730034984145 6.5341933515366675 7.121428404381379 -0.2786762152248232 1.2860840561076496 0.23652554999870232
Ni 0.08712859302586125 6.131091875523627 4.998702003294826 -0.9241511496450149 1.885079358909063 -1.7878996298322565
Ni 8.106286317521114 8.505546251443253 12.522567752683699 -0.9529115096071591 1.0329178122284726 -0.8797188874735689
Ni 8.02846951090494 0.720779333976641 3.0298521517578805 1.1441681604657328 -1.8602666707407576 0.3730328730305382
Ni 0.25858322064661876 4.382501909115813 6.175340301384707 1.2976193104407587 -1.470043916194494 0.9126112673262154
Ni 2.1593838281573556 2.007684772562906 10.174301904020568 -0.4896437142487632 -0.3520845529136452 0.2718707622672156
Ni 6.250961010936324 2.544170542967044 10.633726154050134 -0.23289900898970858 1.4940449070947817 0.4307176293365163
Ni 4.153079062452186 0.71306927528621 10.189072772883403 0.7793669313163675 0.1388807083600189 1.9416896512039399
Ni 3.711348229772044 7.624791338500531 1.9449439258037127 -0.4700935600309775 -0.9178275214198324 1.5283511365758196
Ni 2.6820474882780085 5.5101479884478595 5.707611623319411 -0.1891627444440226 -0.6483795096614963 1.5956073386203167
Ni 3.319845792469304 2.171764197462415 2.1381102424040868 -1.4596294057293895 -0.06084258520866941 -0.9792704592166619
Ni 8.787392660393367 6.567976598205319 11.03591700785809 0.9167880244117244 0.5221018347774685 -0.2866677180707321
Ni 3.971708047366271 6.404706408564668 12.756846941055946 -0.021463054969782392 0.05613618087193558 -1.4148490161899052
Ni 5.384390968910368 5.812485722401013 1.1405826816081368 -1.1886333327576433 0.8004206666628731 -0.6066199092262069
Ni 0.7432770043283667 4.4368694963345 0.5072314507186817 -1.0878607441232555 -0.04733915140559589 0.6206295932417376
Ni 7.5731491068088035 3.3380489350162623 6.892186938034391 -0.5085837456863758 -1.7715646401176586 -0.580350948227349
P 5.481954976153618 2.5090292693122622 6.885733519383866 -0.39260642428709164 -0.6019392159210859 -0.8371740721328228
P 4.4040257066905 6.396753579296579 3.978799552669184 1.0390779182925975 -0.48623597411879477 0.008440674568185464
P 6.582580039083563 7.9631912000237195 6.830693429760404 -0.4960030808078878 -0.47092659745523413 -0.021736620346143213
P 5.200815485360668 7.8923505594321846 0.26736388828296437 -0.033884054341954545 -0.6593462930856451 -0.4224124519049306
P 8.410605282625266 8.58057259164957 1.112212009619135 1.1405786433422613 -3.729555856695099 1.5630067789764759
P 8.918814326742867 8.25422754501696 5.406448675724806 -0.38474244815798253 1.2228320901265393 -0.3150364990214123
P 0.9570741692522731 2.3431825490198444 1.1432103708107508 0.15398516810162513 1.7301770783098072 0.9795769347134871
P 2.578921151324445 9.297220175028686 3.011078823907842 2.2268129076056877 0.239114136661485 -0.706943583248634
Ni 8.407173008941145 0.48743309154075626 7.525131690983478 0.33483630735615877 -0.03961067241308662 -0.8963007030916498
Ni 5.459417309116685 1.1373382993289447 12.365724007184944 -0.3614927336014226 -0.5899802437869969 0.7820889582332209
Ni 0.9863740665557569 4.155097499821981 10.363737367030964 -1.1030227965756745 2.17891068460777 0.5579088171737487
Ni 0.1620805207945826 0.7433737404972417 0.09543953214988117 -0.5898696863510615 -0.14702904849876616 -0.9921928237052847
Ni 6.715434144856788 6.800571275021483 4.5755454451941535 -0.10752636241845354 -0.4270458369118839 0.947741021149813
Ni 6.587537767738407 1.4888719560878534 8.688141351127625 -0.14705244553753383 0.11245079630326439 -1.1138180874189656
Ni 4.492027715702646 7.077311130441562 6.3138060351081515 0.8330389669185266 0.46196038940088185 0.4992362430332047
Ni 2.790698948723086 3.832714915491364 11.645378125657304 1.1405948412921776 1.0139916647479312 2.243882204383149
Ni 2.1731687322220425 8.652724751453738 9.718663386753706 -0.6496943718181779 0.2931934350043918 -1.7296227484682343
Ni 5.242021372679535 4.36595444330537 12.636801076103957 0.7332811927018984 0.9131877086549758 0.771169997327872
Ni 6.7496731677057165 2.8131342986583254 4.358896423599375 0.16758450405261463 -1.4765814602026959 -0.2121669186486798
Ni 0.8530065149631185 8.21148690117267 3.527816463529432 -1.341282555656664 -1.2848625249957226 -0.8100916140937339
Ni 9.10042718225097 2.3238911245730427 9.463295713566712 -1.4226006351108662 -0.47704710853067517 -0.5523076689368875
Ni 3.71665011595077 4.694373736635974 8.077523119923793 -0.944317854400877 0.005695250612564385 -0.40934944807338536
Ni 7.122339956741932 0.7637515865329473 0.8911261464326858 -2.284141566123828 1.0346103694395472 -1.2826986845751844
Ni 4.094023491664942 4.462420867094078 2.980025583543499 -0.468935020946502 1.546157568629621 -1.3774631193422793
Ni 3.0594022608827816 7.882267674137907 4.615093795465567 -2.148170060990804 -1.026068393406807 0.5240995819337877
Ni 2.94734643141768 4.990395714948156 0.6401134611560053 0.6398331627533819 -0.4004081797196975 0.5397925671890124
Ni 1.1202792480100277 1.445303473875308 3.376635504531745 -0.355291232776401 2.4964470672329004 -1.7607215267555676
Ni 5.0995959671205044 4.992395549208552 10.465949361157564 -0.9211172479146974 1.666549474156833 0.2099197744857159
Ni 8.621983113171828 4.650237859586759 8.552875352220815 0.02932266022351724 0.02545186441420133 1.1419814372270591
Ni 4.988284262031366 9.075768760742545 8.33532780044206 1.0736399725381833 -0.9685615574395899 -1.5666893700343856
Ni 6.381312998495378 5.45565017946338 7.056831897459631 0.2644240761811833 2.4248403015291915 -1.819550423968318
Ni 6.408445633553875 7.964214371040666 2.4376947161661837 1.3424552358085269 -0.24821455630085634 -2.1930538088773717
P 3.054853800634717 8.728904484442795 7.434355028204465 0.051267539925724616 -0.30203674432763467 -0.6296495373521607
P 7.237372283710879 4.933042328670924 10.440219400547758 1.1838791059021094 -1.1621473706519727 0.7604083879359936
P 7.3045946195243 5.155563421747509 0.8136972146474826 1.5709856834168945 -1.2910241737217443 -0.4863514166507365
P 5.970807484941521 0.9802350404540746 3.0429357185982235 -0.5827235622245835 -0.09868870952216552 0.5722033794195501
P 8.47797644331388 8.508885509580379 9.197677727100846 0.5381028381914151 -0.30067046010772736 1.4518775296981126
P 3.9909529640395753 3.275365757896206 9.957148738161075 0.2218725759722179 -0.9289704254105292 -1.1499480003723033
P 2.3331089652802657 0.31360749762709134 11.503890316811983 0.3382347915147465 -0.0590888357423563 2.7708701636083246
P 1.4106644841743006 5.361313811700862 7.80876027781402 0.5968180926444366 2.1664272074287787 -0.11028901276525523
Ni 5.762620087656894 2.7555855797324034 1.9850364170250479 -1.9841632469871182 0.4090815391239794 -1.1369675289522356
Ni 2.772346981300936 8.235615134063222 -0.0556753858094389 -0.8802187099281227 -0.36459862622025596 -0.7898511186771429
Ni 8.023855939773979 2.733559498203943 1.9420306788718233 1.6796487305429526 1.2067706657883024 -0.6653174230674155
Ni 4.365917237086571 2.5124243367775865 4.202719599572577 2.158127943534464 -1.9212997746936782 0.7190249398932004
Ni 8.826505697904844 6.638724223249858 13.444655054089203 0.6572418451481327 -1.1597513596159703 2.2172196074902977
Ni 1.291372045152974 7.593435797608453 6.586584358381707 1.4541771243655668 -0.5367964606751658 1.093656010648794
Ni 8.730122988108432 1.42555627324823 5.087954141258588 1.5136876210263737 0.5338798012490031 0.8905558301880727
Ni 6.867021581794844 2.8109019255304406 13.38094312501938 0.5532764606080601 1.3407752770029424 0.04619038251313335
Ni 0.6384503431757312 2.7200443392255425 12.331471032003968 0.20675268961164395 -0.506744892705424 -0.013890641939163173
Ni 1.4897742068937068 0.9101208512845729 7.849275059618714 0.6537238046925451 -1.2075350547581527 0.4073694415288791
Ni 4.885483479492285 6.7211266963328935 8.715737203610155 -0.4137810014821777 -0.38599406117689655 -0.2718386234776996
Ni 0.1903907326780376 0.6174278993993492 11.019621614180004 -0.1294085072035255 -1.2667107937873603 -0.6782726976765028
Ni 1.6164520803464515 0.2969651559587126 5.222567171025492 0.2945527772457637 1.0442306661381309 2.302176569248667
Ni 8.465772803548111 4.542981632346609 12.307225599524203 -1.437287033478447 0.02604733190635514 -0.2769751733733165
Ni 2.5242931205741725 6.4667012706369595 9.647708337039369 -0.08264451157510928 -1.6068484587517746 -0.4219074872440541
Ni 2.407716735525105 1.1301109913274188 0.013723513803669832 1.9792370133300945 1.4775672211547328 -0.7501126624369404
Ni 6.752724077647159 8.950625643815222 10.583041982492457 0.06063072630817946 0.4777631607610934 -0.5187761128383452
Ni 5.073105139336276 4.650070431602167 5.271399403042494 -0.03569822473255787 -0.30752013603970907 0.23525388237513034
Ni 4.168873102331968 0.6389479763521556 5.803602737662974 -0.2580703660490136 -0.016870807613409654 1.3997849227679313
Ni 5.01737022357676 8.68126192127186 3.9934076443247783 0.14685909857980511 0.6869784529806169 0.8197584477595365
Ni 4.763614509819192 0.47271710185064775 1.1168869710111131 -0.5352088044730718 0.5851625106833793 0.03872389893275911
Ni 6.34127910706865 6.66476857640851 12.11578844194247 0.2741500452196956 0.4385777488108834 -0.1632200564363318
Ni 9.354387530211927 3.7352718284592066 3.5501569376067357 0.3850324685945756 0.6676836093067469 0.9245108469772787
Ni 7.208044481743296 6.659224849807597 9.221325069613433 -0.41319221885824325 1.0984534320374373 -0.722581289785891
P 2.501327582021061 3.399690338009972 3.883053999369689 -2.6795980582652046 0.7292111363975828 -0.01461826413380708
P 1.9277193068111438 6.0283469023127445 11.691460818105128 -0.6380490742697656 -0.1890961528721453 0.2437259244018835
P 1.2840796262685512 6.451483927148547 1.6315959415527377 0.7414557580928908 -0.2614883905916271 -0.7159234181497413
P 0.41666500307587834 2.3901647018071133 6.899728638584762 -1.56421853989639 -0.92374568667648 -1.3970829504557358
P 4.099725344695747 2.8536332678200296 13.305849813619226 -0.8015031010937745 -1.9925352731008972 1.4667595890162675
P 7.606178927546794 4.568691129536078 4.979724971396868 0.4646045118919483 2.1331525045360484 0.30481842083782984
P 4.871642766099401 7.8123757921257235 10.53273917467746 -0.049756502597836885 -0.01937840452661179 0.40554652938752733
P 7.77301161263736 1.6047693276438562 11.8885337876793 0.21192060696582857 -0.7788426833817812 0.13511327089778663
