# total energy = -340872.7846759688 ev
CRYSTAL
PRIMVEC
9.20921640419795 0.00000000000000 0.00000000000000

0.00000000000000 9.20921640419795 0.00000000000000

0.00000000000000 0.00000000000000 13.47861908940321

PRIMCOORD
 96 1
Ni 2.6386799530467333 8.912283685671275 13.638341216255434 -0.0060294940235315515 -0.9535041488858351 0.3001829789483475
Ni 6.830448214594498 1.5650418714553689 3.9639948692039786 0.4239047201797409 0.34536188947783103 0.181741512279287
Ni 3.7456830258426947 6.082494072818361 7.874236462900889 -0.48219265728735666 0.9188297374321014 -0.633249081777961
Ni 4.158596663888654 6.662057691774721 1.0976299322913965 -1.4147621129030539 0.5015420083482459 -0.5581816112191613
Ni 3.8715914331706682 1.4607659135724957 1.2456358544952824 0.7914997100241594 0.019473535343579366 0.2292418718530955
Ni 4.5884828878551405 7.127279679266472 12.083097030183053 -0.12691222314423303 1.4319162560848373 -0.029113115315872445
Ni 1.6192933655724762 5.181832703839732 0.8674649064350982 1.0506280850240421 0.7363811717834609 0.3867018858771985
Ni 6.767788705856966 5.740583493615195 5.772299114153288 -0.44399814849550634 -0.4255715663592025 0.37706076324300875
Ni 5.507129856563987 2.9129027913297256 11.121721138981496 -0.801420054461665 0.2918559471398909 -0.8520551030097132
Ni 7.735677354933181 8.177443468122393 5.794620412988977 0.9601131695619207 0.3743042835437941 1.3526892548317089
Ni 2.1858351524660984 2.9347654711861186 2.1652184795956235 -0.5966815670665724 -0.6431977083502406 1.2809030261273424
Ni 6.090091676391032 5.5883919825340005 1.812698883040072 -1.0059723939878804 0.8401282696651403 1.758609108398255
Ni 5.612612221802035 8.78888018521817 4.929036949474966 -0.21941640112224148 0.2047739686187183 -0.1689343332122897
Ni 0.9141187969795331 7.682512548357377 9.353663011769513 0.5504189365546068 -1.8474420081722633 -0.23528679249559478
Ni 6.047591142466325 2.9667674983558605 5.885802706920789 -0.30200614820001537 0.9031205542269607 -0.6454610504631206
Ni 6.223625314941033 1.4186613759552122 -0.10446566774177884 -1.038190887701954 0.15637552271067262 3.2520688324135283
Ni 7.2136068742849355 3.314875880231036 12.676183462577125 1.50953708919311 1.530167878069584 0.2581089325964329
Ni 3.892745003360279 4.059063452478418 1.0743269309819536 0.9305390554492298 0.3127420465602807 0.46310633007986696
Ni 4.789483246130472 0.7293432362488481 9.62676693025362 -0.8101934297789207 -0.17100561391902164 -1.3089560756098164
Ni 0.37637975546032365 7.14120401454148 13.246382229323729 -1.283465644648196 0.055328083148343414 -1.7400349449404935
Ni 6.833910879980346 7.196201455191177 4.014499133146879 -0.965704033386137 -1.5517643732934372 -2.8389020674765817
Ni 8.257434722222069 8.900744537457264 9.84134627818702 1.1770847086880953 0.0005643571439022539 0.48510905960320333
Ni 2.452828755834487 5.421723583190696 5.3293514584933215 -0.8697067546532055 -0.009844239783931433 1.2083935461037059
Ni 4.418968840628253 6.574505670968178 4.726399192514517 2.3999221981312733 -2.7199651492283414 -0.2797542787803505
P 1.4829693344376027 0.612463544730145 1.818387416042302 0.19132529931298017 -0.6961637190243107 -0.980044104157893
P 0.37655104688632574 4.120240277367222 2.2896801190190312 -0.7999193015464223 -0.264251555159061 0.8111028289670675
P 8.323059598657055 4.211549658486068 5.739371560730148 0.3861107892604189 -1.4809104265953525 -1.3155296150622764
P 6.010026748559742 5.125757784865183 13.167047592357058 -1.5160026423127955 -0.855685757783765 0.24500993332062965
P 7.396419030068113 1.7696246149304224 1.7803772960594555 0.8912567129098392 0.20814082820842217 0.09175804384060327
P 1.8102464686989779 1.3032514753822044 6.3740118195976905 0.7706269803402083 -1.390215276801625 -0.9634949415499601
P 0.03910785858389206 2.5826050340721847 11.877049100370531 0.7326476728829576 -0.17298639179447628 0.6676512134069147
P 4.105818644403822 2.8227445622673453 12.71554089092686 -0.8086304561671751 -2.1092682417192834 0.6215618752480199
Ni 8.018860760823701 5.202452139475143 0.8732915776841041 2.208704628040751 -0.5382848722952341 0.248257750833966
Ni 9.334645979796703 2.0782438766606046 0.9786164653208289 -0.3203023754060419 0.7396277037452166 -3.7595320913422157
Ni 1.9168247306947823 3.08031713720562 13.302049180009464 1.0223541777800136 -1.2187674331388623 -1.5712175969220423
Ni 2.4090389316065384 5.788784532523519 10.307328946957684 0.7522489920536528 1.1398044841803983 0.702022748908249
Ni 0.896332116324673 8.40987488214746 5.177690398279746 -0.7392518084630366 0.26051239983160296 -0.12245804402762137
Ni 4.10815778538256 1.0334951070782987 5.679391013058423 -1.2220707864804825 1.2825678154242752 0.4185758517676598
Ni 4.955507000322157 8.217641697934168 7.1951838367732615 0.4086223400993737 0.029585426966600662 0.2130529207980589
Ni 7.422389020461975 1.171329449711255 11.517372100788698 0.90233559643182 0.14187218688817502 -0.671035042277483
Ni 5.082502095191434 2.986346292532226 8.237996829057415 0.5525041012184098 -0.6641007770514951 -0.07217112284761118
Ni 7.363514499686103 5.956825105118131 11.825937949063462 2.455703309656635 -2.4101832137376493 -3.7400575275573713
Ni 7.61811249771047 3.148014087342245 7.780263776384205 -0.6572302751839068 -0.4177009053618742 -0.7103551800333444
Ni 5.928930388485859 3.2249110447141422 2.182255530031313 -1.341477959496922 -1.0945114166705536 -0.36933819778777033
Ni 0.1770877068367857 0.07882813006182379 7.64201317716763 0.15650073543462725 0.13657879969971962 -0.17841373345763467
Ni 2.0779123448683423 3.454377091041754 10.823870214048316 -0.7378001636181745 1.1637825922625507 -0.5626309052397666
Ni 2.746519877696424 5.175754620981594 2.9228386149594905 -0.2545893494789486 0.48169206350185423 0.7574089389880375
Ni 2.9282269275053947 2.048074483564756 8.724885340095138 -0.8623857955117599 0.061647597608468024 0.9568869493151392
Ni 2.6406230977180476 1.3273612040528187 11.279069811275658 1.0929898378197047 0.14938263633260723 -0.05681006701050862
Ni 2.3856014757369004 8.204223869564006 11.387141808179932 0.7438749090573448 -1.2956300479248717 -1.6824280930603024
Ni 8.033199510839035 6.3717463523505655 9.306946498553206 -0.7802310790888757 1.4178371522839517 0.5189272937042289
Ni 8.794239949193074 5.4004226655378575 7.35850376501472 1.2151853722145587 0.7402864203751379 -0.16793725940634305
Ni 0.10381457613864195 1.8481700220471784 3.1286305285546554 -0.8695961972172701 0.20893658463684014 1.8652209294222393
Ni 1.1666327493208757 3.2706255951805008 4.757831169185897 -0.39784247587505034 0.5707167675716945 0.10886976382022541
Ni 6.447731597293743 7.655115129413498 10.468843868774606 -1.9038697521426886 1.2607566330864546 -0.1487938537086728
Ni 6.07394791995116 5.227234140946733 8.016017875705053 0.03760161240285782 0.3524311376197866 -0.0007474196889858095
P 3.8441755957938852 4.394638090762797 9.195167792027114 -0.9382971021280936 -0.5162374055768916 0.7011717137618634
P 0.3984468799219452 5.081590382762713 9.845471086235747 -0.08795409671348078 -0.3167462826236674 0.35399411123153224
P 8.057051381449002 8.280052557827505 11.9911595805022 0.3161592997719458 0.15437263334803092 0.16828358700216825
P 1.24789487529089 7.132188191635241 6.934722330634081 0.2793161628016674 -0.28154222391870865 0.6506158551911827
P 6.846278857675012 1.0077093010134708 6.143177283705351 -0.7776208951595381 -0.4839240381561666 0.9888287923290583
P 6.950867928917244 7.41749892652611 7.706144318694147 0.02907377743750477 -1.241818915641687 0.10412607848765291
P 2.326763791826834 6.462889967573281 12.668999352823135 0.6193944352830558 0.007180576908839247 -0.13382643376556308
P 7.883347140736579 7.073589947352921 2.08743375375778 0.6952070115379962 0.46538715569424366 0.04452070812019429
Ni 5.38286068976442 5.456451538430148 10.364842345541994 -0.4967592422476219 0.05283282753031546 -0.007075675899858782
Ni 1.6882151414971804 4.442387878064987 8.257109636881323 1.5144198712067078 1.0385706396388759 0.8558233118028938
Ni 3.102087724897496 8.041368085831715 5.617686500066935 -0.23831760890211862 0.8106369450742427 0.6298860788429991
Ni 3.8185095095429302 3.159497980257545 4.289934825236563 -0.37362859763300815 -0.6321777030906532 -0.034600106572372676
Ni 0.24321448556839145 4.645672122020348 12.681884888482386 -0.20909547881220766 -0.39367985985692844 -2.796067745919875
Ni 0.7584056815271994 0.35351235008904724 12.207126757354875 -2.6343823809605147 0.913200307060466 0.6932318900894964
Ni 8.115014189796154 -0.21108260844668048 0.877584914393898 1.8057412859993676 -0.1620034104204113 -1.2146374701308889
Ni 8.393196991153387 8.913572975974516 3.4320603968142915 0.46700155136921506 -0.866482848399269 -0.09648167456851771
Ni 6.706547416453 9.59683237217729 8.312142993475181 0.43727908460411785 -1.1697354674118758 -2.822603844537191
Ni 4.977544655291133 0.5213365060970435 11.800666017276638 -1.359430944430917 -1.2357883931768912 0.8787557522293511
Ni 1.1709150349709276 7.3441751451374815 1.8042346921992924 0.09237767970247315 1.2589987698550833 1.7144488689412734
Ni 2.654547432993054 8.679612832018462 8.046964526669429 1.220510383971898 -0.5727379117667813 -1.2394427021000267
Ni 6.244714420615482 0.01726635992533774 2.1402163778508374 -1.7605109534066583 -1.0321739920839128 0.47212678841092237
Ni -0.1447292829903623 6.297851599541931 4.290729580616348 0.5807605249609417 -0.4672740883043114 -0.08371023383546228
Ni 8.956303740310517 2.096828075460184 9.687609460585227 0.9708801782704376 -0.010322722082246738 -0.2586522066944126
Ni 2.2486880547491164 0.9088594134639535 3.7287656952208774 1.6138529150940657 0.04086357098358124 1.636167776541182
Ni 6.7460457458144445 7.167606838108573 -0.09369917278806805 -1.412794961874354 3.1531934608018535 3.5936717690695597
Ni 4.238762893100913 8.143857455722953 3.105082562087597 -1.2525100768069461 0.9759095131642289 -0.7004911427550711
Ni 7.471253122954824 4.220648364340372 9.903765426375163 0.424698676835946 -1.274572198813308 0.9479449096305029
Ni 7.676765997291501 3.915362838965714 3.5627760151300647 1.4258186278275315 0.720873563066165 0.9211018212957298
Ni 8.85414590221154 1.2786168213738422 5.563071241899985 0.5095841619264321 0.5040830296025447 -1.122574236345041
Ni 3.9126277016795514 4.932962838448336 12.364988383005397 -0.36708334031532264 -0.5741147375096499 -0.8903912795857505
Ni 3.086551776743437 3.0803908109372338 6.660486599448056 -0.011493602461896336 0.895027235695865 -0.6609686591804165
Ni 0.6358061456703303 2.8510536936399458 7.219498930970749 -0.6966188042838583 -0.2852770083707925 -0.24944842870795747
P 4.822857446551522 4.7466327619806 3.335109449697119 0.3259778285242644 1.2561381604778366 -0.25235583216273955
P 2.083566803769701 7.117794186321197 3.722578943608609 0.3663127806978852 0.30614716695158245 1.1482739551039902
P 4.1043451697715465 7.873235421072586 9.87517817666572 0.0806346802339321 -0.7599077941504913 -0.09170302223295175
P 4.940201282579391 8.689862689929232 0.4517829779237512 -0.5952497197160523 -0.3079903908079083 -0.8239449750370584
P 4.591844251860019 4.595804214934261 6.161453894675444 0.11484552178768609 1.6312639114816614 0.31108008547682553
P 6.670392032663531 1.999016987526421 9.5292625092277 0.8153739455385957 1.824742509692219 0.9105055338371222
P 4.747581311275128 1.2449387168098867 3.389522105102132 -1.2558321992016437 -0.3222314741079547 0.5531821011220409
P 1.5235359329074478 0.5373587008797533 9.45694989980547 -0.9740287512017481 0.8592477641034105 1.8039327720357192
