# total energy = -340873.7886275954 ev
CRYSTAL
PRIMVEC
9.24918935626981 0.00000000000000 0.00000000000000

0.00000000000000 9.24918935626981 0.00000000000000

0.00000000000000 0.00000000000000 13.53712354529009

PRIMCOORD
 96 1
Ni 2.4311309458433294 7.777717393349853 13.103949149656456 0.893238005005926 -0.7119670046051545 -1.5882915216851936
Ni 1.6203839963179651 7.394181254854277 4.436236826743039 -1.1857526687757385 -0.5917972423910776 -0.7512393198422159
Ni 4.570366722159519 5.612833614717407 9.88315663145342 0.7947776094444828 2.3100140630152155 1.6053986136791254
Ni 4.564521234433636 3.3285705479868968 9.65835878179756 -0.2894139133573016 -1.8766577105042712 -0.12661731761163356
Ni 6.401715480407347 2.7131387318594418 2.313006772752231 -0.012062073370856645 0.38722099160546214 -0.679192895497927
Ni 4.513197482232802 7.091399789356624 11.918002356077505 0.7916082105775657 1.7936223912486466 -0.7545812397312552
Ni 1.111253114420854 1.704005918042192 9.884117622236204 0.05137012694185991 0.1501917624974639 -0.5331915169327269
Ni 8.679309881551841 8.41629068145541 2.9689759363559545 -0.3856104525852327 0.041379334277735186 1.9566501291685143
Ni 7.233060374814897 5.425297049638276 4.35690930367566 2.4550474212401916 0.8993688004940124 1.041486013513458
Ni 6.642555124227403 7.019024881991059 0.15149154891371935 0.09487267821018498 -0.2483315414946949 0.6556657589102644
Ni 6.4085691297821565 0.1907201360842716 1.5675045304533763 0.7311955138174633 -0.9807344453566981 -0.5642797536970992
Ni 7.859230499881831 7.5534430478162795 8.325074250282254 -0.6812173821271236 1.0029480053392599 0.7486175659486527
Ni 8.320441331291915 3.9131285697646705 6.47972036938485 0.39245730030373704 0.7025012312065644 -0.14083808919670582
Ni 0.07768671686077838 0.8997278516109464 1.5730003988184393 0.5269200821017184 1.6109591384860384 -0.6671863579553542
Ni 3.7266001663344657 7.763103674035145 1.7102666943739173 -0.47274950959658574 3.115852815369866 0.039256117287145294
Ni 0.9062596291932546 5.054053083908046 4.651098272183843 -0.8176573422561338 -0.6662633319204525 0.30766051827231533
Ni 8.160254619385944 0.6268480906528628 5.031342624157834 0.5048872706713949 1.1021265100136501 0.43274160174508053
Ni 5.772280391468203 0.3305604810608149 9.145003795083342 -0.21205096189610576 -0.17381325857114582 0.32345403366114617
Ni 3.5713617707787284 4.726946250184011 8.131844809102995 -0.765885609000481 0.2612132825533695 -1.1596024927429318
Ni 6.712062782866665 8.227181754171532 5.27628335857545 -0.3168972063792349 0.2733483752540066 -1.2082166542062096
Ni 1.6941555312889234 2.8040952608093415 2.647888475119269 0.557657363284575 0.1316721064267216 -0.9356774051170594
Ni 5.538581121895585 4.079096025070447 0.5027877877793726 1.5579424770796912 -0.33812603385102413 1.6861291960609737
Ni 0.6535643743494041 2.1633021672382595 7.264684278428137 -1.6120426013582043 -0.7536839247279665 0.14027887425912616
Ni 3.274786511395106 7.859165755555753 9.80700990463435 0.17539011613996244 -0.9811833599686585 0.9740891721260385
P 5.308849754592594 8.391789578629675 3.632294505888454 -0.3878275148412095 0.5905520571300669 -0.2253546209835474
P 2.0504990528318148 6.011806650387824 11.723284720317402 0.5528470863801253 -0.448498350358705 0.6264608552115339
P 1.0370838643039892 2.725902613286212 0.4713867896316291 -0.7026529262930801 0.3376254400655218 -0.607242116191238
P 4.600685565142819 8.822561327593743 -0.04437946076951494 -0.140456537487571 -0.14853031563464095 -0.2192384807834805
P 4.6808760375849205 4.81765305101904 6.009751480494326 -0.13746660162131163 0.5152056218782676 0.6864277226834694
P 8.577504053389186 8.096139238190021 0.7727170573061954 -0.9595837794210119 -0.26656297690105707 -0.43191087831366903
P 7.60361990052659 1.2684708365166846 3.074686772300046 1.6559950956797544 -0.7348022573321151 0.5919643640965611
P 4.301502034337204 3.242007384020849 2.555497396887273 -2.6063463007589047 -1.0738921977583054 -1.2624481618562644
Ni 8.579899593454066 8.156462451715672 10.641573516966911 -1.2661335811276517 1.6521276423045483 2.06765236595071
Ni 0.22402276758081519 6.354156148308467 7.028163081157471 0.032475089809569875 0.7454533092880581 -1.7174688867145196
Ni 7.030456880138514 2.766127338159419 4.9376927312430965 -0.13601058590107543 -0.5723679300218724 -0.49054514301710994
Ni 5.71588808345442 4.6481801529156215 11.897047392482948 0.9686026950901707 -0.320202616603384 -1.6800580501662292
Ni 4.6241692571301884 7.214340015388968 7.85283098570851 0.3678536428224439 0.5145376492769654 -0.19802533704097508
Ni 1.5987408930290934 8.267027262277711 6.936314005426642 0.09698329679528458 1.2540905339201884 -0.3894653075549486
Ni 1.029897244109351 4.711296621652058 8.292192456905218 1.0330111432732274 -2.1942609418115953 0.6354412043332734
Ni 2.221229840699031 2.1116269458387182 12.018122981924249 0.5423898956025432 -0.9091184236816086 0.43741766706451124
Ni 8.47095339104397 4.2860373895940445 0.6644710185366852 -0.07597429864378528 -0.14018991408974565 -0.6187598870228505
Ni 5.51762245862525 4.297145666111111 3.863657430208607 -1.8438440064083603 -0.7187009808948783 0.9296947051710635
Ni 4.666687780984438 6.597030613805256 4.606574524059068 1.335311939895526 0.8933115385563388 0.5037004494521454
Ni 2.617622352515775 0.7133659335906561 0.7025628803250996 0.014768930779058434 0.5748575292129454 0.4511018494198231
Ni 1.2718652890410505 0.5670909275209213 5.2023841847902235 -1.2696639628784134 0.8333986642507905 -0.48504606757575175
Ni 8.737191309065414 3.5437806878695763 3.155449769568465 -0.8411353707734159 -0.6785668318781539 0.5870175616142471
Ni 2.279259255243639 3.9424669986673635 6.360187544742088 -0.1074335455943311 -1.1789788403870147 -1.313001449323784
Ni 6.231558142285391 2.2636096267116854 11.021154702058078 1.2554385633076508 -0.6226083142346631 -0.16175992695103752
Ni 6.96992093525575 6.693638397502806 11.338220615726389 0.0642058452539475 -1.7521582105665887 -0.1478723703356679
Ni 1.331383823085448 7.930680488303428 1.5918576462480771 0.1654620583929731 -0.7550982885769899 1.122502759677157
Ni 4.633251961159964 5.921516063077582 1.8504168871966904 1.5938875277157325 -3.037240050661969 1.0481598259892078
Ni 3.0553864886962474 2.24147631638251 4.56408189793525 0.23943372478443278 0.5921088600942255 -0.6739750987424135
Ni 4.275659799042714 0.6442717137193487 11.233795417114411 0.2834859779086408 0.026582635584534862 1.0246560864403127
Ni 4.911328841664207 1.7692497003497571 0.3555351423858627 0.2545276430030778 -0.9251867899983809 -0.903710879512792
Ni 5.178426934303542 1.0243847272032967 4.966269951854903 1.174070861562436 0.08683746661053433 0.2550472629519736
Ni 2.814269369192999 6.306809547566699 6.316828269567771 0.5881478185639484 -0.3320512884118539 -1.4212749743209072
P 2.1581226211520343 0.07243225234009115 11.06378329126666 -0.7871370621800896 -0.31590681744150756 -0.3013047512576166
P 2.471290926390458 5.917668400270672 2.5262708831768004 -1.5725401723882078 1.2713598625235976 -1.195693067817902
P 0.7649051919054343 2.758598497955512 5.116585928790838 -0.36554016419791885 1.0256716721890207 -0.6317773823284409
P 8.014200668943818 5.261771380344578 8.184044459543767 -0.3790076025567344 0.6151426019852373 -1.108894167754787
P 4.519459183483471 9.440647661090386 6.928489191160664 0.43049780001622634 -0.8726938623059874 0.8351197607069554
P 7.961831758336299 0.9602693460073736 11.377830269501855 1.1369572445395901 -0.09619885322077626 0.6720894516839264
P 8.652413238661227 9.314581209027429 7.170844777129887 1.90614697821264 -0.4381020947260455 -0.12396136804602524
P 2.2507994993377163 6.594958795370765 8.318210426799062 -0.10451302951342645 0.31638427129855834 0.9637397105709145
Ni 3.254123822186841 8.964295906567534 4.567182226235434 1.2889297530865607 -0.964396884538939 0.27812908447210166
Ni 6.430138239555511 8.819721826435758 12.145372405316545 -0.27386465276879285 1.38327484092805 -0.09222829860880247
Ni 6.646458282170952 0.8946075003371347 6.981094881017839 0.1899335611717761 0.33109972313186203 -0.47235253126848326
Ni 7.449186184452106 2.0134098031786625 0.14905716225319326 0.21317042021252963 -0.28897245494450874 -1.0055713018947199
Ni 1.6438306915475764 5.262927529024539 0.49260535512521925 0.3493082757200887 -0.23393002135738422 1.0679231246590641
Ni 2.8513863664144705 1.4735716123417844 6.825688150214299 0.6149063176047153 -0.7489728924055423 -1.2928203463902186
Ni 1.8034254553294071 4.077764141791131 10.63776932535037 0.5880341758042196 0.599790030788567 -0.8002771991064734
Ni 0.8841485169187345 8.244052275709524 9.197948005274009 1.5666384621917921 0.44444732021778294 -0.8751160985942348
Ni 3.443917189489256 0.7976158752778377 9.049309831302434 -0.8315672674690066 1.0461613075019403 -0.6084042548201393
Ni 5.1133681357847705 2.7528547513134654 6.616350320706878 -0.29397067949004857 0.6930974213941612 0.4923572565251843
Ni 9.073593578176336 5.944870266412797 2.658433475999458 0.4971117404910341 0.24262780624169825 -0.7878016923472819
Ni 0.0786874791581527 6.43194183149625 12.768418154190751 -1.0782741288760849 0.9447130329567665 -0.7633512726144015
Ni 3.247880619315051 4.907564421562254 4.160580459115161 -0.9404815113739222 -1.8948721766297687 0.28378422587534996
Ni 4.000551908348609 5.431105540606401 -0.3419897044514384 -2.015996589447631 0.6506276822657246 0.3025856748525692
Ni 4.400070646195968 0.8188742122860185 2.6766950756291794 -1.187629316973161 1.4537328377392964 -0.7418555646344708
Ni 9.271017526766494 2.9775268119929468 11.791403150702822 -1.0766713031653394 -0.4598880802528854 0.8044287593810017
Ni 5.995870296983241 4.679229681864657 8.118321569223227 0.11400168573015206 -0.7753986906972388 -0.7524261410614655
Ni -0.15724546966414976 5.870793508190328 9.821968618715157 0.24792530719521172 0.8782014223877779 2.90751169822518
Ni 8.039201227999296 3.599951015336807 9.5679710779982 0.6060213564102596 -0.19381901226911136 0.8813924185212497
Ni 6.713829378049645 7.164311149709691 2.5812314166653194 -0.38911897995912337 -0.38375643009562943 0.22757039768794357
Ni 3.1689387874473067 3.3504171334434414 0.24268948170799517 -0.0693969025365837 -0.3893431801547875 1.2656710396689363
Ni 6.6766568856915365 6.512335786106025 6.504114181613086 -0.2659857642413484 -2.6341262990856507 1.0071263050866657
Ni 8.183451586500682 1.0346605766707908 9.093427540010806 -0.2856732153679467 0.10035735547384006 0.16156786554488947
Ni 0.5739260785168514 -0.028578145530750543 12.706742709169019 -0.8596663396980678 0.7308602419652316 -0.312538672300223
P 4.319852426185547 2.898871704997833 11.795992598502794 -0.7692756085186364 0.2202648651654658 1.0509821259293513
P 2.394189683221212 2.8291790625697777 8.340168002528884 0.72073575193672 0.6567487075617979 2.2964607498108127
P 8.018159322024005 4.771101880569085 11.850302913973703 -0.2758953100455765 0.3507455223872476 0.010719443300033151
P 1.987243846253783 0.6201109810649936 2.972833773271249 0.08725758486708843 -0.8690927752182903 -0.08760288402164913
P 6.499331425753822 2.505189205686918 8.595884042643736 -1.4021873615618368 -0.4385227272032319 -0.15723375694590985
P 6.9006722539208 4.995653701785851 2.2389864345853456 0.7930639691874858 -0.2647266950232667 -1.376740382243642
P 5.989812077900244 7.496958247908099 9.624434604770668 -0.8897760145992546 -0.6714176224278824 0.26125827685869196
P 8.706326763905173 6.817873510056706 5.050781645603228 0.24313379934383933 0.7112951753491105 -1.105067080699213
