# total energy = -340885.9503488039 ev
CRYSTAL
PRIMVEC
9.13389079999295 0.00000000000000 0.00000000000000
0.00000000000000 9.13389079999295 0.00000000000000
0.00000000000000 0.00000000000000 13.36837245362191
PRIMCOORD
 96 1
Ni 6.733705185855121 2.2957942990842635 11.645135235435962 -0.5966849095006821 0.790435273315387 0.05064559007100954
Ni 4.893372347623445 0.8495376957188925 6.108250144608155 -1.3636264705695031 -1.6501568917314227 0.7179769582446602
Ni 2.862963243466924 1.98042845412573 5.007097507614008 0.5011961949730529 -0.857409168232775 0.21299224276345252
Ni 3.5986707394519493 4.938338491647856 4.857171085135865 -1.5130178486528587 0.9960741610375617 1.042372015662837
Ni 3.5746303390716423 3.1187852548087314 2.997469831628185 -0.38783034305468694 -0.20879157441854362 -1.8664144355097083
Ni 4.9460566293079475 5.1640734669513915 2.506035455556069 1.0145863609091366 0.44017286121214516 0.34075858637786477
Ni 5.161744324817281 3.2636213599875035 0.886123495005868 0.38555568808789725 -0.6609560607749262 0.913466159127343
Ni 5.975208632518703 8.475081452004638 12.755539590342423 -0.7675342003474975 -0.317141461179557 -0.4455827193738068
Ni 3.0517607646906875 5.709814303700238 11.884723582797555 -2.288567205995349 -0.7846294652668874 -1.82314585462906
Ni 1.006344678077919 7.892887257384285 11.73477067203632 -0.15006912087667057 -0.610547012194755 -0.016921972566319242
Ni 1.127249989565048 0.06794701308096644 5.034088154697522 -0.470632463253583 0.8834205046948721 -1.1503164394553156
Ni 8.772526603366604 2.847764449305514 1.9186952269029411 1.2870682743977897 0.3087519515642812 -0.17550812977506547
Ni 1.7316943419841953 1.4273713709085614 2.758910873750959 -0.9711835684434693 0.9212715141043746 0.6823499530696701
Ni 1.9902565205426035 6.850710326003956 0.4196200736594542 -0.5504929843256519 0.5960963839870637 0.8952835746810452
Ni 8.121161454308538 4.274971410181079 4.138874611645118 -0.9432966122252142 -0.9414862984893528 -1.1794478096036334
Ni 7.683136590844251 4.1623048681251955 13.050993553526993 -0.17278121776220567 0.3438436530610917 -0.17272928147834768
Ni 7.812006655040965 9.25674155221205 7.276418137829623 0.1541864854791538 -0.3697927688266857 0.1276886962989414
Ni 7.352453211144922 0.9943792812320976 0.41785357919381916 -2.559330851241315 -0.2338230634658747 0.7299536709905623
Ni 1.8271891694827171 6.4315469468806015 9.784097693715653 -0.09431217772102467 0.030219461006173762 -0.4425665582553023
Ni 0.10568550937705853 5.240533266185263 1.279119190599761 0.5428210696026909 -0.1983886339176648 1.5715338426108807
Ni 6.573460207028334 2.376300411907981 7.104901937851886 -0.7108899694908918 -0.5797562520661433 0.0001804914419222698
Ni 3.453980776524729 5.020598311490199 0.5650809369636111 0.08823511828900933 -1.2109479370944436 1.7623624047931001
Ni 6.0026651080290385 6.047795662086446 4.831155937581461 -0.30134074670187455 -0.807834442628441 0.39207112060891186
Ni 5.24234177654822 3.3991682983020004 9.530058617842778 0.8623045486518633 -0.40989169373010054 0.24567199238466078
P 0.23018500686329502 6.001331559983625 12.725340207448271 -0.13595993516879812 0.4933766989286342 -1.3592203710820074
P 4.885983030029346 6.361480871152131 12.831886129331341 0.11487560369467313 0.7906977829481544 0.8832850075582723
P 2.5732362297650475 8.950546133538406 1.7316322315272856 -1.272396531318228 -1.5336375817857393 -0.5587030309402701
P 6.482413584311425 8.090069690290845 5.937923177202422 -1.5956099097234777 0.6931712120548901 0.08280546263300577
P 4.938795186183956 1.5972982739006707 12.943418242159554 0.7812962871285963 -1.142960513310877 0.03327958798873623
P 4.032338737041841 6.456592075240329 8.63194506448614 0.7764574709790563 1.2063698308054578 -0.4686876808223863
P 5.005801408520556 1.5738607103080156 3.8610536244993705 -1.1734540539140437 -1.204299064319358 -0.35561056378903266
P 0.42357596173115286 5.951615792783774 3.924900434035231 -0.5924680432058571 -0.9126531763077445 -0.535712997803
Ni 0.8443313780073518 7.63803343845901 2.686294615732906 0.9229275616505588 0.2492144583202805 -0.6335457870827734
Ni 1.83377470469328 6.863105015713711 5.130553914779792 1.722794412692491 0.6721676132200295 -0.448944179646872
Ni 6.343934667075167 6.1288498083534835 9.345762277966816 -0.3069285252022972 -0.9698057142593363 0.20041517742939036
Ni 9.033472727403455 2.4208463969591807 10.435017108906486 0.29291755563518584 1.0406118384386207 -0.6997498937136722
Ni 2.340568631403513 5.834912071028766 7.233198393711258 -0.4202082451647602 -0.5040076962799191 0.04086922741053607
Ni 0.8503405647133563 0.26337391219075834 9.52410971481554 -0.3173623189411115 0.4722810546005995 -0.09671744472840763
Ni 1.4216352875351448 1.2802335252678452 12.017806197395258 -0.7292643582330215 -0.10621741379904287 -0.8393186292796513
Ni 4.377380592956156 7.467722912056576 1.4915762289607242 0.021063248428202435 -1.7599630513229885 0.14960452253542622
Ni 5.588178280955349 8.071500490453017 8.25165461088655 0.019087098538438093 1.5796289609141891 -0.051012229381808924
Ni 6.790317040550084 1.1949503875965206 4.978930415405501 2.238874980976544 -0.13319857037357702 -0.6664975594184456
Ni 0.8054493185928651 7.914004812733552 7.162239023470176 0.17709681441842404 -0.6222763848165412 0.9849217439651683
Ni 4.832038271425207 4.891828720091426 7.075692668711999 0.8793447919636017 0.0313052378711848 0.1317034738852893
Ni 8.578047802113757 7.544155309618282 9.436987924941876 -1.152296703110138 0.2124170869862729 0.485890417853918
Ni 4.952706101753564 0.8300925557608242 10.77349078400261 -0.2181241646733792 -1.356696061998257 -0.6345770565607652
Ni 8.454594135115189 7.694170330836428 5.310772885837451 0.06322985449392336 -0.7195993243394316 -1.0612423702047789
Ni 7.110825265985104 6.308467769401636 6.98890517923876 0.47343342303748787 -0.44701096717990113 0.7769390386011652
Ni 2.5145235802040244 5.4941996793166785 2.7428690214759084 -1.2994221679774525 0.6475189614334138 -0.31922893983620504
Ni 3.321411486585605 4.593963409756247 9.036030216805615 -0.4883548202340106 -1.9226925412761469 1.107152502473332
Ni 1.3846338962203182 3.619158056341398 4.007249766006648 -1.0339046016217743 0.2827056480991905 0.25173208253581164
Ni 0.4274651724005809 0.6814046888645843 0.8150417306291107 1.8332032388650623 -0.2931191301230307 0.4876732207859537
Ni 1.2429763850128026 3.481053628624741 8.21161620090666 0.06589685980312522 0.6129520220918219 0.38971470456159335
Ni 5.243593119577134 3.6003331075633533 4.439035268718736 2.932351382976679 -0.625529087425884 0.855609910240507
Ni 4.191030954445889 7.284624938643341 6.336287773762707 0.3152092771538507 0.18042022236470218 -0.4977462887512396
Ni 8.397443380867628 7.879551776930163 0.28845740289151783 0.6818295617898257 -0.7418434804496127 -0.282772496781384
P 0.08515069625585557 5.862478153227765 8.350754585053046 0.38354765651893297 -0.3114433823535152 -1.004704068798418
P 8.888444810519522 1.8464342772339735 8.109588814763763 -1.576525639398517 0.1744899729231963 1.4930630027974867
P 1.8724567319009546 3.740200376189357 10.465443925679617 0.1193189841780074 0.08548532345801407 -0.7772992501540613
P 4.003767926863421 6.865123605563273 3.8295444416756834 0.39743906978904453 -0.7691851056873592 0.08809062229134507
P 6.775045175262898 4.524436233580374 10.783958222770023 0.21474959177419142 -1.1406190096618938 -0.06382686464797395
P 6.4881039982312325 8.153833381421135 10.349353087992053 0.6082908691707265 1.149393927641046 0.15082348254419184
P 2.8345842449936662 8.98857965450482 6.473634088549438 1.0897224799223426 -1.5744975532248948 -1.6764201963033256
P 6.895155838257213 4.154321847634166 1.9885320419742896 0.5830776031298925 0.762382480943229 -0.03804358503628286
Ni 2.8105529785040813 1.8007100202796358 0.3489703423138476 -0.022561430240283727 2.208120987623139 2.678399667081729
Ni 1.5623428741075722 1.2211189845150539 7.128457328634855 -1.0227925508690126 1.6963783845928075 0.8416169383955248
Ni 6.971615637491085 1.3717094408486865 9.37469113666154 0.9166196171546601 -0.7192910490703934 -0.010691418275575135
Ni 2.8875699450719945 1.6960630342776688 9.15097201104035 0.671175167399773 0.27294702605052995 1.6321681684634857
Ni 6.74584412662466 1.963275007349812 2.50112872946021 -1.1278316280892384 -0.032645296838847 1.2349296447210214
Ni 4.396306014532143 7.236498468429118 10.904915597434268 0.5288147280212699 1.774048582881777 -1.4855535817943188
Ni 7.370364770850766 6.570126336914803 11.607489904825234 -0.2701787192767734 -0.006440870529337295 0.9834718988925192
Ni 7.876747672478509 4.051894397077645 7.999674313982417 0.2660392431871031 1.1724286979733227 1.5977662939448483
Ni 3.338592335033689 8.815885182623944 13.079682190895726 0.5299236448147325 -0.9165283429924346 -1.9753541333359206
Ni 8.958666162390266 5.064377049720749 10.60516961899943 0.4885242559323393 -0.38851245672337603 -0.43692272970596363
Ni 8.913718286147297 2.911592077670858 6.156897246593533 0.41067459464271205 -1.3504346544695773 -1.4105922977960803
Ni 3.498015263695497 2.471356812651847 11.565032840582155 -0.6450818127468311 1.2602434408954617 -1.0425185685430303
Ni 1.1782170997938144 3.8546662947174752 12.4588552920776 -0.022220501961097216 0.23189730719807158 1.3180678081030976
Ni 2.9022937769158608 8.405143250746274 8.678706931426499 0.8623929946006116 -0.5187360036290292 -0.13145484820959297
Ni 6.1167382692561105 8.017272581236497 3.622855455305664 -1.7798945001395927 1.5695813468702 0.4209798332234621
Ni 3.3563212169250933 8.958035923930447 3.922801465947315 0.5242376501735488 -0.37517974417021194 0.06692041597163313
Ni 3.7239694523763607 2.678038491909289 7.192545272885776 0.6800431593133643 0.728739596077803 0.27127375211316507
Ni 5.024927775692427 4.315242734374382 12.164336639302961 0.8701896078268949 -0.24862310459318473 -0.9524564243476112
Ni 8.244578585744216 -0.040978287335185895 3.155109824821058 -0.13409511404591745 0.5106370286709786 -0.6491680670010626
Ni 4.564086453204581 0.5916760865788618 1.8537249488082748 1.7572906466971476 1.8590898768238369 -0.133686308643273
Ni 6.712834245555348 6.253837968993348 0.8162501443716315 -1.1475746150441204 -2.290804837076616 -1.7998146361022873
Ni 8.247400957977316 0.2639164652996452 11.395388174813355 -0.6678147355679726 -0.5811330778090121 0.03393444796391575
Ni 0.14310705966509718 5.245812655022579 6.083518308700192 0.3219062295580521 0.792608369707306 0.5138133695164313
Ni 7.616395251338589 6.40246463882175 2.9107892086763942 0.9298880521287921 -0.30704885283024536 0.6923111780474398
P 8.84640151152615 1.7963074849516314 4.096938179173194 0.3127088793295002 0.7154824739575807 -0.21002467549469633
P 1.8572396699581009 3.5532113653285498 1.5405576313465275 -0.10884251012671577 -0.0482655198746072 0.17474734034964098
P 5.090180291010403 1.4508272022826605 8.398720298790563 -1.0372262097958396 -0.7157519255688835 0.36194936152286694
P 8.660682111475701 2.1952118944535868 12.745727051539777 1.0165720238805975 0.2013978530576338 -0.6097378860298983
P 6.607776234470892 8.15924064472856 1.5469075121764626 0.5832184995831311 2.1231447425910597 0.7316027765582109
P 2.2144570022048433 3.6899822449997948 6.146403319543026 -1.5138094913162186 1.5697304708535544 -0.1090263440027477
P 6.83717389995395 4.105382461145684 5.91852644686518 0.21304932125363307 1.8753505616570734 0.7196409762106445
P 2.62235829406797 9.045447258139998 10.872577057333022 1.2265375640025844 -0.07650111768153277 -1.253257753606248
