# total energy = -340889.81467144086 ev
CRYSTAL
PRIMVEC
9.09984627690566 0.00000000000000 0.00000000000000
0.00000000000000 9.09984627690566 0.00000000000000
0.00000000000000 0.00000000000000 13.31854485281451
PRIMCOORD
 96 1
Ni 6.752731899949416 2.1491015550791683 11.379551382652352 -0.2158695643112476 0.16544431778116025 0.1563868355645823
Ni 4.759629006670577 0.9729464458396725 5.975099091027739 -0.4270790041426645 -1.5205010444037814 0.7838056838140114
Ni 2.636653109762601 1.771530740436498 4.769556938772554 0.43345996796834385 0.023317334569701777 -0.4972577791505952
Ni 3.6995515343630663 4.12202098969423 4.418373857868937 -1.1559348140833574 1.9832975565527133 0.5370075482447074
Ni 3.899957445162149 2.8463044642056867 2.479686224336561 -0.4663824297279774 -0.9835292344930159 -0.7125807269297534
Ni 5.293708074495532 4.850208874812705 2.341426802535855 -1.323623190703688 -0.07880945409973525 0.21765288146391548
Ni 5.471209672645053 2.973183618465851 0.21085253412911692 1.2055033690401045 0.5949234467248852 1.130014237562854
Ni 5.971637509568903 8.126262671234596 12.265207554717326 -0.3142325150628782 0.45727738210291574 -0.341446870694141
Ni 2.184772951815871 6.92294452136779 0.23341105262663886 -0.02674050131863782 -1.2889701194061929 -0.14572575630631032
Ni 0.6783298283020484 0.1783169443606458 13.286832717318049 -0.19547891647003754 -0.40955487921597206 0.3583539308621248
Ni 8.339317368121439 0.1289102399110913 6.913483411371068 0.039561307232389924 -2.120700137705309 -0.4529512439237361
Ni 8.729027377469915 2.769984054912134 1.2668423555656776 -0.40783686808360087 -0.8699643791899663 0.8098805265241923
Ni 7.231565802063012 0.7996862859602987 4.873481731229572 -0.3780825196393037 -0.16966169829661748 -0.4044283566226841
Ni 1.0320681459923147 7.783253072103659 2.1814041887873183 0.3608694981951269 -1.5620984082295934 0.6575483206449578
Ni 7.3389075867329465 4.1375817265360055 3.3868125733047423 1.9710151396409348 -0.2216784576835408 0.9894934224962506
Ni 8.056703447598027 4.002021319090429 12.50205106929526 -1.346654875712171 0.6901990168004436 -0.21098138298101085
Ni 8.736707647583634 7.147974615730525 9.079784585575757 -1.8659626926842703 0.4716408499134394 0.5764163890596331
Ni 7.226560886704546 0.892563865244267 0.3033415499843462 -1.0588067641800927 0.47739986388440353 -1.2237044654291636
Ni 2.075465600386975 6.6066065711744235 9.152916408793661 0.9532946039781904 1.5444981786493273 0.8916698891878578
Ni 0.2938968197106157 5.162388195335491 1.150181418498279 -0.07105037897960666 0.16433385832580086 0.11546515764955598
Ni 6.689369671511237 2.183744669205859 6.938015686489047 0.27726493669959346 1.085050271257654 -0.2635612139602558
Ni 3.4935583180547143 4.361920232594661 0.3935173849593537 0.6504813864958475 0.2725104527337436 -1.9777295755466326
Ni 6.089307619569491 5.848480192366215 4.616367399465238 -0.4385587226474899 0.32138429561631104 0.5559609494187586
Ni 5.464766981601791 3.422352022272904 9.149574035318818 0.017440306963634484 -0.02109513010740238 0.1629043249681259
P 0.5473957826169156 6.083538317138095 12.416133052313393 -0.9673801355369791 -1.5624663330919737 -1.044465664967072
P 4.205093484798658 6.339981080259784 12.738868194319489 -0.021077132385273378 -0.017835228409207992 -0.7718299995093739
P 2.5065435101346996 8.913199162815356 0.9931581140263793 1.9471583876279948 0.24594684331260222 0.7345957977482639
P 6.544208926423512 7.88189540389597 5.857322512827708 0.4356983703805593 0.5803699743907424 -0.46192953616294646
P 5.107898316850957 1.1151133415584242 12.437828905400037 0.3885168275987502 -0.43392970851591073 0.014388664621504252
P 4.160950131336989 6.3706566614841265 8.064498375772684 0.0665234376435306 2.785622639327151 -0.17683147657217932
P 4.800669312609998 1.2623033523278544 3.8386972811745257 -1.030778911508599 -0.6469949706091438 -0.7979174406250452
P 0.26290729379560523 5.7641883178835425 3.297099010511935 -0.14327883742771452 1.0888184800508345 0.6650371728228354
Ni 0.904440984382212 9.09421330156191 4.1935439601205395 -0.5609555744198726 0.5975709116500612 0.9289945937802453
Ni 1.9069910495749052 6.719007870279462 4.599599113045156 0.523148530874428 0.1591101480330163 -0.30596050486207305
Ni 6.421060709066931 5.923199028745059 9.221959671156005 -0.028507106300757354 -0.24538582860280966 -0.07457279031056835
Ni 8.886736810338231 2.5643912318324595 10.15592328626089 0.42408829694545674 0.2693503098382071 -0.15068952806948885
Ni 2.7598650260419264 5.330626150148798 6.625975593611686 -0.3925485744659627 0.8655127711765158 0.3876475376199195
Ni 0.9062427539112597 9.021733027325215 9.133018685297621 -0.026500103173057586 1.8485077304326165 -0.42474187136905556
Ni 1.6751724700168693 1.3001223127456443 11.349623808777947 0.8452488787211572 0.4849956739537906 -0.9100939002210005
Ni 4.22366627070162 7.103749363653899 1.6241168734528528 0.5068809040626561 0.5626357903357729 -0.5130638929449164
Ni 5.820125071898979 8.008665360002858 8.094358610785902 -0.3361429419827243 0.5367789771736691 -1.1835528329109424
Ni 5.532069443403998 3.0166353836234423 4.979377550353215 0.5811371915740701 0.2169892797379876 -0.06547185645056466
Ni 1.112574484494766 7.511513467677278 7.183436716006783 0.23040581025420964 1.2704003268238055 -2.0981273946111156
Ni 5.467669832509701 5.043944598415869 7.191641137256224 0.5040226086782545 -1.4542334315247987 -1.4967677053425836
Ni 1.3258657773803717 7.818979067917 11.267648755113939 -0.8694992666280895 -0.40586380351762996 0.018864955225302998
Ni 5.051606668837375 0.3638309570067656 10.290146926313453 -0.8721572730762269 -0.28898865289442494 0.025903607239639262
Ni 8.21003585448921 7.605260082264398 4.286254102236152 0.20731524698333328 -1.0692580414204036 0.619472853929475
Ni 7.730865258069681 6.270722151544721 6.79393600311875 -0.8369493577165263 0.5308479564012148 0.7509302732422293
Ni 2.628335850421442 5.164189964864539 2.2450940116853237 -0.46216170677841045 2.179604625351001 2.114303747260662
Ni 2.3677344576291737 5.327159108782297 11.451391027723162 1.6147116635499352 -0.07980292836125612 -0.02640805767988355
Ni 1.270347616285825 3.732802372035493 3.671416630171603 -1.2406840307062956 -0.5514550911286051 0.8104381987998751
Ni 1.617106352012558 1.27055691274627 2.2948920095174494 -0.060768794547940506 0.8158544847194401 0.1253657045927196
Ni 1.1752087252444408 3.4071734789675925 8.179943573400282 0.19536141705556678 0.5815624520369468 -0.21118578568233307
Ni 3.8841055132449713 3.078041145148766 6.976507125534092 -0.1565531859391175 -0.05025478239049409 0.0028760359962144016
Ni 4.3525928903357025 7.482039066138967 5.646277061961138 -0.23523742731489808 -0.545208853108577 1.130626417225556
Ni 8.364451143067043 7.322054671744076 0.26918072770128965 1.0011243218669597 1.3025046635575181 -0.020785312176467428
P 0.6613968346674421 5.620310651096807 7.9471622301241975 -0.9471558380703045 -1.5986283848348275 -0.7731875419785329
P 8.572382626596038 1.8468410668122508 7.94010347949954 2.242160079485719 1.6008513606280752 0.9659554872753108
P 2.115177328794876 3.3516189184886205 10.215923121562792 -1.4046059983056585 1.2958804733727811 2.612593052999565
P 4.040085975353089 6.33285590075855 3.65380933794052 -0.025223293343163013 -0.14925690938802036 0.9953036014201245
P 7.094449320933258 4.172006444356144 10.391541051568309 1.506048102203245 0.00501622226766878 0.32834530031517645
P 6.8003968938542245 7.920906444153686 10.018208945241954 -0.4115911929197105 0.006485607724343668 0.5791039631941253
P 2.393214026726818 8.792617102060753 5.789371231998122 0.2667681509333277 -0.26462230823491845 -0.062241522438725064
P 6.99506080176023 4.295673352940785 1.1956442496453623 1.13594911499005 -0.8389612459402325 -0.12981062773795063
Ni 3.3055736971907344 1.999700281705907 -0.08481784558761699 -1.9243640154412989 -1.424550045527753 1.7017291073817595
Ni 1.7660799326188232 1.3731667774409282 7.077913990573498 -0.6436934170397365 -0.3581186749228671 -0.24316362414051026
Ni 6.980018756146514 1.2053383157024056 9.16872557143414 0.7338478638386459 -1.0075441093503745 0.44824175426320867
Ni 3.14077548420561 1.9488412418177867 9.174106310436796 0.8668623432258749 -1.507068058827327 -0.3725248230458681
Ni 6.437977322978547 2.0694506021107095 2.8454936679176153 1.0772472302734672 -0.5817213462123143 -1.7923574084932936
Ni 4.433627019912319 6.897555950731208 10.276721923352824 -0.6479645336112648 0.941872735294494 0.240719790585708
Ni 7.474695490331181 6.274052695219627 11.45365506943441 1.13636486237123 0.6586317835171237 -0.6221629991671285
Ni 7.9772617910900125 4.2222102953246115 8.35929153032477 -0.395032517230081 -0.3308271861967657 -0.971946414751423
Ni 3.417083211377355 8.509111396618922 12.261624945305275 0.9845255369680141 0.7533859338715735 -0.2721800659775183
Ni 0.2971418248321229 5.172288827899148 10.252175998465686 -0.21784134332563773 -1.2062536169425677 0.32917242420216214
Ni 8.880275919602756 2.5084271782787044 5.676283804496668 0.4000806211769497 0.8330559361993911 0.0014192489450298136
Ni 4.313545450693562 2.9206138075097465 11.409877529786213 -1.2352494899542854 0.06965915505903487 -1.7702088974207126
Ni 1.1851821565769474 3.464993901127033 12.68487516743236 1.6030136583867167 0.03105224132011426 -0.2263524661204424
Ni 3.3784179652716793 8.795883946812914 7.956871765919622 0.6270848619487781 -0.6676892657337017 -0.8804205415262838
Ni 5.907929486978684 8.236743902811204 3.6051033216411508 -0.7033867191353113 0.1297041840670734 -0.7852992376404023
Ni 3.3245013770918415 8.558960353589242 3.714102188287043 0.2868520661673963 0.6514959438032909 -0.9686947405833445
Ni 3.382758591864385 4.744113769059334 9.066839144504932 0.7762612958078503 -2.339018163557049 0.6680728743253657
Ni 5.413962540790309 4.974585571393637 11.422529955812415 -0.9069029040875284 -0.03511432720462984 0.6212651699432075
Ni 8.297421676648025 0.00452353349944258 2.120445229705814 -0.7542451965480752 0.6004690591334626 1.6516003090461686
Ni 4.766089897406052 0.5684673862606678 1.4744962937884294 -0.18147283199893263 -0.48333139887749016 0.012826462340706942
Ni 6.3968642182702755 6.1442615902054465 0.2497270766952378 -2.5338471051479137 -1.7254200232407961 -1.1650231495378711
Ni 8.217980020140011 9.119137780047069 11.067457600682964 0.711130367636472 -0.11390938312666189 0.4003495585676202
Ni 0.24235529136452283 5.252303774711859 5.540048188470004 0.24373363771136733 -1.319707914809682 -0.2048279617851053
Ni 7.312963925483881 6.318105050220233 2.3356993593965485 1.1131603992303087 0.6607992234820877 1.206229962793484
P 8.715923599076842 1.8220439861725788 3.512752623446737 -0.3822178819639159 -0.16185145822357933 -0.3313933431128809
P 1.777500239482232 3.331599257054757 1.5954687379409938 0.9732152541615174 -0.6378343871557982 -1.855728930771404
P 5.111156061757013 1.488825821452023 8.245364187027706 -1.424881717835559 -0.7482465557624791 -0.958626300603749
P 8.843139447642939 1.8229630706293154 12.287875271368124 -0.9976862427196883 0.43827641552038066 0.40848170075645135
P 6.441726459574343 8.06973442722225 1.1809206986453662 -0.09404786831604448 0.8527832394249895 1.433885463996066
P 1.8783174344939486 3.4959970768112036 5.968945775090658 0.3847879566839373 -0.8342805526351116 -0.9029104950986836
P 7.095796098156991 4.226095929612002 5.854379622596931 1.3139003069889694 0.3094217239377961 0.11147017755754995
P 2.8457857729776275 8.857717401105234 10.020433857614945 0.001657075987448759 -0.08090670294839615 1.2650537177999115
