# total energy = -340893.85315931577 ev
CRYSTAL
PRIMVEC
9.07675292542758 0.00000000000000 0.00000000000000

0.00000000000000 9.07675292542758 0.00000000000000

0.00000000000000 0.00000000000000 13.28474539861361

PRIMCOORD
 96 1
Ni 6.369348060641465 1.7707564760159114 11.508614580074768 -0.23135891819609833 0.6132276443507116 0.46498272116697337
Ni 4.610355056271109 0.47059151098856267 6.134841982641907 -0.061898280166693395 -0.6729535994564346 -0.8091588178668194
Ni 2.7439296056069242 1.6010847356838265 4.767217683033588 0.8511359336295535 -1.2880056986103947 0.4157980319122065
Ni 3.6085084645440526 4.322694606123758 4.911569821394006 -0.33201555007791206 0.759797236714556 -0.037022857081252365
Ni 5.440287949721287 4.441718065759698 2.8796016452523387 -0.581820847904656 -0.07740203222924734 -0.993678921332508
Ni 7.209546761523065 6.147984213039747 2.7791156378862443 0.10501670862272236 0.23681788442814056 -0.6615217034704091
Ni 5.015813604424654 4.433240378632422 11.813685149792597 0.6612440243289902 0.16806221501998153 -0.4100991817552163
Ni 5.883015644924719 7.793599498023804 12.405906056149693 -1.171845057555711 0.4773384145188489 -0.29064392910966075
Ni 1.7960624628583577 6.811077313035475 0.016983512188271755 -0.09459808439255966 -0.9202633845548345 2.1689741422203483
Ni 2.969323531457581 1.7981047322412669 0.5496055519003923 -0.24461269788221102 -1.470381502039571 -0.8642591012750728
Ni 0.6415394427661454 9.198744370734929 4.752856444732972 -0.9499370003598672 -0.6278687913026542 -0.49843997238415455
Ni 8.717431399323734 2.3943657012753965 1.2052348380580475 0.01339724724251241 -0.08333279589138552 0.5191211548825898
Ni 6.908062416841623 0.7048597780644205 4.690484630103648 -0.727147826110651 -0.191750816886173 0.3760670318711717
Ni 0.48428923865855406 7.469005740680645 2.6375536933405197 0.9894031767752897 0.01257320867932028 -0.7886524703833515
Ni 7.733121094031257 3.894571406196328 3.934622577983378 0.2643795960964931 -0.38573823641234856 -0.2740124912005668
Ni 7.696768699015476 3.833947774158774 12.5136452966886 0.37573844488715935 -0.3371955516169547 1.190592770476859
Ni 7.912060198985343 8.975301946739052 6.725255707513948 0.46833543968929026 -0.5728834362057101 0.45320269781290984
Ni 6.883655028527657 0.6243208426800186 0.36888649571969145 1.1074579495288928 0.512481280968569 -0.5316552827938587
Ni 2.0005617037336516 6.351884388229388 9.250858547010361 -0.23590797101936148 0.6575033263396355 -0.39664948400821365
Ni -0.08130319797125038 4.922967499901203 1.5644119312937488 0.5511511867349411 -0.3140558802756978 -1.053501035696463
Ni 6.3644829211337335 2.0399094271776996 6.845084275124394 0.7097638263062486 -0.40007959273568516 1.4173805243625075
Ni 3.3576633238059426 4.293494692324565 0.3821512622805061 0.8630905348882685 0.5122725073918726 0.2829470746860353
Ni 5.734474585141133 5.59802376010437 4.857341669388443 1.1754376600029757 0.5203069476605748 1.2902785538049715
Ni 5.361828498406328 2.8807253472505794 9.345286729549109 -0.8268683193314403 -0.9514498374599679 -0.5754000319799768
P 0.291193122342143 5.521089203261982 12.452349984942888 -0.6346888995482811 -0.26627141380256725 0.16052991119867838
P 4.036994734584 6.159756761438116 12.639970096287259 -0.17626146300132225 0.9242763623689696 0.6247901523773305
P 2.244998656985834 8.59231743855032 1.3491458462317583 0.367138104812658 0.2520061621328047 0.3670499159742259
P 6.403158964869625 7.515151951981577 5.878978305273529 -0.6088341432687063 0.9399351519521489 -0.6761170847860807
P 4.705161739402154 0.9850545990231372 12.634642950061352 0.14614227501843863 0.3587892186273305 0.09964978788385419
P 4.038229172966558 6.213672673146916 8.198932786988532 -0.44397937944242893 -0.6025567949004267 0.060198523866767294
P 4.694224252262575 0.7645357971083045 3.7615888084093845 0.11485966285507317 1.6769076774627054 0.7039055677532587
P 0.10812591020873734 5.545995812980659 3.6630425031194123 1.0862473768895486 -0.06508259143194597 -0.4848578628243457
Ni 1.5696700941982786 1.3392022635251943 2.5677416644304376 -0.602131277327234 -0.8967323913124299 -0.06639899625052435
Ni 1.7547632375595301 6.540644539727063 4.772425016122366 0.7120888748949995 -0.9671173687938958 -0.35178707627788447
Ni 5.8747830301233925 5.503217076973325 9.271038891539348 0.7096008183658231 0.9209239009569687 0.9066154547540966
Ni 8.388163114281916 2.4461031923090926 10.432988510783098 1.8017673889532841 -0.14703701891856613 -1.1227351874029374
Ni 2.3727539528278117 5.168738735816885 6.941544742617956 -0.5995951411689416 -0.7193350149344515 0.6655426517043441
Ni 0.5738540970401326 9.274626024251017 9.168519691543155 0.15644777070950477 -0.3061633649014985 0.6565638452445015
Ni 1.774369023635457 0.9634246970699271 11.615623142012234 -1.5568379311616027 0.5805018719829164 -0.294603427978041
Ni 4.121072695890162 7.17395681374357 1.4278176935625404 -0.06343322875398107 -0.29179244089180717 0.042318301152236795
Ni 5.78051187540831 7.930268165128078 7.966635990623642 -0.7246021768706618 -0.017617713081763204 0.23831786601243474
Ni 5.414909348856337 2.8386727514682786 4.879805724925161 -0.151853466470603 -0.4673774466513951 -0.5890060527991856
Ni 0.7742733375260149 7.192337238189751 6.8509560265190785 -0.4574411613742896 0.9065038688768968 1.1348198864816132
Ni 5.1771165786632185 4.415604247916901 7.3021595934992245 -0.48650054063409115 -0.20278290633061852 -1.1209289874321342
Ni 8.217674466196668 7.388367868690582 9.05954510494641 -0.5014229662718783 -0.677153239360079 0.1378448108963368
Ni 4.692372594688737 0.28374020060744687 10.540382834715112 -0.7695630578520682 -0.7744039308841373 -0.4027882499160999
Ni 8.297985575085464 7.148941282991137 4.803498371702147 -0.9234659506525322 1.3120467987199984 0.3681560045542111
Ni 7.294605012133024 5.979383529539588 7.143074977648141 -0.9466938108322213 0.19037964757025921 0.36381521108701215
Ni 2.1916364271986235 5.598777130587843 2.3841334778293812 0.4300031197679949 -0.3484742098545676 0.25774357883721416
Ni 2.3353486544857307 5.062758569973124 11.622265509720735 0.3157114136012498 0.8286601211245406 -1.6414192547481086
Ni 1.6345507233050962 3.4728110099907616 3.7687358435742846 -1.736782756551783 1.0155775211778124 -0.10269474535776507
Ni 3.927265869828499 2.6969937168112676 2.781706143139054 -0.34417069738320727 -0.6638133277180632 -0.017512812072782744
Ni 0.8856804938766262 3.2641273860687074 8.191108626063787 0.29334358742901095 0.12016950510376079 0.025170328618040524
Ni 3.438337502807257 2.6538156036801634 7.3109540592996725 0.42429449941899183 0.24138287809100364 -0.31679744757657696
Ni 3.9121621531477846 6.845323901398657 6.120959996889813 0.7409289390551433 0.5384663921784211 -0.7278595074656948
Ni 0.6591728504558227 7.459738376058644 11.301346021916249 0.4582045219028754 -0.17298639179447628 -0.7248266341766421
P 0.1472494378583059 5.468916028093266 8.133784393673732 0.7292059941912603 0.6039477617106824 -0.4982993330412322
P 8.392601646407439 1.5487754092229158 8.017051906447776 0.27056232786843726 1.1631886674322933 -0.1965127570511906
P 1.5728469576828037 3.2902502806643175 10.380394174283863 1.5468970178988066 -0.825420016920688 -0.05218156709956174
P 4.065005593764699 6.168261678823832 3.5562336297438315 -1.0604908367507349 -0.4041385932964072 -0.01148691759367699
P 6.711559795194519 3.826041922458713 10.610712238535532 0.630969541715165 1.5072320952090172 -0.5484183611848105
P 6.2450419308684 7.595844284488517 10.210881277126003 0.8071052777719003 0.18312142334594914 -0.21501415828948778
P 2.3136279850043917 8.43923800236027 5.76409112189444 1.154226058922367 0.5212585129405668 0.5783316038044749
P 7.0187080336312295 4.0114709056740425 1.4338628109359512 -0.038066724964734434 -0.5551942464560632 0.3398214192755761
Ni 5.352615594301204 2.7487947451146546 0.5679442232836344 0.02139003564000187 0.9151587163384175 -0.4860572824490855
Ni 1.4291256536428836 1.0384259055631608 7.042615292865203 -0.168373061392181 0.2707587601499595 -0.4949790104187476
Ni 6.703572252719141 0.8748827887303657 9.231091194734365 0.4704663699893639 -0.7848588076688741 -0.6818599008071289
Ni 2.764488450728209 1.5050889979342876 9.397496211729077 -0.15528871740439706 0.23261284520785744 -0.47185168037266484
Ni 6.546244896212641 2.1128229825239595 2.609867781910523 0.25173002565328256 -0.038432850054901546 0.33389399804754755
Ni 4.092126931169731 6.782285853112863 10.469787482037276 -0.06274751554086613 0.629952156194244 0.2833396821387636
Ni 8.2085704831253 7.1309602356687245 0.14097921701513444 0.23659239868089577 0.3119984835260369 0.5907801139804728
Ni 7.508607613203456 3.797232309030476 8.364899396822379 0.42627887683887233 -0.26691187560004354 0.016077622288152953
Ni 3.219260996914399 8.40679768780686 12.569614369883684 1.2412561011596819 0.365378441809074 -0.4940379866617169
Ni 0.09173510997914987 5.01201952174885 10.227579779275947 0.0989843863857134 -0.9994698169826722 0.12674175900463977
Ni 8.800574455090166 2.3162965503313924 5.689643595322796 -0.14791325087593235 0.7969887581631887 0.7765420602730626
Ni 3.5557725307009345 2.662919586751532 11.484981438775744 -0.038289382498501806 -0.25344623701344093 -0.08566375801740729
Ni 1.1531197541073335 3.3834957623115387 12.668731602925588 -0.8239994824240776 -0.9779936493867672 0.3509987760486342
Ni 3.090008036858287 8.485765437279344 7.8731245601190025 0.005939248302570417 -0.6366249402287295 1.0111063727803362
Ni 5.591924182214082 7.844365776506518 3.694792984459039 -0.21707541169389066 0.11065256675226104 -0.1652607410154444
Ni 2.8637518194904024 8.233586013877733 3.4790757847822453 0.9370632297209925 0.3219522523046391 -0.12413646017130878
Ni 3.6020185862828087 4.293857762437082 9.397642347449363 -1.5688740363905302 0.64188875973083 0.1241346603990959
Ni 7.356998610969099 6.011215701654531 11.442416914134794 -0.6757594443363459 0.13015721244409198 -0.5966080335161595
Ni 0.4270221898112215 0.0464094371325068 0.311285422368843 0.15740884907119343 -0.3213272171261305 0.4768604464411658
Ni 4.888884293088653 0.5489756252551751 1.553133158248403 -0.7529293059501291 -1.2049765500023568 0.8414660146399573
Ni 6.100521872580941 5.7692294716618395 0.4947120739136407 -0.5551891042497407 -0.6484885244355347 -0.15583687659838322
Ni 7.929306029329909 8.907099226102702 11.080434196604616 -0.14013334982019737 0.02520349584882111 0.571113745899797
Ni 9.007851182326215 5.108269408577151 5.850030725202536 0.9925741183041036 -2.1627078495956624 -0.20821744708262852
Ni 7.81797057932652 8.950268262480993 2.5732421766350724 0.16631772152504906 0.18969804812220234 0.0513511007784664
P 8.650844340688085 1.6304480310336524 3.629804341993747 -0.4807165869624624 1.03267227187657 -1.2416533365981004
P 1.9954605686527858 3.3204667907785588 1.6545622402317612 -1.2804057747759496 0.7846279226049906 -0.07980215703030771
P 4.685546876573413 1.0100065925058794 8.270843361148962 0.30705579480878087 0.22770820881738849 -0.13323328026625442
P 8.56904464433797 1.5372570099033087 12.395278086281035 -0.062131222113105906 0.5518561832217657 0.3103046407633817
P 6.462076167378348 7.790095871438013 1.3615138296146554 -0.7849837632825126 -0.48306863213440676 0.5448622684024358
P 1.8482174845214487 3.2186165474646806 5.920692338175908 -0.23651038049005071 0.2840549630382334 1.2543131914539558
P 6.991550389214945 4.016880650350549 6.064167662214597 -0.20680025502012772 -0.29513513211179493 -0.36041852670063734
P 2.3964533544223703 8.449177046690426 10.212315404070445 0.2985919803121438 -0.34072233382329065 0.15214245846593152
