# total energy = -340871.1234292833 ev
CRYSTAL
PRIMVEC
9.26912113234071 0.00000000000000 0.00000000000000
0.00000000000000 9.26912113234071 0.00000000000000
0.00000000000000 0.00000000000000 13.56629571429950
PRIMCOORD
 96 1
Ni 7.7670505883984875 5.575950906389496 9.781963747266788 0.43813397640524543 0.567774654224235 -0.22825302557726493
Ni 5.2305278469583625 4.428146396315525 2.3672917666222237 -3.388237541159023 1.3782167096788522 1.9357462891363113
Ni 1.9007444698402536 7.729306728096776 8.907548250467585 0.8417542353043375 0.6082373902249719 -0.9697650908293879
Ni 0.21774369978035105 7.9532950346269455 4.663414296067981 1.1725176581427033 1.641882310427456 -1.688243414190499
Ni 0.870489097186284 0.8452659653952681 9.58068015237931 1.3154270280461409 -0.24341919179474208 2.4657892331377274
Ni 6.34732714762437 3.822909878078654 9.718893867932078 -0.9534768951923256 -1.8691786285184067 0.470668458697841
Ni 3.350407171118921 7.70676422606982 7.024125913763835 -1.9415785795473726 1.2547837033324714 1.1710726981660606
Ni 0.13864843732294377 7.454551446401461 10.2802540754803 -1.454829670347901 -0.27365639341272874 0.9298872807978438
Ni 5.122236707492524 3.9355204278835387 6.604384896786763 -0.45979114966370493 -0.46477934690691564 -0.7288028452155706
Ni 2.0996598043379753 6.854375868175575 5.181633234214863 0.25234477641914604 -1.1327910289770424 -0.7550628073533642
Ni 8.678928164224065 0.9452278728210477 6.271304598745061 1.3739630766088207 0.4097675094474104 -0.3752244813652183
Ni 2.1559789829217664 5.810719200525482 2.6130856800678597 1.2286288993139742 -1.4526529744115564 2.279340545190758
Ni 4.268346752012602 2.436305006277526 8.432415893908738 0.024624997637531783 0.4583011953817397 0.23567168663883925
Ni 4.143278503719137 2.4608774457814153 4.2604003346656825 -0.45563856094791205 0.1539784832334058 0.63419087686594
Ni 5.849130437531939 7.7987880583574904 0.23650161974414602 0.6418224252692688 -0.9893959776864382 0.5280477679482584
Ni 6.519723527229362 0.7518156154012056 1.150185747232985 0.6985533023024099 -0.7240239357696886 0.15396177106285744
Ni 2.19845936400299 7.176320244368929 0.9086055761481447 0.4075982697102335 1.183892475638548 -3.0762665684368113
Ni 4.756356698236766 2.495961068385044 11.207442385207246 -0.35880695923914335 0.5166701222389359 0.2582757971916004
Ni 2.87189807381648 4.723404973439962 0.629098016167788 -0.17953447732563918 -0.7382300520667415 -0.17995742379567073
Ni 0.5724497837920739 3.13290724921822 2.5455795994707735 1.4002986291795563 0.5430640388514325 0.9600249807234887
Ni 7.30339989189753 5.54069117048878 0.4895041285131217 0.640501392465 0.3533166255485335 0.8816307597843009
Ni 6.4731925403151696 1.4715841722053735 5.587075705292765 -0.49884080736699893 0.04425177072952379 -0.8578226016211099
Ni 6.2789859192342625 6.94512983090005 2.540994165361919 0.49132007350992163 -0.2945322084204734 0.6076385802987083
Ni 4.337948580845007 6.043253636524754 3.897094360283643 -0.09346782744285838 0.6412040749589796 0.4840731621395211
P 7.956706071117867 6.519148841733609 4.325627138433645 -0.9609433787727 0.353507658513417 -1.5361549488909545
P 4.6604954498968105 7.719268270162898 11.804969775592218 0.7241668891054561 0.22868265691551587 0.24996419200211142
P 4.767563065403948 8.365372342444525 8.692278479055242 -0.28686492168320277 1.2063456624357418 -0.6962812184387814
P 5.248843629855264 8.828633735867713 4.664811152587498 0.04643052354839746 0.27739606296081903 -0.10498868359826435
P 8.169256282458374 7.807009768595117 0.4092613488883883 -1.7917933084597075 -0.5604624368335379 1.93731569050596
P 8.480207481265227 1.3386927858729487 3.945512540212921 -0.10288269299885507 -0.4259487471929633 -0.2330882421823792
P 2.977167479869165 3.283298735808413 2.320148090816592 -0.19110392733079345 -0.5830930297488603 0.6782480150861545
P 6.003099804789239 4.091881228332843 4.515283548065114 -0.06002703128590953 -0.5641843657698155 -0.527339171917008
Ni 3.9436401777912744 9.153405193935335 -0.011491856090879571 -0.45896119756324183 0.2639473936550809 -1.1653679344717993
Ni 0.2443599804425229 5.889163770695763 7.9753536885429615 0.2507686901812778 -0.12520269665229403 0.021453284777769505
Ni 7.096874609141531 5.395916771163527 5.995936628158305 0.4868756645853227 0.24757949382001876 0.5083253498186665
Ni 2.3783822697781662 4.2093858739725265 4.838025995567892 1.327601715735462 0.2456408820364092 0.5554091906803467
Ni 8.28771564755068 1.5704671539584816 8.553128582291649 -0.18438203522592764 -0.10633851275793943 0.2847090516824645
Ni 1.0928386231414682 2.1689742904225033 4.84392671793235 0.9598501457085212 -0.7864068688822844 0.4948106031616833
Ni 2.3832114817666707 2.980699014931776 9.917640504429434 -0.20713141310730135 -1.3653012871687649 -0.2872169057059828
Ni 6.495262317176263 7.766457364660936 10.094286775966728 0.012259019873011144 0.05146808597230491 -0.7034417407429627
Ni 1.5677234941723062 0.663387275110352 0.3791941745154288 0.8346227664658789 -0.21141924184937783 -0.1588234700305329
Ni 1.7666017521864312 5.440538319172476 9.883426325366154 1.1490866808132725 0.6122786501738811 0.26149250435668514
Ni 7.721381629727925 2.149240332028018 13.090457807503519 -0.9724848037533961 -0.4602899436769944 0.5960184795612767
Ni 6.287244705955486 3.482353107119623 0.852597840026568 0.7893392120377309 -2.3164549335445526 -2.455343355214055
Ni 0.5450057706335998 5.219228788582187 0.31445956106721634 0.26977788429392896 1.3663978626670532 -0.14447774283182213
Ni 5.541052666203851 5.6848630769555815 11.158807307848926 -0.6495478189379845 1.3478311554084594 -0.8359312008646572
Ni 2.9361516198900217 4.315359733213555 11.724019762042872 0.7049705186826632 0.4132870925648947 0.6706005258432258
Ni 5.757245642057759 5.612165361742831 8.284502043334912 -0.4297429241280728 0.44800984075806066 -0.1926033946944554
Ni 2.1899410418965872 1.126958257171576 2.776532723444634 -0.1139248097456296 0.03801581712214098 -0.69356304817667
Ni 4.95207418602425 5.571872493193829 13.534808340468075 0.8395184039952831 -1.369207049981074 -2.163332113443223
Ni 2.944187947709664 -0.01990172948276135 4.789377014528224 -0.9511665018915941 -0.7980195134205482 -0.6455399833301722
Ni 8.264700420357864 3.256733435311187 4.856489157487092 -1.3742836931730331 0.8662938723169146 0.7756817691552964
Ni 7.487660746253551 4.593572397004287 2.6811747883695074 1.6489970670953664 0.23003839961246186 1.0091677609967267
Ni 3.264306307085867 2.3502875643325654 13.280521131542466 0.0073451275111615436 0.20148861299922718 0.15748495372476748
Ni 8.966530447485729 1.245306392813091 1.5472628366993206 -0.6698466783963367 -0.16323933971004145 -0.09157086753046165
Ni 0.3842940448341915 4.999142781950598 4.0239534027348425 -0.9684903378820223 0.8609611472500914 0.557227217725692
P 7.584319138990842 6.813823464241395 7.952467302130644 -1.187723162238548 0.45669939811225857 -0.7065162659032284
P 4.01516998377072 4.491000305133281 9.583922490869865 0.37031470276842676 -0.5103236111956179 0.1924774106395524
P 6.316627819206082 2.04535202498932 7.728447480589416 0.013826364360131026 1.3804440563474742 -0.4039948686296913
P 5.333109207950267 1.5923886248851877 13.17135313323956 -0.03631168994684069 0.3011270880291717 -0.45611935723907254
P 6.49138782464038 4.253006356924358 12.112490472754262 1.8589983455512953 -2.3056861250638225 1.6239491229878034
P 8.697883516463014 3.530978915357044 0.849898672020709 -2.0971740295589107 0.24334154447927128 0.4899717870121433
P 1.6581344994235074 8.087307984588179 2.6577591351538437 -0.34914089690428907 1.7908489422685674 2.486046697835183
P 1.2314675953105234 8.828466891691527 6.423057719195352 0.6136991846704914 -0.28985177222566855 0.31195528899292724
Ni 5.436172563228933 7.37720990161819 6.461354946014748 1.1762868953771484 -0.9608351353296097 -1.0742403251263435
Ni 6.587981333531376 9.187524827965444 12.112707370183303 0.27717906185400654 0.9100483916950457 -0.7614152319339532
Ni 7.567412262470625 8.239896252831493 5.862389914978304 -0.2327365152699153 -1.9405007731021613 -1.6600669517562832
Ni 3.535502246355874 0.567205315187283 9.97684330652498 -0.06575339224672547 -0.33377778418465737 0.060362046027825064
Ni 2.245972877732502 1.0318570767453585 7.839216256071622 0.37072042284727763 -0.1861121305431569 -1.439517722581179
Ni 6.14716975092615 1.167881425941727 9.726627095498317 -0.1927278360874616 -0.826843379630776 0.6616566863863765
Ni 0.7751191122539886 2.9226835872234234 12.925097617573142 1.393331968053736 -0.5387348153484592 -1.0747157221008652
Ni 4.3812446445653634 0.5393905371928392 6.475613634694051 0.6661813137296075 1.1088481450082 1.0241261820787717
Ni 1.3148526069200999 3.569056464011128 7.692767853511966 0.17715826378397875 -1.1295920624237707 -0.449262225107923
Ni 9.023693116071351 8.46660968090604 8.133332877501273 -0.2883628463849679 -0.08273835684049621 -0.8518828390979071
Ni 7.833593607334142 6.533701361545417 12.125635940013566 -0.1315738902859605 0.8456494565936856 -1.2382713074997447
Ni 6.348087215538108 2.2792582908816783 3.2338655871406683 1.2408362400134436 -0.3592175644140007 0.0013819679491911684
Ni 7.967680710262568 8.794263835573325 2.811980622499603 -0.30490892366910716 -0.6226767055787534 0.06343322875398107
Ni 8.498606686250222 2.2111209831513543 11.05549924777852 0.4645559180421999 -0.24680327777562652 -1.8111539723745065
Ni 2.7348448522002955 5.557032630634143 7.914576989718725 1.584403242374381 -0.17179545681016864 -1.5723501678645888
Ni 9.282097668500406 6.593950647390487 2.3948581321765676 -1.6776874930515235 1.2495227120438481 -1.1531469669255754
Ni 0.20140872801961782 4.950859931186449 11.251641261303188 -1.007057142411627 -0.14314951093870185 3.327366416705263
Ni 0.3204937587726226 8.42821698214138 12.615800029934713 -0.2571619953021313 -0.40287103943789326 -0.8008089032402272
Ni 3.9876777711835705 6.710166885225177 9.816449511572415 -0.8884040739523925 0.795473607070243 -0.0782623233470136
Ni 2.2787114127486228 7.992939064713001 11.311074864509125 1.3861362216362452 0.16474832015540014 0.3640304124216118
Ni 6.559636361821495 9.155268287236083 7.536334753919648 -0.33570996821036375 0.5094070129186195 2.30254166589757
Ni 4.454461430548472 1.5384516103725017 1.9229820177896237 -0.4314537361715925 1.8297638741662101 -0.5672642902467198
Ni 4.081824232157166 8.616102062769006 2.264024490683775 -0.18163121195366783 -1.3307937403101986 1.5319167424398907
Ni 7.95922727200246 3.6921781969157523 7.760395359592832 0.043919841311401774 1.403507623035157 -0.2894493945809273
P 3.8519407647350787 5.841492681910965 6.005948205641577 0.5616860248279939 -0.6777551346101359 0.2771348388796324
P 2.183712192652297 6.183421282763083 12.467697089294543 -1.2767743486709495 -1.1706317539739002 -0.12971781091382822
P 3.1006970540933563 2.632810369341445 6.433516995218056 0.19799088425861386 -0.43004580008047233 -0.549521364441002
P 0.44197949183853086 4.7447610279918155 6.139250214029837 -0.47901683066253636 -0.47714326778890725 -0.44923265742156826
P 1.557963109865405 0.7825205052920329 11.727763559974075 0.6563591854328631 1.49780000326184 0.22727780614818924
P 0.2561252755999301 3.6402433125173026 9.643777839076717 -1.0245959226263386 -0.818615592404345 -1.2090396643281371
P 8.174159647414072 0.055982709495148684 10.296194182690725 -1.1359234039584374 0.2122445659641506 0.40819939362934216
P 4.275372745654227 6.5598032059976825 1.5609375707619715 -0.2930741358177082 0.2607355715860026 2.1126559272445937
