# total energy = -340856.2517879894 ev
CRYSTAL
PRIMVEC
9.41303582609573 0.00000000000000 0.00000000000000
0.00000000000000 9.41303582609573 0.00000000000000
0.00000000000000 0.00000000000000 13.77692941573251
PRIMCOORD
 96 1
Ni 9.444757863918918 0.7918292891872303 9.559467002403512 1.3556874182280847 -1.651334971199924 -1.1199679090704453
Ni 3.286825060952071 3.4251496239849386 1.216767618124322 0.4857495214006795 1.8688240733924653 0.6923219766807174
Ni 8.945000960173354 3.0206338178077043 1.0965207906004455 0.8869899672136853 -1.0129922769491393 0.14098027120152495
Ni 3.895641399015345 5.3013559461156765 9.981743324778801 1.0830219279737157 -1.8379929469442216 3.3569549289956573
Ni 7.568965715369223 9.44296938709168 2.3914956764690536 -1.0653810749635004 -0.05876307697182138 1.0738469463426668
Ni 6.943027064944139 2.6087099523513366 5.667621880779875 -0.6073290194780896 -1.8837305581906527 0.31461715209580654
Ni 2.9573688033031855 4.397327975127135 6.078395473245251 -1.1965312474484813 0.5524601353543518 -0.25737102598914385
Ni 5.986549657737895 4.7547597755683775 0.7061245383224493 -1.7342255373475681 1.0045091791787926 2.193428675718287
Ni 4.4576372963487465 1.9356119919027983 2.455461962150568 -0.2889518861192185 0.7125742991718502 -1.2283843874033362
Ni 2.5685633540978365 1.643920834416408 10.307843835117634 1.6519864887409939 -0.6723149374311711 -2.649803086390959
Ni 9.440710258467801 3.380465942411817 4.590170018372147 -2.5952090531951626 -0.7074778584855493 -0.1528148019426078
Ni 1.2035413613351094 4.326146597403111 0.5047909953624355 0.6831595934551589 1.3444666098116007 -1.2580158371165238
Ni 1.393477600387658 1.4673134542447397 12.088538905548774 -0.7438453413709899 0.8698363382525341 2.0899967950841813
Ni 0.07240413109169888 5.268626820177243 2.883415286496944 -0.2186694956538879 -1.0053532723466427 -2.5870591703945185
Ni 7.609686508814625 9.059604672655503 7.774969065455511 -0.19708816993868639 0.4104851043397253 -0.028673713785608682
Ni 8.972054025444296 5.891167364630576 4.93554371978344 -0.48098578146344906 -1.2515533693206315 0.64399603588182
Ni 0.7694168506311733 0.48104849482907025 4.653694832668412 -0.39486668107617795 -0.009397896275132201 -0.9455067325026556
Ni 5.203375655090898 0.744784818202156 4.003630571147497 2.1056069908176123 -2.52602992309634 1.2404685722613797
Ni 1.2202589131518071 0.29554203048650907 7.02650939802518 -0.647773243536065 -0.9143269644657416 -0.4894781352051764
Ni 0.9099487705902884 7.040357856489552 9.947645543415733 0.27374021137578664 0.21792593261964402 -0.5542347107562713
Ni 4.39234847911867 2.1512646451238258 5.590760677173984 0.36192442182220247 1.1481189175833648 0.8941977978160341
Ni 9.291306552141998 7.404887086024145 1.6568825848959086 0.27442952413332733 -0.5413578547936031 -0.10993034387425583
Ni 2.519850893145466 5.747355001648871 1.8829620580197266 0.21713249018407121 0.8065638034461334 0.23664536340601824
Ni 6.024870127020427 7.0670155742513145 13.528420890478072 0.46668736256290594 1.1508422300517984 -0.3900708023494315
P 0.12485921513096113 8.116616145940998 7.7529811548200245 -0.34695880165130566 -1.5753910115734417 0.7288820351929383
P 5.3866851168467385 3.769478478407688 6.834844925575364 -0.11993784870892893 -0.1830070092552719 0.488579791760623
P 5.947749123622789 8.03316016936057 3.4876851282046637 2.7979665056044847 1.3911393312777913 0.33836154690059794
P 6.565131324384935 1.9504940017125951 13.623909550891433 -0.19591960355188193 0.18222590811487327 0.4302394041485171
P 6.883979090537526 3.6757434665886133 10.346791212593292 0.3893295533080327 -0.046698175387487315 -0.08968522047197457
P 4.7781982350411125 0.1760623653911576 10.07891221210617 0.7832323278090446 0.9875296139016604 -0.9385081896976352
P 4.439799593256043 6.58473867823301 11.629271234564667 -0.6621734781217952 0.28388784133274975 0.5919725916266774
P 1.259812490141539 3.4445310649706258 2.939404024225388 1.8577832421972713 0.11682835654566977 -2.2284270461703426
Ni 8.105207546390414 2.5877659474008006 7.84503876363587 -1.8394893289840901 -0.14034623716195183 0.6575100112078548
Ni 1.5419588291920445 4.967466148542431 9.122049811730273 1.1530837177878077 -0.062027092435073816 -0.5349681492171754
Ni 4.31132106580891 1.0930323194837404 -0.031371766156920146 0.5993706838629613 0.4137900003432422 0.04731061216050561
Ni 5.092857200203596 2.698237337108438 9.452378657810133 0.382373947925806 -0.5348439649344854 -0.05792952532693249
Ni 3.2080473632302557 0.11398621732495462 5.280944718998938 -0.6411611375361861 -0.5339181106861063 -0.18746890168136746
Ni 8.114592343215442 6.977855297895593 9.242280637093064 -0.3761513640548618 1.9323586036110012 -1.4235925667104903
Ni 5.086710487739461 3.5043038431440663 12.633596044721056 -0.2099089758524385 0.09211517006970588 -0.25160995513565054
Ni 7.0745271769257085 1.0457224008853605 9.901933958318748 -0.5792975672621701 0.017998236349633517 -1.6907188723141848
Ni 8.549371059916709 0.8393952423629829 11.720778180778442 -2.0169751513108167 1.0407527348918593 1.25774047196795
Ni 6.2688748444711235 4.270195511818397 3.7589659998779084 -0.820996948152328 0.09027194621338003 -0.5956233010053871
Ni 8.280515927603352 8.63606512085803 13.782853369135154 -0.02950109478291048 0.5842173731612906 -0.8079187748121311
Ni 3.4789921895206994 7.292674284668935 9.283598217016607 -1.2945280731099449 2.288929217320458 -0.13962529983552727
Ni 5.947203167538685 1.3212984408547537 11.834465063560733 -0.6909464364894294 -0.7615129338540821 -1.0683614977480633
Ni 7.350771542446332 7.4662130151265025 5.502891869348247 -1.0843858982007777 -0.6071490422567996 -0.3058571465149894
Ni 5.762519402536653 7.194242167919381 9.629549878834174 -0.08139032745303403 -0.03189067806100959 0.5511918101648894
Ni 1.7484055332707686 3.866018574934744 11.059623480321473 1.0412774970470775 -0.13054802012460745 1.9450462263809982
Ni 0.8035937014960752 7.637370247493064 5.468972935667903 0.9911803232803703 1.2652018133420015 0.5423323028917305
Ni 8.51672665130167 5.25269055034297 10.543814526399665 0.5958421018844124 -1.318215903645188 0.34912727005753424
Ni 0.6582714875507453 8.650514131014916 11.774480492078803 0.8081907975265953 -1.9413469231525404 0.42524606469898374
Ni 3.891847945534417 5.2538954189423706 7.824496695319665 0.7098049639568292 0.39483942738266836 0.43445909865681953
Ni 6.464647165802026 5.827121068143634 11.753829232545778 -0.4514345501688935 -1.3634022703738389 -1.7420396340753483
Ni 5.036360158534778 6.760997776075164 1.7477409729339113 1.039778543904048 1.7059878826581134 -1.5188581094837195
Ni 7.337132053379668 0.35836463230218507 5.426208572121484 0.5183343973152363 0.2852844645699603 -0.5092671449066455
Ni 4.143891395671747 8.437666562501871 7.127838847234858 0.3166516660273321 -0.8414894116787249 0.6354674295855185
P 4.061734418050047 8.118799970277413 0.35975023119149696 -0.3846007803737957 0.621904089078787 -0.05995504039739352
P 0.1102755985602349 3.3699609943107838 12.531963495754342 0.3298298552805029 -0.07297382125456466 -0.41215709272550954
P 0.6941182109901306 4.455171080934346 6.240921892965007 1.0632576008625947 1.3552109928122982 1.4176923991759713
P 9.007145823401867 7.9628542039782975 3.7536899932375603 -0.5384777050323306 0.7420075168313027 -0.7800415887858889
P 3.121409780504532 3.4800935147248397 9.102486699151083 -1.1950981145463806 -1.109742374687695 -0.483157078083155
P 8.23449559492777 5.420364959414386 0.9189504568528493 1.2615169082912467 0.08483354880662808 -0.8764466444802003
P 9.322680200906104 1.820584692803673 6.187838959429025 -1.7359785154829328 -0.7206547621871395 0.06176406858167426
P 7.43209075987001 8.203404337241647 10.835224234111664 0.7402761359624929 0.9723801598547316 1.2523144158563724
Ni 6.790592361047967 5.076770321794397 8.305132899174877 -1.7161175148929477 -0.44301804397042405 0.5943845435022796
Ni 2.970707075219999 1.3705568578912286 7.626192267322834 3.1019706580711355 1.1174561983921851 1.167732320938918
Ni 5.052541167303305 5.73392259937273 5.834557366530565 0.09539024127655185 1.3053981830552293 -0.9674161309812371
Ni 1.707072892489733 6.24233949617649 12.31562463221381 -0.27186330606804787 -0.5169436876152969 -1.0561258749138198
Ni 1.986705950946174 2.3787212454046163 5.576170471478104 -0.4062561538600423 -0.6455983473719333 0.2565971239375968
Ni 9.079362635078503 5.205295914421194 8.047559290427012 -0.12022504093204457 -0.5678206769708222 -1.665691754142228
Ni 0.44279674070884817 0.39048567611935814 2.224712681900475 -0.18601905660871834 -0.05861858097415711 1.466934938251867
Ni 1.958193865105646 8.009147514695933 2.7308083240432004 0.24130445944458442 0.1591389443884227 0.533029537433566
Ni 8.59442184989121 6.354909992897148 12.613302480553477 0.6367666080129163 1.0274459904806241 1.1489247013141117
Ni 5.427161171357887 1.145425277485846 7.3325366092372635 1.1410699811563834 -0.3323063418454535 0.8724282673494265
Ni 4.203946564923172 8.790918974988939 12.035581165390699 -0.6338077824949084 -0.5667932641475723 -0.31913098080576
Ni 7.527077705468151 4.136586879787874 13.17023510585861 1.6417002763236372 -1.875247974640938 -2.660708677559869
Ni 7.205057746206196 4.68017087883667 5.9460397162973875 1.200765854355119 2.7667327444011836 0.8216664634155268
Ni 3.682643221927375 5.696110434030571 13.621719137429865 0.5748780980382358 -0.01812010663947847 -0.8419005310742146
Ni 3.343868058704992 3.4960486106309787 4.063436294946703 0.15710134513310361 0.919484854517597 -3.1859865960724743
Ni 0.9262399118792293 2.4739246908292114 8.012868487800178 1.3121576132662498 1.5979740390802801 0.7029938545722667
Ni 1.8157369792982683 7.935659943168365 0.10629011914627666 0.32872556647273066 0.6057812153749955 0.8387056782860006
Ni 9.129825920714381 2.941413707397047 10.275949645466444 -1.134763322212065 0.03300885082585283 0.2665285241186958
Ni 7.362886119691879 6.272865971706643 2.5397076924457607 -1.7988851823094827 1.14652200540989 1.7902465327978783
Ni 6.869981906105415 2.7204144497661744 1.7252569953047647 -2.0155875269346706 -0.12779102620476057 0.5338201516556613
Ni 2.326789526163219 1.367036382452352 1.1801038431659678 0.08115147196935056 -0.37607217407749427 0.023157411953069792
Ni 1.9122582497534586 5.70020510466135 4.096431809802035 1.2281493885743946 0.10585463114298545 1.8113177516458805
Ni 1.9294088012230663 6.9246057536236 7.375837515831853 0.5496231801261889 -0.7595267566619887 0.7582052096370878
Ni 4.143185417976785 7.216278085038125 3.6140739616747086 -3.282506065857463 -0.5146402362931007 2.5718570087327834
P 4.529458760516204 4.938050411252351 2.413966475847894 -0.6079849078945335 -2.7465652683143733 1.1742631800789003
P 0.58413347524022 0.5998372430869524 0.21021380105904106 -0.9726179868971507 -0.801600288793271 -2.358353373550551
P 2.9817862185129345 2.969624576087724 12.969986885941653 -0.02236165552465181 -0.2708412925614368 -0.9828311799847267
P 2.836383052458582 0.6110462862757607 3.208661093173076 -0.31419343429482666 -0.12466790719474659 -0.319024794245199
P 6.315629393949468 7.288607853145955 7.544550182766661 -0.37751661983350465 -0.30601064137371814 -1.1185144644533704
P 3.093076542346728 7.104253544401571 5.458873689415575 -0.07128126404349014 -0.0862833938792772 1.3283486212038156
P 7.398128526224377 2.3269213086662788 3.670545588146507 0.326314900148709 -1.426919317090878 -0.2107366139600564
P 2.1157869126930073 8.85343094661883 10.10856045138379 -0.4441107628139706 0.8920704670603863 0.46611580633015204
