# total energy = -340890.64487103437 ev
CRYSTAL
PRIMVEC
9.07410007430180 0.00000000000000 0.00000000000000
0.00000000000000 9.07410007430180 0.00000000000000
0.00000000000000 0.00000000000000 13.28086268283124
PRIMCOORD
 96 1
Ni 6.5581334014902035 2.060873306407016 11.403945105371163 0.18551203506531277 0.963473087173089 0.13345593780002177
Ni 4.467860010929017 0.28193047365841556 6.311052916474537 0.40130189517856046 0.1674135256923891 -2.8210051325915027
Ni 2.558197507714935 1.5627324360948145 5.0013472231565705 0.795057859689063 0.5698305083119992 -1.5872913625554534
Ni 3.4039943731502103 4.396401473054294 4.965103452746511 -0.8770444259651992 1.1169553474963667 -0.5216920009335596
Ni 4.757387321147269 4.626910836563063 2.5376537452072054 -0.08251852752020626 0.003776436323296722 0.6600883134579922
Ni 7.295712549757996 5.799810860513635 2.75916523110879 -0.3081701109188822 0.7613913206745533 0.28229658558622994
Ni 5.111122963302224 4.673442821607073 11.379308923741972 -0.06051836910003126 -0.3347722868874428 0.40421958304598765
Ni 5.444278546549258 7.903604660145722 12.502683417042837 0.2001038168365586 0.3639473657895022 0.1266653972407496
Ni 1.830599869499485 6.548687263340669 0.1792080314797492 0.19751600150472434 -0.19721852486896357 -0.03555809961026779
Ni 2.8975779235946124 1.6122498000544787 0.43218577411633946 -0.4311976542967284 0.33538909453583526 0.29578022189496156
Ni 0.6700887143438791 8.885213580993183 4.52699410611911 -0.5524025426435389 0.2989246810612142 0.45893754341415804
Ni 8.367536173278532 2.3107830958175186 1.3346467647087557 1.880352385747039 1.3196426087893853 0.6339664195599598
Ni 7.069585976572211 0.42347917512068295 4.679126837876879 -0.591962050103716 -0.04886073025644488 0.40834543228890324
Ni 1.143363828295687 7.50622259676189 2.5290351649820106 0.015517636019624888 -0.22127170916342537 -0.5085688332880404
Ni 7.565739618973991 3.6139690482512967 4.05288145273291 0.48983731831680805 -0.3568058696487146 -0.3935111954895481
Ni 7.277845646764304 4.236116569813777 12.801662309870652 0.5576864167502976 -1.064689705323431 -0.5928948463306306
Ni 7.96647909937543 8.562420620000488 7.088740494362655 -1.9246234397502724 1.220670049478214 -0.49377830524242705
Ni 7.002428562120043 0.8038699861654148 0.2993427642397239 -1.649340566477714 -1.2126898594862145 0.07718246001927354
Ni 1.7448677722499142 6.458699413168781 9.189573415149216 0.8179203661095332 0.2663184649904188 0.7543336424968234
Ni 8.86163906906956 4.827847708016757 1.2636981912567085 1.1772464310769402 -0.3463491930917648 0.17401920393436482
Ni 6.603549272228361 1.8853076186863669 6.753279182293529 -0.2892097677662955 -0.66905349307108 1.056933972637412
Ni 3.253273571359845 4.313237346118191 0.24921108370683828 0.30063600732536605 -0.8376193872003576 0.5125676700347881
Ni 5.962182806765097 5.380687253415793 4.829346749344618 0.026667996209489554 0.5233506195829051 0.1907375451303102
Ni 5.525491741975133 2.733000971031587 9.240731376397482 -0.7138374821549901 1.0548549786211963 0.28340087439400224
P 0.10393020489499973 5.714968025068727 12.44256115235756 -0.1178467705078551 0.14494748337938906 0.18449979175071451
P 4.032203393544476 6.116832693876066 12.72659953945703 0.14197168858051679 0.7469910860888233 -0.6063111197365364
P 2.39613408086509 8.559925242487402 0.9502134420928253 -0.07275553459617147 0.5898594019384165 1.506549981540328
P 6.337796104134776 7.558988488538589 5.730984719062717 0.5349797191814013 0.32834812852865386 -0.49580767696763
P 4.994293925189584 1.0543196845287484 12.453996333237525 -0.6643751137588043 -0.49928817931706276 1.146084146541523
P 4.1329622004728455 6.051916582135653 8.107568651375288 -0.2743349075369921 0.01639026843256532 1.089221371916208
P 4.946446195638675 1.0866869993984793 4.0432393140223475 -0.485904301810989 -0.30432194081738556 -0.3026700070362594
P 0.29817855720361885 5.610389022020326 3.42354089206271 -0.7510943096239193 -0.38449125137912493 0.266822915430663
Ni 1.4189623949408985 0.9636784991534348 2.522274960446561 0.5130124708816908 1.3941788894350635 -0.5987137670052527
Ni 1.7765999001163142 6.451222354729573 4.738718267709371 1.2695608616416458 1.1100465361916754 0.5511558147206315
Ni 6.215667791594348 5.688317393228975 9.379104142843097 -0.631853486982015 1.0397777725730997 -0.44339625324544923
Ni -0.39915877217314916 2.3590573080706636 10.07682802888189 0.45024952872185686 0.10740012125323438 -0.011116164517819566
Ni 2.295556755937673 5.445240401154303 7.107307010470016 0.9063989678679164 -0.6529843554233593 -0.8446079027030486
Ni 0.7812745696369268 9.067485028648996 9.074627252796448 0.06531501915772622 -0.634144854119353 -0.3534091852623397
Ni 1.1590166508777688 0.8416300386934247 11.19451850591295 0.9784366504614569 1.9567354897934686 1.1436254005883852
Ni 3.7792537806180335 6.93612411307235 1.6475970493798362 0.4946398819117739 0.3827251606176376 0.024531152372144847
Ni 5.57206909751938 7.636308895044049 7.771044762190591 0.5718943328195634 1.3668583472432394 2.193400393583513
Ni 5.088528454183741 3.013526774002637 5.027112222831679 1.6679646093368048 -1.3473493306760345 -0.3101927977758658
Ni 0.6848350343312072 7.382342982912277 7.0964298867429765 1.9042487327486621 -0.4659684821190104 -1.2389894166126918
Ni 5.27652565896958 4.363562304982089 7.3301333334684955 0.3251242222747175 0.28897091228261196 -0.42002389706809595
Ni 8.335050895108184 7.147668607481668 9.20994658457605 -0.23986824121869013 0.053291769444604994 0.07851763389092929
Ni 4.476008552771747 0.2650154437597148 10.455518353577705 1.679168448472424 0.29247969676681884 -1.5107961584111915
Ni 8.218866118098923 7.0940225280003535 4.685621171280935 -0.23102467478513117 -0.1813008251974426 0.42553351403241546
Ni 7.298616261773223 6.035764684050953 7.089231403175229 0.4780318410414477 -0.5058858871392384 -0.499270695815566
Ni 2.3135053258317932 5.126430970082498 2.510069388472556 -0.22474424109305807 0.8698162836478761 0.38799695053953825
Ni 2.6309899382966515 5.3328848943651215 11.20655166998605 -1.2600542077027912 -0.7721881541797411 1.3896666033870066
Ni 1.1016048198767068 3.42457443205813 3.901811298090713 -0.215460501798287 -0.3085614328200299 -0.532647985724431
Ni 3.514571356330065 2.4144637629612093 2.8796230018304585 0.13606869283252052 0.5993141195934131 -0.3617608996611447
Ni 1.0968681396518682 3.5165858065406286 8.17531406751054 0.06976894116402178 -0.5755234449317185 0.7774586585500611
Ni 3.750189438165623 2.647277947882064 7.017873587811036 0.45051152413399187 0.5060419531011285 0.27442566747858543
Ni 4.270080926291882 6.787317946392025 6.017944058967504 -1.0357843351429903 0.1330479037283257 -1.1297195891405707
Ni 0.5825572230548725 7.643177988780071 11.382589210909172 0.7617160510038237 -1.7031121037722152 -0.002211920049654255
P 0.2219878761540825 5.482162914247921 8.037830562869589 -0.8387684132031361 0.21855379601163005 0.3063109462229563
P 8.697134709306916 1.3609607474367438 7.923322679549121 -0.3520449579249615 1.1870860428751815 -0.12283933862644007
P 1.9522563288374393 3.14506492829241 10.461892908861133 -1.3574362825983914 0.6065690013836135 -0.20977039339204517
P 3.8531169550053646 6.324892733867112 3.873044586119863 -0.3413820788944766 -0.7717842338731031 -0.6461953575259839
P 7.072888948989531 4.048382513929318 10.493116887124868 -0.34324921401020236 0.004322024414121588 0.3730251597210543
P 6.596081287889199 7.941135137942529 10.257155804307512 -1.744994345828298 -0.6210247717976273 -0.4144590013858088
P 2.3087504974068596 8.668006848154171 5.848333703108084 0.0729023445866809 -1.148755265615783 1.0325378031812347
P 6.658737948717763 4.031368576340099 1.714679148801608 0.9004959721199202 -0.6788301128418696 0.049367751799850465
Ni 5.258713200576173 2.7042632961808897 0.640785723060217 -0.875676341973079 0.41913558092587166 -0.8419306129812016
Ni 1.8080416567811919 1.3810235826419512 7.176553282753137 -1.6808800318468922 -1.549412585231809 0.5216035549848114
Ni 6.946885995728783 0.7663522121086753 9.199733684972495 -0.2702972471325087 -0.6837725444488095 -0.4010224162649287
Ni 2.945298615744855 1.7351403369989045 9.207090965291076 0.1812180356756492 -0.7199063140568892 0.20741114913124925
Ni 6.408075009003312 1.9593069045744118 2.567297015242652 -0.28498493105167044 -0.46165237124215974 1.241014674572837
Ni 4.052311599249921 6.8859806362094025 10.271353141241962 2.4938654225486534 -0.7212952239846158 -0.47307244015364336
Ni 8.317837327317918 7.191995586214114 0.688895694102501 -0.811717579732931 -0.46452994990027097 -0.46807293005652295
Ni 7.631327214117926 3.942977767776586 8.369519771548935 0.580331150733007 -0.6973862785775022 -0.3091543292090224
Ni 3.069323415195229 8.659894602711631 12.158271412686775 0.10139016761372863 -0.012292444214107863 2.2815228975540576
Ni 0.24674746554391935 4.806632462105505 10.394054936905398 -0.6636919716488505 0.11002984556659759 -0.4048155647587738
Ni 8.905512342799627 2.58206239084008 6.0837902659627945 -0.6897002227871541 -1.1373333969320862 -0.5901170264751773
Ni 3.680563868500513 2.5494410011690167 11.590739991900696 0.3244860744700863 0.5770177700890579 -0.21880987788649411
Ni 1.0450550283801652 3.6522617504520998 12.456812026482293 0.2814031272376831 -0.09666319445170449 0.7083026683796899
Ni 3.0241706933584522 8.335867564112466 7.94277936487115 0.22282825501726786 -0.40320682551075715 0.858188726711277
Ni 5.5998902882652715 7.597462672740344 3.352155854398374 -0.1121936859871358 -0.05482234715651849 2.2478175348818126
Ni 3.1182509626518 8.674576496588623 3.7169283244412052 0.8352981952663484 -1.084734796899764 0.34020091410218184
Ni 3.3837591300440986 4.264318872761667 9.228924157415566 0.9051139305079057 0.027440098488823714 -0.6995244079664276
Ni 7.264733572195545 6.4147444725382865 11.620821540968441 0.209132245587414 -0.6378246169637853 -0.07003633589279551
Ni 0.39833756611884286 9.186981852175625 0.42367971273173455 0.5457526414271892 0.9572911267320934 -1.5037845029800487
Ni 4.5520858075706885 0.35066496669885244 1.8587631538171703 0.08846523202194442 0.1630691326807643 -0.5768671034438065
Ni 5.921712320552874 5.877294600819953 0.6372168795115024 -0.3224405047949673 0.4717838032492068 -0.4372772848319049
Ni 7.925727316061732 9.130994654882034 11.454557713206569 0.025054371865466527 0.09244864214972465 0.19961967811128847
Ni 0.2772164786836958 4.957235300595252 5.838466526716342 -1.065110080690301 0.010415538906369159 -0.4538945816736118
Ni 8.18214323520635 8.920248681276902 2.420251223971558 -1.213991609016774 -0.4362061632549133 0.39540609851941577
P 8.723830711646906 1.5797735959841768 3.642184054939253 -0.809523914515722 0.9185883108452567 0.4616372017335082
P 1.5925227065510317 3.4149921824078815 1.5456794798753906 0.49760950606305904 -2.155069359213798 -0.7882920017201391
P 4.908344049538871 0.982352997051362 8.186669396310085 0.1321657582336885 0.014221028695388412 1.1469922601780893
P 8.642073070218178 2.06589128373333 12.46164579957764 -0.9069180735961799 -1.8669764786607654 -0.4486868122204273
P 6.170623958958142 7.966524469875667 1.428502903730928 1.8201924284276911 -0.0021790099291897954 -1.691430296558913
P 1.8627494059680738 3.310839662061716 6.042513999666347 0.5031553755819529 0.9703132500233741 0.5180708592412046
P 7.107987567973584 3.9024074664638393 6.170806348369099 -0.6529558161782689 0.9617890146024468 -0.8990350713036774
P 2.4932178772741884 8.205971821931305 10.257819121020988 -2.141394689940183 1.4268753512268202 -1.496418549533281
