# total energy = -340861.44735125406 ev
CRYSTAL
PRIMVEC
9.32288131982469 0.00000000000000 0.00000000000000
0.00000000000000 9.32288131982469 0.00000000000000
0.00000000000000 0.00000000000000 13.64497918284860
PRIMCOORD
 96 1
Ni 1.8709530646905155 5.254142699133749 9.767185342507112 -0.0066478443338208095 1.19203387379876 1.8029670656883399
Ni 1.6485464138800028 4.297158280159557 1.3048257731436097 -0.7040732036793745 -0.29859480852562126 0.15883195467096517
Ni 6.040220062329172 8.220198665853358 7.104940627238615 -1.0319209955328421 0.28207881314846905 -0.8686680289760459
Ni 7.527489956575915 2.691786128515616 13.248019104127113 0.21806374374908896 0.9419375270941585 1.647054341546699
Ni 1.4824406418523828 8.035484423209633 0.5775524822984266 0.44016746189550643 0.14397792037726817 1.0980050316461092
Ni 5.832319814463879 6.020026701931135 4.957262077470217 -0.7153739734041744 0.6129880175360797 -0.14613096216452898
Ni 5.868930768426525 6.021490394259155 9.844811379449963 -1.1219497153871645 0.02490807609558936 -2.4937705488420017
Ni 2.6477168696968154 3.3046536843079313 11.166095766834891 -3.0810043402321132 -1.5171704373686516 0.5193006178832476
Ni 3.652369179582902 4.878840798772079 7.232643587561898 -0.4290898639251062 -0.33874772659542307 1.3629371578119625
Ni 0.17633017569730022 4.360796266344691 4.526339868643779 1.0500465014889593 0.7614517415988435 -0.6922731257206529
Ni 6.532011361662898 0.6284479546368216 4.274085081798938 -0.05093663894886711 0.6322252684991371 0.13982970253684948
Ni 4.10405344455266 8.274215438774053 13.549914503518302 1.137316941871854 0.9873578642104867 -0.6626905269675296
Ni 8.997680332702064 9.268099821024068 4.030017649109939 -0.5770342251492901 -2.6450771416701997 0.14764431348526183
Ni 7.881088189806176 2.067087836645226 7.612493189309608 1.887216202746408 1.0682403987891667 1.9987478296695125
Ni 7.74861937267981 5.874319393685096 6.133759324970734 0.010797347725820115 1.5900619833220553 0.9390162396823053
Ni 7.9780461529361775 8.036426034197723 10.710735489859157 -1.2138232017597095 0.9369030499940444 0.31242862908492
Ni 5.879698696062596 1.8018891617225294 8.656865633995249 -0.2575175788693371 -0.24406222469537966 0.30794873893669544
Ni 3.5968514228099058 6.763573081684339 9.056772482077372 0.05023215668267478 0.29740104532783623 -0.7542269417156302
Ni 0.7781920703862537 6.698154425214798 8.011103224634867 0.7092076966924625 -1.3070989677964198 0.10978944742101736
Ni 5.743426143459592 8.723857992789439 1.7436780246083543 -0.6610411642895648 -0.5434659022755415 0.42764233284530223
Ni 4.615208367869175 3.9729644138246822 10.787952252323025 2.2274968210465897 -0.06242021410843443 -1.9786556869053278
Ni 1.7922026882905993 1.4597580722086043 9.480053657578681 0.2600755694045005 -0.5892914452500883 -0.4782023051810409
Ni 3.791447919388034 6.20333318953326 11.338950372469224 -0.006802881854446348 -0.5649040175446595 1.0176793980121634
Ni 2.0895466571433197 7.432098237465705 4.932892066352734 -0.9451128394983466 -2.582816593068081 -0.5456587961618021
P 1.8991268112846373 5.33604420933539 6.0473996130413274 -1.318576115198084 0.504079430058119 -0.25480429370323215
P 7.399291018979697 3.3874968054976624 4.953372571487733 -0.8574302512786975 0.8560691092651127 2.0127418299557593
P 2.240810402507193 8.499465568310976 9.253233554869539 1.268737337299086 0.03507601776752669 0.8533028593738853
P 5.666475083106223 5.961395102880694 7.487354953568736 -0.13359837691515702 0.864695160371227 -0.1775056198210685
P 0.15920404317135659 8.00765562321511 6.447048217317804 -0.45135895973595164 0.43776965108729127 -1.1170049697873794
P 3.51039102376494 0.8755546465547024 12.620336558026155 -2.4573328748402585 1.1156836798727945 0.3616467426807836
P 1.3428771122316006 8.569843997509858 2.8680519763335317 0.6318000080362602 -0.5166071302114845 -0.8833546844539432
P 0.41817410125105736 8.159432127037844 12.464606220341551 -1.398930802297752 0.44306715204080466 -1.1303651931443692
Ni 1.859700347238793 5.6719009998890755 3.2398093173123144 1.0166383583421588 -0.07737272165320867 0.489705163614318
Ni 8.249080951408814 0.7412305760953685 12.322876053160057 -0.4463031424795991 -1.388941295185208 -0.1024422630273268
Ni 5.477229920262386 1.085752052315691 13.306433480048618 1.1410774373555508 -0.1700170247535072 -0.4625036634988615
Ni 3.5436643863044575 2.282138734291357 6.822667095635861 -0.8140086897599529 -0.24297310539625894 0.19187705805139213
Ni 7.865621530110727 0.3737272657489145 6.401269142110731 1.5988620981121882 -2.662783557811027 -1.460126399970466
Ni 8.895557493459174 2.0466427584582934 4.332062214598251 0.25752092130344684 0.8370540016151906 0.2506177664257103
Ni 1.3233456763895473 2.1450923825595263 0.1138640756626893 0.21376305949120605 0.8189971441134799 0.2854361596564762
Ni 0.33407705255738573 9.224533997783057 8.585420667201936 -1.2171252695497492 -0.568726219504227 -1.0402405711421312
Ni 3.3507087167946823 7.43920227284119 2.241529196637705 -1.4838705376649413 1.3474876560261115 -0.7571903952193282
Ni 1.4166117786157533 3.6371262690331374 8.43135539607647 -0.9341689388923331 -1.0574026847437143 -1.522631460483223
Ni 7.4842877256966425 1.1282923586389795 2.222780882805548 -0.7766981262349526 1.8641935165989894 0.3711518539577415
Ni 6.7507075058074735 4.817692021832686 0.9070948855032707 1.318278638562323 0.3325837638765562 -0.463152352826454
Ni 9.16210798613705 3.989643048059257 11.982461306051157 0.8089333321195745 -0.10851469447365183 -0.874228810893275
Ni 7.232607228325724 5.641927937248407 11.532394560947075 0.3379925935969534 -0.810377777875585 1.76773986705493
Ni 5.784148487974194 1.517998110254097 6.296216121347481 0.4133886511397655 0.49683534690119596 0.5293844844818109
Ni 2.4697430700668406 8.455461569659667 7.084323075751885 -2.8736127314848896 2.4149677796104863 1.3697904332883701
Ni 6.887558077036829 4.097350293063191 7.545714324491926 -2.043032510519501 0.7240905273415658 -0.42031803126974715
Ni 3.2641644118200857 6.327681777247488 0.26824632474454235 -0.7242280813606947 -2.800621683839145 -1.2610091154168928
Ni 5.133989407901108 3.8109140950625964 5.768265095494907 2.500092891515604 0.2424295741879631 2.0583552569195
Ni 4.100743821772741 1.7822551741887038 4.470927460426876 -1.5874438289729178 -1.0717607532375992 1.6979097336356694
Ni 6.33796491506791 6.415149047448034 2.5587336990342564 -0.6886386142918592 -0.8140061186567917 0.11170311950396246
Ni 7.593113716428999 3.7871407483336053 2.8708898613312983 2.181167598962747 0.7196504892923412 -1.629650544247955
Ni 1.2056070113540858 1.2930463129114218 6.698483522916575 -0.806830683954275 1.006895677133098 -0.2233231923758154
Ni 5.617268916817747 2.682108977964756 1.3307564345522434 -0.44096630364771794 0.7918138988304686 0.25686811821079636
P -0.031290385735887154 5.296226184284597 2.239045581120606 -1.173580809299895 0.5709602510410683 0.5954497515420003
P 9.049646071787317 2.9112094573836673 1.4345098456943088 -0.2405351853787277 -0.8984236629719237 -0.6092684025926475
P 1.7259636182868814 2.471943269999406 4.721244952585331 0.07991888511383011 -0.3826647396933474 0.314634121376671
P 7.328968527067235 9.284414862896906 0.5076057024930931 1.8617008320841226 -0.5205332047387681 -1.4324207065250814
P 4.135024055467839 6.1608022060910415 3.612399191570666 0.05704840827355982 -1.3315468164261388 1.7531581125860127
P 5.9791551913194105 7.6692070717239105 11.188596540297802 -1.5676746167657905 -1.4442513806114223 0.9909651219457707
P 4.8023838511154295 1.1599248941101425 2.658615317667871 -0.023752108114275222 0.16511470235588338 -1.306939045179788
P 7.594950323999827 0.2726262142713188 9.16145724903835 -1.1765671456217284 0.17131543184995657 -0.8393415120977866
Ni 2.9499739968735277 0.369341782493496 1.3887857754855497 0.06856077978853355 1.764365551266058 0.5398720142766961
Ni 3.305921596133478 3.416192633431715 13.710201865470015 1.4323962810450492 -1.3121969511446177 -0.7866526663445033
Ni 4.39462900174842 9.18784846077185 8.573945132892636 -0.4493383297614971 -1.529709964596559 -1.5360047964663355
Ni 3.974903573087283 8.68081425088836 11.17682080921804 -1.4475310798039587 -2.2516060553899675 -0.726020397374427
Ni 9.067201056842489 6.762650116458389 4.312577393161549 -0.26223015385365805 0.6831225695696365 0.021321901406227795
Ni 5.618285110854399 3.21111721853069 3.694746335487462 -0.334410789782966 0.1778696880287066 -1.2893372729376247
Ni 7.750828895493446 7.347511737515847 8.261829991272304 0.9918405825721887 -0.40606177846104907 0.9375003172584112
Ni 1.1423139717685489 1.1210391571663698 11.79377831293585 0.8666450850087463 -0.5782115332868429 -0.9625667733087357
Ni 3.0834496851554736 2.9382178438440145 2.4993366914479527 0.3646508196144301 -1.205662520325788 0.7071821816220014
Ni 8.613652215658693 7.377223759486551 1.95068607275523 0.18559533880773843 0.7666715952368861 0.24283066628112376
Ni 3.220402808076602 4.051034219906475 4.784011249390401 -1.4616659765434439 0.745599090837303 -1.051627472822834
Ni 6.839890186124935 3.6878147734117737 9.74232401555723 1.332812313402124 0.14202336775405863 1.7157609028844774
Ni 0.6879894668797131 7.42025817850656 10.418637506184634 2.314104431034505 -0.811709352202815 -0.20507401635764036
Ni 8.888779758921144 4.078098543653244 6.672981714037172 1.977159047755143 -1.387483993913391 0.4291279162518932
Ni 4.131155059823709 1.3447789799699201 10.128968133028895 -2.650506797326203 3.4683564580988007 1.8135615533747347
Ni 7.754492787754032 6.968862922849978 13.410462848470363 -0.22464885316577443 1.3069295320980912 -0.21083894386587562
Ni 5.893132967684744 0.46411446230064507 10.784895279620109 4.548401305722063 -0.5991703949266972 0.17145915651667246
Ni 3.9127852165165895 7.175933434300024 6.360920645127045 3.2871710754333 -2.2797233824514738 -0.8451648036477831
Ni 0.7319272730754234 5.93799467139451 13.609965977355733 -1.382025027681349 0.726913855722974 -0.45910543645059004
Ni 2.144812696127421 0.2528150919971597 4.723032148886486 0.20237127271449662 2.1500413098715874 -0.5391950428143294
Ni 5.310723264348748 4.3103221882306695 12.90914636154722 0.27022834156778625 0.17852300534198934 0.08715756895411442
Ni 0.2299786948157231 0.6623291690221152 1.4560969768123397 0.5184297852425201 -0.9631020769869154 0.24142761528601003
Ni 4.650458181195573 8.416119011543454 3.9207208528835373 0.08189606344485896 0.2845874385029357 1.5087040517688532
Ni 4.307385480693559 4.8783560089564295 1.8877687452768217 0.7540942727925078 -0.007187518887374718 0.09549514228553231
P 3.358717071633978 2.8223810465468726 8.896840321894434 0.8389764154488841 1.8592248597398044 -0.397789768260244
P 6.253928465101195 2.4662283439033783 11.600729414615373 -0.7925230090823513 1.2669781885161342 -0.7548224092077839
P 6.934386908652407 7.917978830200927 3.8744644461656703 1.6964827713811557 -0.26388208763478427 0.7087181586505535
P 4.244549262280461 9.372758483918048 5.977223490361666 -0.3397625410131826 -0.3891272074892395 0.6071634404345028
P 0.08937846081993568 2.6476422866482543 10.110643077997326 -0.2957457691126003 0.2074296610740105 0.3708566913148258
P 2.2697952397544214 4.9036955997052125 12.547417643735645 -0.14287054624570233 0.19362540820106652 -0.8749219803055577
P 8.638796025905002 5.620858226029771 9.969021988524352 0.8388229205901553 0.2657618211560004 -0.8732795596061284
P 5.555793839040898 6.7002986878609425 0.5239235412302511 -0.026329124812832075 -0.8744085310042488 -0.3498996294471845
