# total energy = -381172.7039521735 ev
CRYSTAL
PRIMVEC
9.22985335084788 0.00000000000000 0.00000000000000
0.00000000000000 9.22985335084788 0.00000000000000
0.00000000000000 0.00000000000000 13.50882334683659
PRIMCOORD
 96 1
Ni 8.879903416455639 -0.0805913871135337 10.50759543058608 0.009602813197086687 0.4367152416808479 0.8735695800427213
Ni 8.817601906650294 6.249081409662043 6.55884451641422 -0.48162907147440287 0.6161551024101517 -0.47337454477509444
Ni 7.965760285471787 2.884292238241654 4.993293412641626 0.6534342984765843 -0.03574219059661586 -0.32234228865420617
Ni 6.9626598283392065 4.224799212773376 12.010694577944466 0.2170964947398132 0.7496835453193218 0.028339213264325386
Ni 0.9224712276204986 0.8798339202803812 1.543720654736801 -0.5651061062531364 -1.1874868778580259 -0.702744457565622
Ni 1.6067144035399834 8.93453491816495 9.332503118021538 1.7564175000635749 0.05291381727989596 1.6798991559908616
Ni 0.8308003246002484 2.644288362764855 9.343850299674084 -0.22608712827419772 -0.41437672608464765 -0.2977275754293195
Ni 1.1268543302392575 1.3821520726416054 11.76911608949392 0.3955637071432026 -0.22826999485812946 -0.23612625767775464
Ni 3.3784308946044344 8.764622548682489 1.3514904999640713 1.5402409460348698 1.3449587189566707 -0.4712045337069691
Ni 4.003965742610014 3.250209772498381 1.089474347341381 -1.0342748404769995 0.9421406442439 -0.1299129576437698
Ni 4.886755061918494 7.150505802792301 10.205078681663263 0.8362415330162242 1.556984484041796 0.5529931250396863
Ni 0.7929883845677212 4.122283232120343 5.209839615945049 -0.849433606226466 1.137928607313924 -1.2552259330762123
Ni 1.6183717082635611 4.720645391997487 9.842973999806622 1.4373477115130535 1.557342381601847 1.1116295644080791
Ni 7.354780916127397 6.864768004191727 0.1358431349649052 -0.5473395262983347 0.13139802682972854 -1.548676221286417
Ni 6.869161414364667 9.181535022446555 0.5514541994130371 -1.1084470529150394 -0.8010318178843108 -0.17313371600561794
Ni 5.452055887258935 1.233726801652012 9.489867501936535 -1.4536227945239932 0.9503481197553568 0.8758568334150012
Ni 9.196875038638627 8.502254738648897 12.931118624102027 -1.5342052813637514 0.0656394923766805 0.060928202943940225
Ni 4.277298618369346 5.337365730097273 5.0417086081503575 -0.15123588749126213 -0.5028810388746436 0.8410389544048676
Ni 5.693859584130111 2.2656336309479235 11.804982376449859 0.922543695948579 0.7040534061850325 -2.950364788834964
Ni 7.8907215781062385 8.413491239419564 7.137859980779812 0.012539270117591308 -0.3022174928798731 -2.434311731354737
Ni 3.5526074563135706 6.458322184074959 3.10944712572218 -2.0448654499631815 2.367284357491594 0.1726428924121285
Ni 6.811511750624787 3.4093139837612765 2.619833866434594 -0.1506959558273921 -0.08100491908915727 1.129906765450712
Ni 2.3758657689635143 1.480477699894397 7.124499768121554 -1.2611029606822797 -1.0735548690235448 0.5088154020812076
Ni 7.025450520369691 6.155038434342537 8.818478742714221 0.415831199142987 -0.9369626995873863 -0.0311370877244367
P 2.479092448320993 6.643417662243314 9.109607698629953 -0.06654554913071765 0.28353842841313104 0.11108759740715062
Ni 0.10698692159373017 6.263683037589756 0.8273963547015504 2.0132449948444227 -2.4832987027764006 -1.346710925761087
P 2.6967969982141304 1.5303650570051959 9.580646801127571 0.6394135587174601 -0.22541195658404406 -0.6068502800694582
Ni 1.5325894516515792 8.211209774398238 7.207065420856919 -0.4413074890372206 -0.6992968653366538 -0.7847333378346033
P 7.506002832668253 5.216500801074904 4.598457824996584 0.22934265909701795 -0.47542140000179406 2.4832048575110135
P 5.478194831817268 3.936024792435622 7.566913403580611 -1.5855856927182563 0.5987392209265495 0.9286377246614588
P 4.522222005657441 3.021927810718292 3.5628978197627528 0.814928887581377 0.9411463986514308 0.4807484686416623
Ni 8.935596351294965 7.983130869390848 1.9105934788105439 -1.5636559825247007 3.0037072090118464 1.9181540299758448
Ni 1.7140206780580491 8.910029657641513 3.2406725650788464 0.3184776634924773 -1.418131543595919 0.49597865532785546
Ni 6.79708548990986 0.1930580726141429 11.329161286955182 -1.8326836189161662 -0.15469942055983035 1.1048037997354971
Ni 7.550859919728102 4.29744738813306 7.13806211456718 0.12531505386044225 -0.004323309965702231 -0.26854375477651166
Ni 6.992979896444474 1.6378559285893515 7.505083539279125 0.6416136516925723 0.40096148112000624 -0.7378616129837293
Ni 2.2712823011702747 8.461837211028511 12.860561933501142 1.1405048526815325 0.7454743923339806 1.149202894676163
Ni 5.077406911776156 1.3784416716131984 2.243653658288598 2.555889172549618 0.7788033455034136 -2.091506289750172
Ni 3.910033525530162 7.897044027619818 5.61602330822797 0.03944380781791916 0.11046719021433234 0.32945678821180036
Ni 3.2261198553736476 1.7556288567547151 12.705061979953653 -1.019823698048676 1.2011684891101766 2.0531109778014254
Ni 6.2111374827272625 6.836441584400229 6.546537430018006 -0.5049057826141563 -0.5567219959544992 -0.23526236701556258
Ni 6.350397509385491 9.403005352487929 5.219323290215418 0.4718149135974584 0.2440054033155153 -0.28742825038584047
Ni 3.8165074219957082 6.2941600132012 0.5587125560516925 -0.3205314606977125 0.24579026313007993 0.8287305693511599
Ni 2.952833128880838 6.404724425935753 11.867771222509681 -0.6325574550275751 -0.7457140191486125 -1.258679953063084
Ni 5.891710719565279 5.098220230977793 0.5865608694420166 1.1104260310182812 0.46675395413478327 -0.7914148636198369
Ni 8.976576899966926 3.2971158869918282 11.474043217261178 0.7756483448141996 0.23060918451426735 -0.992413424356523
Ni 4.41053155081974 4.419539887644928 12.431413443211307 -0.5504677875146714 -0.574592448477017 -0.5848778895634249
Ni 4.075644783372727 5.139597663341847 9.845243620734198 -0.044557217785084556 -1.0230159797337286 0.38756783342191964
Ni 4.406590403458721 8.881583249757057 3.3904444716655657 -0.3562255716652123 -1.695709640660557 1.957825380423538
Ni 3.776754443813246 2.922605359308615 10.736069373314903 -0.5754727941994411 0.07889250073184478 -1.0904806982446058
Ni 2.619238540896454 4.145450163914627 3.4475061937499487 0.5730613565444711 0.3198475472568104 0.4905376868179423
Ni 2.90276117470395 1.8112479527676055 2.6305460341797913 -1.0169345494263389 -0.36322102914643895 -0.5466378722456199
Ni 3.0595486927874163 3.4916904245038993 8.41707796041369 1.2672864637851724 -0.7213289054360287 -0.45379430865032166
Ni 7.608214228162237 5.9134008748308435 2.718677288457768 0.7750917009797812 -0.7787614365218847 -2.6665887904897296
Ni 1.2504789853996714 1.9018297330979255 4.2230879979707225 0.25600114222481074 0.7791327038183743 0.41919163097478773
Ni 7.955985870822326 1.6764459452554474 1.4261803188747104 0.6924549027141559 1.356108050705271 0.34746325209155
P 1.2396246779135849 7.75115696628896 11.272410610927158 -1.4034541440894022 -0.6491287291226949 -0.6848760619256333
Ni 4.723220521069441 7.9285639766546705 12.697658714618116 1.6844363817395827 0.14499530589818901 0.6839967446444736
P 9.290493440706125 2.874231698139754 6.862320247095375 -0.21262611767328543 -1.1263151914447118 0.3994306462977766
Ni 5.001685195266074 5.002866616489049 2.5219078918298874 0.024393341242699925 -1.3819797762657102 1.920111153702216
P 1.9021712376701916 -0.14347068573574034 5.29479672367161 2.2617374873970144 -0.29397582169637115 0.6186740121772636
P 1.319693655330084 2.5680313147631124 0.5997577136967843 1.0233358249669924 3.1075941749054996 -1.5546908029116127
P 5.75171230464269 5.997835572860369 11.942893921540303 -0.3690749168240547 1.2426684081261758 0.03848607189034017
Ni 8.164829761543148 1.5813969159257517 12.658010956763325 -0.5429961617279745 0.014285820495052814 -0.05541395799393037
Ni 6.1435288072718315 2.844456191379451 0.37032109726830253 0.7541976311395915 -0.9810728025327234 0.7974713542265621
Ni 1.7903700245928367 6.397257474612416 5.692699391569736 0.9075011997931597 -0.6058655475586856 -1.074367337622511
Ni 9.216285420137982 0.8844811514191948 8.035872097143397 -0.030957881834095074 0.3444990272569035 1.7757000024422709
Ni 3.695300988401072 5.961119216415086 7.527751136009636 0.5840854755691167 -0.7920393845777134 -1.3089553042788682
Ni 8.407381076531987 0.9926522631918917 3.4932198111964547 -0.46787392667183936 -1.1176377182753718 0.7448946085711107
Ni 6.150469656956814 3.6858496186172687 9.638045412857569 -0.19048891945461385 0.2020617118938778 -0.28969416360188177
Ni 3.830601407991673 0.1359529702192287 11.17579527549169 -0.2803515460447172 0.3423393006014233 -2.0480160797770215
Ni 2.0586541705946098 4.875956133552235 1.0358184411263567 -0.48793007399176613 -0.8816366733215719 0.42558673586785406
Ni 1.9749209414162259 4.009429815766276 12.278763668364244 0.43812112088943894 -1.2765018117358533 0.5428053858734071
Ni 8.312710471187776 7.5000126578736355 4.372873749337398 0.16078599307354244 0.6618945134287955 0.6262011737922442
Ni 8.150938832319882 4.184483213539338 0.771995083226646 0.5373572182746423 -0.1661454576132429 -0.8070682538863778
Ni 5.79187139637055 7.230427102555929 1.8155989056153448 -0.6937625657819858 1.1946736254144523 -0.356266966426109
Ni 7.753962841693527 1.8882433890337078 9.798544254954773 0.17177977308088482 0.21277189922253031 0.7248106933370421
Ni 4.6888485473635 1.7157928098925121 7.3680091418834 -0.9714609904745722 0.29475872260898267 -0.6693286011093376
Ni 7.2428781746636925 7.187065251731409 10.940903815760253 1.079589762363715 -0.8091585607565033 0.5331910027120945
Ni 0.9978025213358002 6.10459728603347 3.090521311521312 -0.07846929715149711 -0.14053984122999666 1.054312732964481
Ni 5.7886870969804995 3.104728824712922 5.626586875334965 -1.3079258345730893 0.025133561842834135 -1.1506697090296762
Ni 1.1474738225215007 4.675502179485199 7.4636387289859485 0.09929497564759672 0.22685640234005444 0.5182953165471847
Ni 3.784590589268763 1.4888214872816612 4.960804329009802 0.01394977731187275 -0.5707946719974815 0.43784241330675566
Ni 3.7795603192178127 8.303056044631274 8.413552156451374 0.7506659638372492 1.0413343184269421 -0.43799976482022623
Ni 0.13101684467198446 0.7102805920914668 5.874257989951808 -2.1210104698568766 0.19671510286998378 -1.141557205205447
Ni 9.03762314972286 7.563292532129257 8.900031880542084 -0.03155180666435212 -1.9113197806628308 -0.137493341094189
Ni 5.885415959611613 6.827627074494436 4.093673455832398 -0.2170471295591165 0.38518030702634953 0.9234528380264097
Ni 0.24147142215221362 5.5165817917106645 12.055436291838008 -0.438741013861625 1.659069106619388 -0.29475589439550526
P 5.074914851383942 0.9094654413291339 13.123794580789363 0.26257005369158004 -2.434425117004149 1.8731265574225613
Ni 6.839847400269588 8.81730655134455 9.02556896130719 0.029332173305213996 -1.255892620125934 0.9143760725361221
P 6.546688799612199 9.04577311019073 2.9753050527212936 0.7943793455647996 -0.5436859887061475 -0.12572977280035766
Ni 0.4282070452527771 3.7190494009535393 2.649052813040636 -0.5172468206780124 -0.7715098971657939 -0.32535485022828486
P 8.827357861593146 4.9241821170682245 9.976266003318166 -2.833472154710262 0.6537991380151708 -0.09549179985142264
P 1.8909385061986206 7.402610015951294 1.5865573269082953 -0.5778533786164757 -1.454567932046082 -0.34983458053720395
P 5.55077839820382 8.908571340819403 7.165323409287338 0.05295855447490234 -0.5149788505794421 0.13561206491107614
Ni 2.7900277464428407 3.4707663470626082 5.980585900019597 1.4263048234353306 0.8130275567936064 -0.3320680005824023
