# total energy = -340857.66565693665 ev
CRYSTAL
PRIMVEC
9.35520653673539 0.00000000000000 0.00000000000000

0.00000000000000 9.35520653673539 0.00000000000000

0.00000000000000 0.00000000000000 13.69229040528364

PRIMCOORD
 96 1
Ni 7.165227415094973 4.771463980273263 6.858550652369953 0.31014214704358845 0.5145037107152365 1.0657281738902742
Ni 1.9245249927551256 3.608911192707365 11.670979210379992 -2.178189747281346 -1.5596846565817784 -4.09104936162747
Ni 1.9517112225219722 1.5205016944272498 7.62753645578912 -0.3360593811299825 0.9615277905212601 1.5864418700709646
Ni 4.139585275131445 0.04024796892736673 12.695299468339927 -1.7852886745719705 -0.17325352941293387 -0.15429627158414072
Ni 5.732486911804265 2.0172444432779115 6.140992289513178 -0.45846626020469433 0.7052232581234177 -0.29528631297767854
Ni 3.2057298629545117 0.47440812911722446 3.8934030190011732 0.2344532408507059 0.6434167663395822 -0.4003081638067235
Ni 7.659425547807788 2.6116929676567726 8.095169544439328 0.21523501605104223 -0.6209154999132726 -0.16970566416067545
Ni 8.192008092335254 6.335598357299472 2.1364765487075266 -0.4362804681362744 -1.567967722526177 1.0028711293547374
Ni 3.498472981283544 0.11255155254712854 6.271384220644401 0.8287727354430049 2.195956327236147 -0.5035991479875906
Ni 5.46017556422912 1.4401966027828548 13.733367202088708 0.05120557633953762 1.6042927822094564 1.4470145451788565
Ni 5.3305685349139456 8.795110182624072 10.79435801537119 0.3508262550265119 -0.03168936068348091 0.2180334047317858
Ni 0.6564342508720382 7.402868367791958 3.03417034610787 3.538111258195436 -1.6028051419203364 1.360033353901606
Ni 5.160939932666023 3.690170515403452 9.598486660250362 0.3233722725806173 1.571094441080617 1.1710521293407703
Ni 0.730612617852184 2.245184046949357 1.4855038673254697 -0.7698682477973128 -1.5682924528554476 1.7989090935688825
Ni 0.13330420688016223 0.9410121450646266 3.601852689486757 1.9902235942485855 -0.35355779502506207 -1.5480612134102372
Ni 8.186273350818709 3.169253913243247 2.7295171145248216 1.1061677699625594 0.6527719823022371 0.528538848652064
Ni 6.543639436981211 7.265421675522684 0.7538191428210897 -0.3122234550526493 2.084535514859294 1.5613846699920206
Ni 4.384074238905282 3.7210520516940098 1.1449425470589776 -0.20255407814926407 -0.12983325344576993 1.3824970822217608
Ni 1.3582356396075819 8.419573487751133 12.797923275866898 0.5604418680082477 -0.024190995423906722 -1.1226223159741566
Ni 2.830717059639366 4.478430850546168 -0.4126048291486356 3.87666563783313 3.7788022524257374 4.365233859629527
Ni 3.7179180575536477 7.272756157331772 13.096634080351564 -0.12418865356548288 -1.5177512495727863 -0.10184268177011492
Ni 5.853431020003092 5.521433455665221 13.351407222508984 -0.8751047857403252 -0.4404780511573898 1.0128662928942362
Ni 0.7165882279542213 3.5258930912101185 8.998052674823729 1.3757623346010888 -4.160291226643429 -0.29190325543805856
Ni 8.161051714393583 8.139609581349669 3.8283777859521635 -2.5719706514925122 0.7227067596201617 -1.86418220374508
P 8.03297893892623 5.0651613296539875 14.131675404833457 -1.9154628562969271 -0.04215966408718546 -0.17570404783595545
P 4.265534418748464 4.637731304940479 3.396249576590028 -0.8019736129722899 0.10425180543223982 -0.6547149649612208
P 2.402332803874164 6.595804067807067 7.6933278802414 -0.24785794429238603 0.8556466770157135 0.17399040757895845
P 2.070194911440456 7.434507675800036 0.9655078174739561 1.0700705100193701 -2.842501354792066 0.047163802169996195
P 7.901556999571563 4.178390671233606 9.609098270857567 0.7572924680148312 0.12589689450584124 0.8750340804033898
P 7.441514725385503 0.12484710030437786 9.689910414688253 -0.7660324189909904 0.1051465493323673 0.2677431132520873
P 0.6937980096696325 4.895719831533847 3.6231582365173893 -0.6680901007165462 0.2410164958905204 -0.2933515578488109
P 9.171638529374258 1.2353456484798124 6.892903905751522 0.3117578282701405 0.5696142785361351 -0.8586620668032695
Ni 6.614963530492029 3.3841523592082283 0.7252296320958718 0.5089295590615687 1.4191286174018656 0.033926220433799635
Ni -0.1596288221385689 8.740429001279537 5.619753868253187 1.9713840929445794 -0.49671347661135096 0.38287377038035997
Ni 3.8366262714254704 6.823219779920721 9.846495988188433 0.7744435258728212 1.5778459008718375 0.6496588905945521
Ni 2.2177078057844466 6.274639832467821 11.509492444252539 -1.3890762781011754 0.6949491298909193 0.08076940603958348
Ni 2.100767725920172 3.1578405614484937 3.711007366593988 -1.1347676930874393 -0.5059486220563738 -0.8779175725987719
Ni 9.49469251640411 5.37086140883198 8.099715239223812 -0.9847337963240782 2.4113160417905117 -3.13399580482748
Ni 0.9132861198891264 6.0354552707166285 5.4968657481666945 -0.31340770516873767 0.5312449347293173 0.5756692264809633
Ni 0.6062940867087927 5.8412692516972085 13.685457319128634 1.03047732110778 -0.04501153171368377 -0.5150847800296872
Ni 6.2311287675519225 4.803271681996346 2.7457427844861497 0.7874311963817406 0.8323645665593212 -0.46296569073694466
Ni 7.592320652378473 7.135795935794733 12.494078334115873 1.7123508487616639 0.010110606071440651 -1.214127877484322
Ni 3.0008321326195238 4.972778666561211 8.913092432480097 -1.4267871623883879 -1.545185434524339 0.278781630454436
Ni 1.6815141515907728 8.560191594986327 7.064989185197233 -1.0474396599937315 -1.077414094868635 0.9134419907576269
Ni 8.407262036143022 4.155751071771882 12.13087647886702 -0.2220677227021595 -0.23856237792307303 0.12233771639967317
Ni 6.654479922279766 7.124943896383328 5.364872205701651 -0.9194542583899777 -0.11753746679755242 -0.22154810275326361
Ni 4.120631626987043 2.159415514773703 11.50972538889163 -0.4946365394776643 -0.6159494141572489 0.18132936444253286
Ni 6.090716474857291 2.3696082919249455 3.367837814786203 -1.1986189832154455 -0.22537853224294735 0.12795377703487
Ni 5.592673352318537 3.643983861460258 12.122866551156635 0.5209553798778511 -0.35174208197256196 0.10290583292730664
Ni 3.035240581718788 4.632361416473111 5.387478126420374 1.7166939562217083 1.127257243643007 -2.050794928073739
Ni 3.3690062800642075 7.111023349276284 5.62583381688549 -1.493319341782667 0.378779031485696 -0.3687599566867971
Ni 3.2750145214724977 7.51995813095846 3.369878185299675 0.4151174609054141 -0.272857294550201 -1.854009376977136
Ni 9.288316663459637 8.049004407470829 1.0849045745360197 -2.397018908441549 0.8744620099500036 -2.346781352442236
Ni 7.974340505279087 1.721058608997676 0.2689631192084715 1.0163498805674624 -0.8785901731857644 0.020347967528732698
Ni 1.711375970384914 9.369239198725717 1.4376903429912038 1.2592826196440894 2.5741887421897536 1.0796794938640437
Ni 5.65872110942588 9.465317168342205 4.505818217250382 -2.087228231200109 -1.6940451084739405 -0.19518015428269608
P 7.620601441292849 3.8111426892214477 4.958032990250644 -4.133898081361881 -0.26973674664334835 -2.994234750745037
P 5.595994450586682 5.977237821356997 9.031557410985803 0.9054003514000729 -0.575956418704079 -0.4403312411668804
P 8.297749990151726 6.738732911020379 6.6857403444290835 0.905652319509879 0.42702089721121944 0.5209854617848383
P 7.796208020423434 0.841207996743343 2.277397764629728 -0.34144841335603776 0.7829425644827677 0.3235530211328557
P 6.240671078068847 7.3717155305161155 3.054886515135986 -0.10467320924037457 -0.8978765322192022 -0.19288441626998393
P 3.951152708041347 5.189052327865395 11.771946210855447 3.421265418148269 0.4668346867740476 -2.1735630471426117
P 5.10394801534337 8.303952491987728 6.428735985547853 2.507649106596307 -0.7474999074044417 1.1954745240491926
P 6.368893536838428 9.036717742830053 12.903997283510186 0.19793971930570425 -1.376620568836326 0.3613500373759712
Ni 7.532250872153792 9.100763485770118 7.064455002912414 -1.6362161132806143 -0.0022458586113832286 0.6451352916925858
Ni 2.7052263211354144 2.0333821742991818 13.54272961285269 1.978342012319651 -1.0383418114575216 1.6967943890843038
Ni 4.324182207601995 3.9425178525441686 7.289994060624404 0.20504290600938882 -3.12168690555314 0.3870991213156172
Ni 4.099320466832578 0.17816335703673705 8.731929796275 -0.2946713051014989 0.8032794762679069 -0.19997860411260399
Ni 8.543866759837274 9.460546013083743 12.326346967723667 -0.6055428741119442 -2.0730493685965654 -0.6177005925204008
Ni 9.173874423701264 3.4240803800770863 6.0544023702165575 3.0580320477066563 -0.9474664273321877 1.7632733466431438
Ni 0.5050885284704156 5.214797855848313 10.30414707162143 -0.7512352060771578 1.3903970537951282 2.1845946223664248
Ni 5.187228062619512 8.997266837487041 1.915031329311424 1.403639263517015 -1.1435703789807339 0.03989863596715064
Ni 6.338292656739544 5.700426619508675 11.124794195762714 -0.1915800956362636 -0.5552299847900052 -2.1767321888992126
Ni 5.525764916223394 4.88599041688914 5.233932994996664 0.5348226247782466 -1.153504350264994 -1.8096467917013608
Ni 6.747854237249792 1.4376519866450082 11.617264421855456 -3.6500120955325013 -0.5314326252600913 1.3525642992180706
Ni 6.055344439499945 8.090045697899996 8.698766525146132 -2.536553448335483 0.5552089017440824 -1.8936375328917194
Ni 4.364007321200572 6.5526952767659 1.513257958120137 0.6294376784516709 -0.7800598436183339 0.624133492629938
Ni 9.362971210444991 0.11217266668836827 8.732627694671631 -0.508700473769898 -0.0462528603199526 -0.16333447052700903
Ni 8.387887403711108 2.073600206566103 10.632788923427514 2.7465305584216955 1.5312927357026467 -2.1439236270096242
Ni 7.857587529542594 7.231668090870659 9.555548133965479 2.2677793227157204 -0.8114807811317767 1.094999412050566
Ni 7.574031223887701 1.0254709483458007 4.719390094949382 1.2044070506521323 1.7471551009250426 1.3556794478082848
Ni 1.238414156175451 1.4215142556237381 10.185749450601724 -0.32397262516877756 -0.71007055891339 0.7621875913236036
Ni 4.687201636326261 6.045119198916612 6.968883149961577 1.538357355858912 1.4698060891520752 2.545360247993836
Ni 1.6501087237424232 1.365635607861393 5.3945983740031505 -1.3417263280623022 0.5003934965660994 -0.29412186035593213
Ni 2.4918808394310314 5.272500768856542 2.340957036837559 -0.6990592954045509 0.33006485410944447 -0.7157781508211286
Ni 0.799142311214566 1.5464904577762864 12.518477647899394 -0.40588000146754616 1.2274243374829117 0.10840387992740039
Ni 3.020206765051437 2.4781567516581604 9.549906944512827 1.4048016592562322 0.7618824013783589 -1.224952993124284
Ni 1.8646423166582273 8.304654132466913 9.653818028438943 -0.10166219032819265 -0.6091786710923186 0.1941252306556205
P 3.6994321697287025 0.9762906283580812 1.9590653502644766 -1.120736926025986 2.4079209000660335 -3.127681432573678
P 1.9149078405870876 3.922918695158916 6.8454608475902665 -1.4039987037389627 -1.3831966793919468 3.004835151968703
P 1.8257901445241207 8.36693174139943 4.616670864317242 -1.6313017066981323 0.45176467981480256 1.6672902089775994
P 3.975672703987288 2.4376487079931755 4.474352916081141 1.52787625382193 -0.31388387347420776 1.4531918776341617
P 0.204670398819732 7.272494211552876 11.107199859106654 -0.22691168105802212 0.5101929991550245 0.3035513811999482
P 5.536411141094237 2.1209375508951616 8.326514443236421 -1.2520228527578825 -1.4239064984064833 -0.9657981357618398
P 3.060003813030847 0.3572397822170543 10.791112694274796 0.8527891529622603 -0.3118539875283726 -0.0430009290415582
P 1.2195259944757733 3.5973200919912176 13.862896583190851 -3.0837101691990503 0.2927766591819474 -1.054936739701725
