# total energy = -381172.10908982524 ev
CRYSTAL
PRIMVEC
9.22248533681722 0.00000000000000 0.00000000000000

0.00000000000000 9.22248533681722 0.00000000000000

0.00000000000000 0.00000000000000 13.49803951353093

PRIMCOORD
 96 1
Ni 5.251559656923094 2.0701712171637023 4.125271049273326 0.07344587579497673 -0.9966426319465223 0.43326867789314416
Ni 1.4515084756402226 1.769269197729479 5.214940857819115 -0.5749169216959712 0.28059425818314254 -0.7518630694691438
Ni 4.167770104839477 1.1707299185655626 11.456582240820763 -0.9646755921216223 0.04266540007901039 -0.026273074763916045
Ni 2.860104728384456 3.206676493741942 12.309806900132704 0.5573218343220272 0.1944067664517813 1.6677416946927213
Ni 4.117009547173557 5.695972766081042 11.0956584442424 0.03818653837205037 0.07251693622280414 1.7312687687120896
Ni 3.2331726932648683 6.53511745748082 9.189546013473874 0.41521413438427845 0.49157975492921147 0.8848019584234309
Ni 1.2420658403580571 5.453458299441684 10.32181540267276 1.4225183598097049 1.3746202505768454 0.9497961039066286
Ni 4.837368631244656 8.037082148780607 11.733494732166216 0.2592186207208439 -0.2670502009501207 0.5786164820347454
Ni 6.310439276910845 8.491049752441079 1.119609683983042 -0.6163697895241191 -0.4644170784714905 0.22881969671401237
Ni 2.347306892647149 7.681905804879825 11.76856230928629 -0.011819618342747387 0.4562854505032916 -0.27787531659008274
Ni 4.536402054415146 0.4072372719574892 2.3574866716354563 -0.5315138721199878 1.291621183875795 0.9512171526238714
Ni 4.883444166509724 3.497655119271999 11.042785937502082 0.13170887320192803 -1.4947835850330191 -0.4552960900068288
Ni 2.452083545198478 5.083922546331992 2.7965913184037774 -1.7203071274942632 1.600837219560688 1.9328915932963355
Ni 2.395743384082725 3.3828444029960116 7.440618850999431 0.3592206497377943 -0.24326852514949074 0.6940124770092628
Ni 0.8775996872754293 5.065265459093956 8.136469181073949 0.4685277582057543 -0.6346315639477844 -1.5805080210850329
Ni 3.450472885802005 5.475583041055155 7.100022333700039 0.25175882200868893 0.3434546451527892 -0.6892551648299354
Ni 1.3300483476496407 3.1134279474919206 1.0998486652855919 1.320235762288694 -0.46967961242201045 -1.1143009405926552
Ni 7.297577185764296 9.029366204286962 12.299467572153187 -1.6466825600295767 -0.6021855276039372 0.2425429598373758
Ni 1.5168590046410781 7.829788352513006 0.7972580088403529 1.6139161642318336 7.841864641921978e-05 0.26560832629727155
Ni 7.186151121498372 4.492383133314231 11.516229585072233 0.22437323090688455 0.3765653116638289 0.3923364584551566
Ni 5.893426170809848 4.88631235935749 9.4620713686853 0.0151049739622385 1.9849937133082136 -0.1579901754959602
Ni 6.878212345977831 2.8695208856113643 9.508787866660724 -0.9997580376470524 -1.9368510921647157 2.1769373629314828
Ni 0.646708318533302 6.87177505141918 3.36413013635072 0.5771558383288189 -0.5397910245271156 -0.3853754537562911
Ni 6.2161578123362276 5.783134472203972 7.177609255853355 -0.3371107052126323 0.17246291519083845 0.01609176335554003
P 8.377834526077194 6.149156458513025 7.027267993708231 1.826176156814952 -1.3713428653771544 -0.45312196517364545
Ni 3.6038889244598136 -0.09809588438759494 5.1430091634929695 -0.48330105986018695 -0.09562061211980305 -0.4667657812093252
P 6.412698191045969 1.8963734865651816 11.761988521949034 0.3770679623318603 0.9332579970422895 -1.3633531623034583
Ni 3.092419126568417 2.8397138139587024 3.4246545389295955 1.5984095839558021 0.320410618849132 -0.7593920308563373
P 5.345361552275579 8.00326329613509 6.529649446099983 -0.2972565493301719 0.268040589887848 0.01854073911666484
P 6.796178341537722 6.932292998258528 10.897169354443486 0.4173280954034877 -0.35854650648890507 -0.4158075449939032
P 8.280481973983907 5.005356196267318 3.0474788792119014 0.42037305287739857 0.35499504169222085 -1.94121014046436
Ni 7.841242678933986 4.08539486845285 7.992162190891182 0.2766537854781558 0.7815821938001313 -1.9403796741432646
Ni 5.491888394607725 1.0162625166130752 6.361450686169881 -0.2825230997747393 -0.7743080287362213 1.0417215265630317
Ni 3.9892596843849812 1.7685406214112362 9.064243798215191 0.7655572791267847 0.30476854143650095 -0.6375250834454956
Ni 3.5680595700753477 2.2736284596542284 5.734210111309725 1.581294264431754 0.4522735011304211 0.680908335527137
Ni 6.471076521355793 6.66166839721406 13.026039844396442 -0.35883318449138846 0.21992265133469865 -0.9262090606153082
Ni 5.775857931506586 3.7017302682602753 13.306785200524953 0.41282917909186967 0.44012169625923553 -0.6215755020947746
Ni 7.405378813409088 7.163602145573013 2.9932847903652 -0.3196649989323591 -0.6139475532358717 -1.4777651960981517
Ni 7.629088633049753 3.1457804250159116 1.7132924025243432 0.9284227804371752 0.6819635162645288 -0.10079135768746511
Ni 0.2688658731471402 3.853504704580777 5.8925149892877915 0.98931215972338 -1.1261580970415572 0.989403948106238
Ni 5.642233345746864 7.389064237371477 8.998427533719763 0.11617709611491606 0.11436112595209981 -0.07606685835759157
Ni 8.538637775252878 7.89838519624831 0.7690307488752219 -0.6285663315903111 0.12607070107954416 -0.16477428829732912
Ni 1.090789418229772 8.83184824216287 6.014564434072496 -0.11969513657050353 -1.0980613388053413 -0.2619545315947682
Ni 7.949210311309517 5.232459890403087 5.123815327625544 -1.0391095428614814 -0.12630775679101472 0.4141620389706802
Ni 3.4650075222266947 9.364972434930642 13.795266109954532 -1.2846943748489748 -0.38893720296562045 -0.6645278372865846
Ni 1.831945206068431 1.268589707336107 2.644563263744647 -0.12816589304567605 -1.754004005526076 -0.7824828512375298
Ni 1.0580495963340568 6.365515957575975 5.821096987378431 -0.6366845898220712 -0.6196147788239781 0.45765070628193444
Ni 2.273075110551766 1.0200806254200685 7.381672415611079 0.6207699754743438 0.3088532530288358 -0.9673652231386438
Ni 9.253841490186034 9.157503411447262 3.293953480927885 -0.807278570124971 0.14478293277706678 0.2098017608506129
Ni 8.033863501501283 5.274993991412393 0.41974203942464416 0.5996907862065414 -0.9015197853987441 1.1390737766619607
Ni 4.790121840379375 7.348614417981448 2.8738268638770292 -0.5724738594721173 0.5978097671337447 -0.44960032517363213
Ni 7.183817832782988 2.5721695229179438 6.275036001335276 0.31790764992162024 1.5006881234429121 -0.8240933276894645
Ni 6.949511377830161 0.9635560146034947 2.7567852284696124 0.14955515735472955 0.7167597980081075 -0.08165489396833034
Ni 0.8416375291063726 3.618654123010529 3.094209210914884 -2.378109730241872 0.23421952757334502 2.7470000418589464
Ni 8.97760961823661 3.7603207157260434 10.0144115312846 -0.6373044827942572 -0.1646472758011616 0.6054444008608669
Ni 5.817451339041706 5.6231059117717335 1.5238339700776213 0.045678475873721334 -0.0727709612151392 -0.2105607505038245
P 3.5675062209728847 2.4754256548373665 1.0376282477076677 -0.9860057210579664 -0.8956455860061543 -0.4419577210267098
Ni 8.531896138687875 2.195569346266811 4.364712583897008 -0.5449635698669905 0.5353147339233167 -1.2013469236695697
P 2.1872229973046644 5.649657446204907 12.329405603093432 -0.1596541934619444 -1.0982492864464313 0.6040385216522759
Ni 2.4794466583152626 4.2388662420209045 5.049292115002864 -0.24054958355643088 1.1727917377396966 1.0047035545777858
P 8.386466772075613 1.1135136213709105 1.2602848595566447 0.8809964686344117 -1.7069782715958408 1.0638769796141485
P 1.3240629548580014 1.777237424804943 11.54862540827592 -0.6491870931644561 -0.5923677701825669 0.3273279147942556
P 4.127486290180186 8.82586284937123 9.768638760680238 -1.5889450961087925 0.29414705716691275 -0.5758877702496727
Ni 8.070762664150509 7.5324646572747085 5.061237999876531 1.2148827533724755 0.6470011412567309 -0.31101272257399987
Ni 1.9053008520849144 0.6656171796129595 9.538956459726993 -0.172635950433593 -0.8683240153730659 1.7837758374718697
Ni 8.66159194582011 1.2326589056161898 10.267648059032677 -0.000150923755567482 0.02244058839170329 -0.006922695261762271
Ni 0.4955554777045667 3.729637507994482 12.529068715238074 0.21465574650880453 2.299075304615524 -1.3904019388911344
Ni 5.55600311061308 6.495064204947555 5.0087980276846364 0.5015224679642201 0.05882246945484708 -0.1621399359982756
Ni 5.285867301275788 3.249985283494696 1.9811613250385463 -0.8222899559321387 -0.6952435212028865 0.3021118205399442
Ni 5.4071890919907535 3.4886447513868966 7.551774696453652 -1.100889809393072 -0.5120961297150083 0.7150682692382975
Ni 1.3013295292318219 5.388181550321157 0.8463824976599911 -2.614234702368046 1.8128794397060457 -1.112053282209059
Ni 8.123838065561731 0.5229720812345896 5.869352718107203 0.40026522638393 0.5254542961894693 -0.677523221104988
Ni 1.5354146445436634 7.3616365668594055 8.107070665508605 -4.145739554081499 0.13425786487602687 -0.011055743593529347
Ni 8.31990809753438 6.212155253828413 9.133015869166275 -1.4793870479722908 0.27074641885478534 1.8882251036268964
Ni 5.420607807725476 1.2293388110014132 -0.012888422844862451 0.8674243863769319 0.7821198114711563 1.5212325232531674
Ni 7.510017128684802 8.014394835579633 7.138370348749215 -1.456155845358492 0.692103432912008 2.7474564126700747
Ni 1.9972029155189426 3.1836387261094075 10.083453821047387 0.9942293945193393 -0.0117954499730313 -1.5121902105452407
Ni 6.038329855774769 8.956278010336668 4.3947990968464135 -0.05151976514584676 -1.196918712694887 0.7203470011387336
Ni 7.182628132212693 1.0887235815805776 8.156743892188185 0.4994301042115657 -0.721687574327028 -0.42356919121719316
Ni 1.1523956183039623 1.023741951981364 0.219397385635471 1.1762038487450388 -0.6999422122301365 0.8672444091556418
Ni 6.1149871514359475 0.31350177849730104 10.218771655060644 0.8030735309046879 0.7005129971319419 -0.5399833430435798
Ni 3.0721112145080323 6.53626104562591 4.654056062829287 -0.006719835222336814 1.6503461249240934 -0.18580874037012515
Ni 3.316885189982447 8.108381180632938 7.37135983283818 3.0961766770971773 0.6020358893999502 -0.9059405401742591
Ni 6.501575279386533 3.9147512277383667 3.8236708877214958 1.5191370741767192 0.31563350917546285 -0.009207891751513174
Ni 0.2746437600253558 2.259213715535073 8.105180978323695 -0.21687306587509744 -0.17311597539380508 -0.4379084906580007
Ni 3.381756149761168 4.8116932328903825 0.9608538264864681 3.457340566604272 -0.672546336715687 -2.8073237784496685
Ni 8.405409756349922 2.01392328089836 12.917677489661152 -2.11541497804697 0.13227245901488188 -1.3714734774177477
Ni 0.23134695950315493 9.051426388505146 12.046892296582552 1.5599026861298555 -0.6284136080625307 0.7984859115340055
P 4.435037721329004 7.39948564546786 0.47239505102098667 0.7320516911701714 -0.5954142703183746 0.02658623512896066
Ni 4.526340323235364 5.142097981970913 3.418014349700042 0.3637013112169672 -1.903059854646884 0.7236518971422505
P 9.231154176985058 -0.0198836777484962 8.180581249273779 0.30548742188039646 0.4548080946268167 0.2846578867295549
Ni 0.35752992208325696 7.959161372668806 10.153035626185074 0.004886381558023843 -0.05251092541452247 -1.4403335336142549
P 5.193522558559789 4.072049932598456 5.536017985529131 -0.7392340678512237 0.3553290279928719 -0.2978571590286483
P 2.6981763360337623 8.471433526758775 3.1939061187056046 -0.5453906301020801 -0.5210772501676961 0.13668678603249362
P 3.7395055669884014 4.394781574124836 9.199872429974334 -0.21067490748418555 -0.6413118041814374 -0.6887031489812075
Ni 8.899153937992427 6.279405614747724 11.824687586500588 -0.5390477186031878 0.660129965329205 0.5711798232510421
