# total energy = -340886.94735880644 ev
CRYSTAL
PRIMVEC
9.13085686561237 0.00000000000000 0.00000000000000

0.00000000000000 9.13085686561237 0.00000000000000

0.00000000000000 0.00000000000000 13.36393198398524

PRIMCOORD
 96 1
Ni 6.6460859783733595 2.3617874584453196 11.359529296393314 -0.2278483339396786 0.5760579772789498 -0.2017819758699299
Ni 4.788394870372056 0.7337684476266438 5.591469261499193 0.3308415843744689 -0.8930320596427073 1.2769756660484781
Ni 2.7948366109686558 1.5262957858919148 4.4481718357643105 -0.31571655580757235 1.7282670057712883 0.9169939697749433
Ni 3.617773355217095 4.683654810309323 4.705079453054612 -0.5136768439385668 -0.5673931025151002 -0.03862876811579154
Ni 3.891808633972453 2.8223752755270377 2.3259123214924404 -0.5297860907956038 0.02202946899621367 0.39773011866690217
Ni 5.268988395029177 4.656170930892636 2.684840829646041 -0.1922411262590302 0.8891409521184171 -0.6580769394549183
Ni 5.267070915069873 3.1066553757792477 0.40960750347800007 1.5961274727898447 -0.6251974151180781 -0.4342819496490069
Ni 6.196802162194584 8.394635953262481 12.541074968802137 -1.3363810045899889 -0.5602577770218996 -0.8095552819742896
Ni 2.6447253227260163 6.724136543573972 0.16246807695180973 -1.9658917023714402 2.177741089779701 0.359016247036472
Ni 0.5308497613047785 9.26928074041348 0.29258370156169006 0.8950061526499425 -0.15118240854550738 0.09040024426112818
Ni 8.399566616014976 0.3641449667286022 6.479529103679758 -0.6337216505390054 -0.9379895981900039 0.8886257030448955
Ni 9.100907738272708 2.8465811772990106 1.359205669152488 -0.3271415098150624 0.29531228111960756 0.3374066391864964
Ni 7.020487636712846 1.1476482790711116 4.676881540624506 0.46751088690546583 0.15014599686119304 0.2991612225520525
Ni 0.985511652226553 7.622055885088138 2.1436951140454967 1.0875221298369142 -0.34463580994508386 0.5266179774802673
Ni 7.780275374301548 4.206868852999963 3.7110167532952585 0.5124753674312981 -0.19838349171134223 -0.28351580270531174
Ni 7.999653343359799 4.14503468974089 12.528552911582189 0.5123545255827177 -0.7054052922272368 -0.10393658818466615
Ni 8.490172109520554 7.742300140250384 8.687731895899013 -0.4752049131156138 -0.7249896421170675 0.003532695743606819
Ni 7.294322036615326 1.0013262964623346 0.43512277013646905 -0.6429192578778734 0.29904115203442044 -1.170149415020843
Ni 1.8710586825747353 6.387609679859209 9.32458999329675 0.20792279866034513 0.004198354352063737 -0.9330595078782382
Ni 0.6936365051641105 5.238007397400996 1.064618657576173 -0.42628581881740785 -0.9285857883776008 -0.27043454404132133
Ni 6.700816334926058 2.4077065380421705 6.840608841730559 -0.279537534783854 -0.6235925325248035 0.4150243869709756
Ni 3.6420796964155078 4.744484579303999 0.3827792195902554 1.6029231555554395 -1.1910326862277552 -1.2294174566535407
Ni 6.267831098401365 6.017581701998323 4.7836733042436945 -1.4719118226411683 -0.08396631571032635 1.2241832048377947
Ni 5.381179234362346 2.732892877426194 9.059343164354866 1.6789547897997212 0.28371943407568556 0.9919061457028013
P 0.6456958538387362 6.115364049065867 12.141065822148995 -0.4767254635251983 -2.569850776936032 0.4960619590702812
P 4.719867788969318 6.522490698710807 12.716596518848332 -0.36959659365547964 -0.1431309989959406 -1.5617934753946652
P 2.7268117266981164 8.871303209431504 1.1577561377137273 -0.4686581131360315 -0.9761781934445833 0.662147509979866
P 6.590798639546767 8.311216444175816 5.736214345112866 -0.43885671350388294 -0.677029312187705 0.5979357511886476
P 5.032736602329052 1.406581120432715 12.424608149159722 -0.5715698596006091 -0.3695803957055635 0.9534542694845063
P 4.084542762453331 6.210388877334794 8.340697242007264 -0.7776360646681898 1.3645086160641404 -0.932097143964969
P 4.902749722802153 1.4686892094002597 3.5536966534913317 1.2003930443967326 -1.2333882683758306 -0.028830293968130995
P 0.2716009922927372 5.83819688637698 3.454015088178382 -0.9461484798517125 -0.14545527625374302 -1.7405072565912216
Ni 0.8419782333300208 9.146288097309563 4.538966338008734 1.067298860811504 -0.4733112956373268 -0.07137330953666418
Ni 1.8866450553867904 6.748278529347302 4.409402217158578 1.4172092888919656 0.43316943331111846 0.6716945302383528
Ni 6.108214588074749 5.933121275219467 9.167777569139192 0.22649387679431315 0.035493050700287264 0.540785784340217
Ni 8.833866695940333 2.4443760595496182 10.237493984150028 0.17094904964947333 -0.3664863301612721 -0.6394824642821826
Ni 2.467897147050411 5.647097181289985 6.616202509750456 -0.649444717701217 -0.2815123991220378 1.151216839782398
Ni 0.983274592274032 0.21377436214860956 9.118611556811251 -0.8354534898972901 -0.6414015356817664 0.32853119107373746
Ni 1.5241956887936297 1.152140660690052 11.321910165763166 -0.2971161670975657 1.9059351193121497 1.236084584261071
Ni 4.83057942947674 6.93358014027164 1.427361124677399 -0.06353350177727124 1.0679431792637222 1.193671666512499
Ni 5.670134333372478 8.099444478956137 8.305283213330314 -0.3407655283564002 0.6222509308952445 -0.6080774676083399
Ni 5.58421296948177 3.3224814414843116 4.5170358457884685 -0.011639126900825116 -1.1126778031669355 0.7576632210906887
Ni 0.926380222624404 7.772185435044675 6.517723478297699 0.4953387077510114 -0.2099467710689094 1.0155520672565155
Ni 4.941364116839752 4.853415702706353 6.823168904957844 0.1630889301751062 -0.3627885695947107 0.2351042441711435
Ni 1.1734703425230693 7.978971952370165 11.50224276433582 -0.26303310937092766 -0.013017752415906615 -0.19183206374606962
Ni 4.7640611366027965 0.6044819048277387 10.401723403407312 1.016218497195921 -0.395288599104945 -0.37066154458488426
Ni 8.365152416173947 7.434042409649927 4.764749603216755 -0.38091921775715043 -0.12464451015597885 -0.45391000829257955
Ni 7.058992460467056 6.342302367677945 7.105709576961256 0.8127894726408711 0.5611165254777691 -1.1489146740117826
Ni 2.5931268501068465 5.551424062177675 2.2726164225664394 0.8556374210443329 0.7142925674145376 2.4346020089016456
Ni 2.731377155172649 5.5081255385252055 11.493636018575632 -0.00043554487552183055 -0.1351721491601801 -0.5024097556651799
Ni 1.2069805875261401 3.639605234182311 3.550596727557124 0.3338870560690121 -0.21271893449740786 0.3119408908152241
Ni 1.7307174112675965 1.3429116549268805 2.282252215904788 -0.6529244487197013 -0.22746241135516956 0.81086757302781
Ni 1.3397706401364018 3.545758286459814 8.11690450361414 -0.19201435496020478 0.15428238762706978 -1.1052437154863934
Ni 3.694426899304501 2.664557544019387 7.241594076991556 0.5458467438028921 1.633511826975574 -1.5121035643687053
Ni 4.329907150388623 7.18580180177568 5.937301381530748 0.24498833605407486 0.655183162846891 -0.11033272151899708
Ni 8.624359183244023 6.9564438060721 0.3988933559339664 -0.4395218578917076 2.2425128348394474 -0.5333270140693266
P 0.30423010960022323 5.970649097280126 7.585167223013912 0.12460003007128863 -0.1083336888110973 1.2635064279174497
P 9.004011084329223 1.7483582268931914 8.034636395588754 -0.8997948322878374 1.077284768379622 0.1072445695119766
P 1.9820716413614754 3.882312542745425 10.082672086807364 1.028658008510854 -0.8284328356050829 1.3367725836014526
P 4.174527357686372 6.39072330207884 3.629216145145664 0.4149315701468531 1.591757111636291 -0.03088871915905648
P 7.034311754133732 4.277185582364718 9.969573640293458 -0.021903227830994534 -1.8887233834195538 1.8524510313510805
P 6.917098943478576 8.219168275272287 10.320430470904085 -1.8200175934127238 -1.4035119939105312 -1.6637397726221799
P 2.786847111138223 8.794868805910875 5.743925353806351 -0.7986103529270117 -0.2986207766675502 -0.12684280335887832
P 7.041141635131633 4.000246691099557 1.5757275061570715 0.5812330937219862 -0.4638488646728463 -0.47114488411362726
Ni 2.8720380064730056 1.7390995379468386 0.2302993870550286 0.5175332415701795 0.5787877175052871 -0.8975510305589832
Ni 1.7939212030690288 1.2533288173995973 7.112298403335702 -0.21167840904803548 -0.35440548773733804 -1.8418835402478797
Ni 7.187719281734983 0.7933801603043137 8.987511625822261 -0.001698470748345462 0.7954712930773977 -0.29514798762760136
Ni 2.9309685572222755 1.7054614609464809 9.150484639163356 0.16678026298376436 0.36138449015833246 1.669080468108803
Ni 7.037334067783872 1.8980677574300715 2.4625181592217165 -1.2371050551057856 1.9205505552324793 0.5754817930605056
Ni 4.474010334758776 7.098109051636853 10.495978500435431 -0.4683680926994385 0.7577825202773724 0.29985284930243844
Ni 7.551711763152536 6.498111310656801 11.424451515472562 0.5017132438187875 -0.6660758984999948 -0.43676100731711875
Ni 8.057415144419588 4.169322769225405 8.010474321930138 0.024933015796253833 -0.10065303233738793 -0.6316804517392605
Ni 3.5485523286862284 8.685526793945813 12.474415147645484 0.8483200614473132 0.34711923848856996 -0.5148999177123906
Ni 0.02883342007375949 4.743288437043671 10.241502430350666 0.28069813075085853 2.1014060653623874 0.33846207703420417
Ni 9.149666514380717 2.515459780898094 5.760255891459756 0.1686078031108064 1.2458604327009124 -0.14932915738685248
Ni 3.4762815959343736 2.904753866921508 11.469193627608679 1.2076368704433396 -0.08481246576070556 -0.09114972083264301
Ni 1.3426468600753576 3.5921795631888638 12.317229271438709 -0.6338664036469857 0.03861719815156575 0.4815753354183318
Ni 3.0895532807136474 8.449092384106708 8.079271676698566 0.7840491672833853 -0.7847317951727066 -0.04309426008631288
Ni 5.886289109927708 8.337120685340317 3.55845474304749 0.011211038224471014 0.3106720514051295 0.1877311542038186
Ni 3.5189500904573574 8.59811710037241 3.51555615092939 -0.7165577092996305 -0.8264579712668992 -0.6669948107698385
Ni 4.026132670550158 4.400114309469989 9.513034445182956 -1.1577117034781224 1.091718684416765 -0.12072769160007595
Ni 5.40410681616145 4.798329242732638 11.567258118155948 0.27975762121446013 -0.35438003381604133 -0.02284707980150259
Ni 8.278683200866297 -0.09435918879733927 2.6907338847209683 0.12000932537681266 -0.8608027672953562 -0.24042925592848272
Ni 4.910291810642082 0.5200607407337624 1.514187356491759 0.10110400383187751 -0.10491283605500643 -0.8362993828373532
Ni 6.758569005128899 5.700494432728121 0.30479530964537044 -2.2449358424586436 0.0696262449385704 0.2597269278158301
Ni 8.127686219499598 0.35088148392438945 11.38035038949427 1.525165025538354 0.17758532401906835 0.6942377056461914
Ni 0.08954357484240204 5.178775528372409 5.510176328995966 -0.09568103304409328 -0.6275132077354483 1.2413278349378816
Ni 6.903840939188533 6.404090876652272 2.7596791593719736 2.456826367517485 0.20820587711840272 -2.812983547838607
P 9.084499588335238 1.6914547263866142 3.6869350311777924 -1.0395499728330095 1.7276975064210633 -0.9673814210885598
P 2.1788598703277384 3.6207956688672356 1.3894479804534883 -2.1605260114529954 -1.7097584054441395 -0.3013798274699261
P 5.005188806913722 1.099419092666147 7.850481620297219 0.5728482120924006 -1.5908351140426538 0.29995517920825765
P 8.9167840078948 1.9494744820533112 12.756754940796018 0.48148817502116426 1.0214311517451118 -1.703583901202311
P 6.870568096466138 8.12375082015455 1.2087611046312081 -0.11546567187018823 -0.5161314761266466 1.4524274886643116
P 2.2028009772481885 3.3426149810570016 5.805492896042512 -0.8157231013478983 0.4548021810895458 -0.11336945146279184
P 6.936374182498054 4.344854363214243 5.946642248189643 1.087351665697321 -0.05854324765153144 0.23049168509979662
P 2.7342442442546564 8.859478749682463 10.33742938728616 1.2262166903280558 -0.855443559865972 -0.7913693550938823
