# total energy = -340894.26924913074 ev
CRYSTAL
PRIMVEC
9.04263784188536 0.00000000000000 0.00000000000000

0.00000000000000 9.04263784188536 0.00000000000000

0.00000000000000 0.00000000000000 13.23481452544502

PRIMCOORD
 96 1
Ni 6.418789857227395 2.0073209130936807 11.326817171787416 -0.406213473547565 -0.6191100712734177 0.9409682212023537
Ni 4.749943920249153 0.2746167721179603 5.740984471459061 -0.8747779985285256 -0.29800988255642874 0.41611556315262527
Ni 2.752886401077382 1.7737314930136932 4.906476502174463 0.3790196867415924 -1.6673138631266833 -0.3492985055280759
Ni 3.317183171388297 4.426633447752255 5.004718432206014 0.4088784219742378 0.11729706865197219 0.05900244667613709
Ni 4.87130516238656 4.635310400647341 2.438435000849467 0.23038215610512583 0.12400919056482512 1.0995700621403837
Ni 7.373954647163482 6.1060683136138065 2.6322196335242944 -0.8554399603215461 0.40151323985841814 0.8535126613918462
Ni 5.168690392263091 4.248158905164816 11.550922673325289 -0.9938005345120369 -0.44079352551527956 -0.051701542139349674
Ni 5.5265166133061845 7.734439403724674 12.680302019173386 0.9947898950084997 0.03801196046739905 -0.8804439385650515
Ni 1.7085250317177505 6.518349299588833 0.325854166514725 0.4605090016663359 0.25828505316298095 -0.6253419111157423
Ni 2.7689280405641385 1.5746126082908176 0.3941595397904374 -0.08781577136340361 0.14959963743941976 -0.47395072899353863
Ni 0.6535946272780055 -0.006251175522657766 4.662016022911287 0.4851769367266611 0.5401851746417407 -0.1842809908716891
Ni 8.469370749635981 2.484745061899933 1.37005457692122 1.1778642671665973 -0.1279972286782957 -0.220869074408368
Ni 7.086398764593661 0.9327752187020346 4.79687882757275 -0.7286223537736484 -0.7425831868291146 -0.34288566002319654
Ni 0.920224037412509 7.458729376694679 2.5526652188046555 -0.1861535253040536 0.0900963398674642 -0.12915705331435176
Ni 7.590580078699413 3.823724613964197 3.7416409734472387 0.4658119019364881 -0.21996276054401476 0.49524023449993415
Ni 7.604704678969038 3.7475584756344618 12.528789909763887 -0.7472494819565324 -0.33550762239157056 1.0295483815356075
Ni 7.954898913694869 8.839214636337418 6.898131045250779 0.613120429348886 0.4919499937844366 0.9042868066209201
Ni 6.964395495171271 0.5508395167121596 0.3666907188947662 -0.8657562546458896 1.195873302149508 -0.2584596310676323
Ni 1.7266645631779727 6.458577463620703 9.236431491973669 0.918792970656895 0.509763882037406 0.7328867854769572
Ni 0.06091663391571865 4.977881691693727 1.3767913420946325 0.40580132571081085 -1.1285029431246498 0.0462078660146301
Ni 6.323570881017954 1.7961029789721126 6.891699016971788 0.3960439892137308 0.03188784984753218 1.8353735070435035
Ni 3.5160036490632227 4.275883632710698 0.3450399311703347 -0.6852177615357683 -0.12035796696548305 -0.2289600789466186
Ni 6.155007069477576 5.676108970707208 4.880721261145049 -0.7854789577513763 0.1670278602181962 -0.5609211216375113
Ni 5.278630782838055 2.783757966583463 9.145534896640592 0.17248014158201908 0.9196928567633451 0.5376240987827837
P -0.035308787882716304 5.567172312929893 12.320116573923926 0.37422946444180066 0.8921013202983217 1.3326534192267563
P 4.196552571145132 5.982826202810533 12.483540550129314 -0.23005871132743605 0.6851195453950071 0.21858310658766872
P 2.4707922717488247 8.51557862887912 1.18570141548917 -0.37312877517845416 0.07683458976155154 0.8151895974419314
P 6.476563270238042 7.9136735278887125 5.838247083815067 -1.9858771443544314 -1.1737990959582882 -0.8342779815319502
P 4.747493365400838 1.0884171008024042 12.71824673597966 0.8194198334731952 -0.4888366449664356 -1.7203765472796178
P 4.133941346902571 6.135257948485989 8.417288772867142 -0.7881127958297975 -0.5110273221308618 -1.4827245969859562
P 4.79617892740574 1.155404961748229 3.7095197153948956 -0.6686125488789195 0.27598067067053117 0.28960777453566255
P 0.16681496538663593 5.581513936507117 3.6258490919411126 0.7135004105305454 -0.18301986477107834 -0.38308871460464344
Ni 1.4929214182551018 1.222202927299904 2.450333303688629 -0.27711941226066467 -0.3681770876001337 0.3345871674598302
Ni 1.9193541324132024 6.455593393141205 4.664530780488099 0.33257116547106597 0.4831439654570324 0.34904576608732146
Ni 6.205944248298827 5.459356942241843 8.984162694955804 -1.279052860292481 0.7837187805271599 1.9290061421990004
Ni 8.561252992491074 2.1801709349591563 10.29308542318127 0.709552995847023 0.9539872591698408 -0.7819727443703307
Ni 2.29176612825457 5.41646771107742 7.157466663722364 0.1449240863406214 -0.9261872062384371 -0.6518332725380516
Ni 0.8026353837722124 8.895722080053732 8.963013773630198 -1.0275763454109013 -0.1463775309576963 0.4920777776115526
Ni 1.4021785477649085 1.0153164166925166 11.503661326776509 0.4881851274253657 -0.24266354457564013 -0.6495681306529587
Ni 4.027952589053487 6.932673921710425 1.4412445516604473 0.33817077104603044 -0.003101778853775303 0.0012181886778172568
Ni 5.46064099681181 7.93791683987518 8.14863562038927 0.581316911685044 -0.23812271928249315 -0.40494540546841873
Ni 5.117174484621573 2.8597432521568655 5.172046115156855 -0.18323738009852314 -0.3642643828092888 -1.7144450122865313
Ni 0.8354601590466921 7.507234085943249 6.899904306526627 0.24549252938400298 -0.3943892272191272 -0.19415839788640107
Ni 5.144221014331206 4.387099035217813 7.10870966487871 -0.44860942201527254 1.14722597345545 -0.010005190841827931
Ni 7.956390948934619 7.313504613359104 9.023244975599413 0.6107480724619675 0.37250451133089396 0.6441523589540261
Ni 4.8442134194878435 0.38741101918786325 10.503254411316105 -0.7166039891565336 -0.030334132207167117 0.4608843827278837
Ni 8.339147722438247 7.155638242355835 4.9638095387234396 -0.7292972683534859 0.533547614720565 -0.9922517019676782
Ni 7.21133184866865 6.162856079102438 7.061117357785841 -0.1491044429705561 0.4529808116100908 -1.0698699639727898
Ni 2.4178114567810076 5.252416175807555 2.4105755380001157 -0.6545951515539048 -0.15727206638301303 0.583240611070318
Ni 2.4793466071233863 5.269949850534061 11.344658296199688 -0.5401522645212762 0.19822768285976827 0.5552284421281083
Ni 1.0698254374513492 3.335431214502319 3.741746772309694 -0.19966364397534644 0.8435473226490182 -0.03921523674688085
Ni 3.465943606110187 2.8603491088905817 2.958722157170474 0.4073599284471823 -0.34516905674073456 -0.6564226916809469
Ni 0.9030095678009316 3.2903265370728136 8.443070237546223 0.7625508882002932 0.2620154667396907 -1.4230924871456203
Ni 3.671862554471192 2.6039722415126083 7.159055455186751 -1.017230226289887 -0.39555547961308646 0.014702853427813389
Ni 4.165961327411368 6.824325035391191 6.04201026732058 0.27681987874237485 -0.025231263762963 -0.07642732702080386
Ni 0.5501730743050717 7.315783358088901 11.23924284158818 0.870725682836023 0.3399276058361371 -0.07132625834881265
P 0.1462049852749021 5.730590863552591 8.005593749822635 -0.12064593051954708 -0.8268354092109759 -0.21566413316866084
P 8.66678057581151 1.4636413570047535 8.092334348815175 -0.6821756322753347 0.8621186578933022 0.22203249858884988
P 1.6644602576371614 3.2498516902054386 10.439489346488138 0.18831813705554018 -0.19884320495658014 -0.07098610140057453
P 4.023928615225072 6.151688421398861 3.7653842275624454 0.24155231378933237 0.6536821528213322 0.05645602610519954
P 6.981766402417076 3.8829448490255105 10.301648801193647 -0.5420417682345052 -0.7346911856755476 -0.5005133099734155
P 6.306643063025165 7.692951781421833 10.33051380536821 0.6538173928476159 0.20230159581882579 0.26998562942936083
P 2.5081021953803684 8.348850472815524 5.766885298957323 0.24416918258688916 1.0384513404521922 -0.4099372022560553
P 6.777755450635388 3.9182111365104886 1.6737407168284004 1.5806198640725488 -0.4589609404529257 0.43244566777121657
Ni 5.329694558588741 2.7775095038521505 0.5554322724592418 -0.02427969848297109 0.5078862053987189 -0.08397608590233925
Ni 1.5654614588203564 1.0650147541328856 6.922853617041531 0.13930134083720527 0.06206488765154472 0.3577962585864418
Ni 6.865667975488966 0.6728554458274935 9.233334388521461 0.4954875746240499 -0.05947218722370403 -0.5877086741440007
Ni 2.738137858798408 1.4875410487541885 9.29233488748383 -0.512637089820143 -0.009124073788455254 -0.4881475893192109
Ni 6.471155772823679 1.8638142509432702 2.5577734049072873 -0.1575633723711867 0.2207618594065424 0.41286208921233414
Ni 4.199898347137296 7.09899515907227 10.443962739416039 -0.17182065362114926 -1.655392429098749 -0.4623799934368037
Ni 8.174824908033882 7.089310493970626 0.549763442811977 -0.11776063855195203 0.09385066470357385 -1.1441691889069974
Ni 7.6146967937564485 3.826591130152079 7.949583651186236 0.571367513781816 -0.5259767443518426 0.7175882074466737
Ni 3.3452786470846627 8.42596608811601 12.266038886988948 -1.9434115189910532 0.17565596820683943 1.06629561635797
Ni 8.962854623204624 5.032815716429942 10.14785975558191 0.28297278571764817 -0.9470357675526722 -0.36549208456880283
Ni 8.709253845636365 2.301713029852897 5.977702644223614 0.0230036599840249 1.0652121534858041 -0.21567467469162213
Ni 3.4305326364201427 2.4585575827828823 11.378750849296063 1.1683591558896393 0.7600834004964071 0.5204295892813682
Ni 0.8742512667526046 3.6316680293761334 12.432030068070485 1.6995518972247825 -0.993138989668638 0.7916452344630882
Ni 3.0030238483618596 8.235229728649179 8.02184608277052 0.9623777972263813 -0.06589865957533812 -0.29571568720561325
Ni 5.811974603902541 8.140535225433103 3.6098219206748627 -0.6448442428147282 -0.5284084937217867 0.43824427673086463
Ni 3.1974405614200716 8.542046429768487 3.4168456998208447 -0.19289778600642263 -0.4853900811787318 0.7260077989689366
Ni 3.228583406060652 4.326323466452034 9.293499579234616 0.7457836960442834 -0.65600077365218 -0.6805630363725763
Ni 6.986685597389341 5.757908672396724 11.429969254153413 0.06910816765157131 2.4074534735113122 0.11966582599446488
Ni 0.5160561060865914 9.02437168827137 0.33955105001562147 0.06459742426541133 0.1387423830099417 0.24002764961468984
Ni 4.702433901160416 0.4162262888544353 1.5742147322268842 -0.23733596171513963 -0.7858818496167498 0.20532418469523347
Ni 6.065611552022065 5.545198703035407 0.6479022867724173 -0.3451423172678572 1.2251975050349222 -2.2150254280524564
Ni 7.791543661536888 8.727492846112572 11.60018244283155 0.03636902554733737 0.05550677481805279 -0.8939941664456602
Ni 9.050957043452353 5.105030222033798 5.818037692558612 0.4733298075800881 -2.174605629474513 0.27311517619727804
Ni 7.941362084883329 8.870981422987349 2.375728828909831 1.1755757282427366 -0.09449086939073405 1.3649302769825913
P 8.631631842618146 1.6710432979676906 3.547353570109805 0.21357819717390958 -0.04260189383092663 -0.1878643373475732
P 1.884286782960191 3.2798280345676702 1.4645908339755027 -1.0419367278976315 0.11389884160370062 0.030707456386185824
P 4.626638510981163 0.9273858065633046 8.368214377436122 0.3890356762166977 0.007609951136773991 -1.788658619485468
P 8.613854016670592 1.642513775656125 12.423388019109103 -1.2624391629952 0.004148217840418662 0.9622461567445234
P 6.272742213850503 7.760120495123991 1.4919737498119157 0.053813703386346036 -0.8185559428110031 0.1536846061420708
P 1.7057760698214857 3.294531363657561 5.9429743936887265 -0.061532669297158546 0.526049763681623 1.4387355929995156
P 6.8673137355715985 3.8329933177262747 5.937998230098218 0.7463943330450887 0.3587287977030403 -0.6065895702089037
P 2.460818242237048 8.486587932038905 10.22548266286391 -0.45970013261179543 -0.06048982985494098 0.9045925107867969
