# total energy = -340887.8034371062 ev
CRYSTAL
PRIMVEC
9.12859854600085 0.00000000000000 0.00000000000000
0.00000000000000 9.12859854600085 0.00000000000000
0.00000000000000 0.00000000000000 13.36062670495639
PRIMCOORD
 96 1
Ni 6.925119076745235 2.1808586771085627 11.52666662011142 -1.3179001721769819 1.677306455563021 1.1195868715819428
Ni 4.866236731734605 0.7285196641451339 6.553306698769268 -0.025352105611543437 -0.27819619026461123 -2.5977233349765845
Ni 2.92540542150099 1.5694525406826334 4.967775044828343 0.3054861363288158 2.3665580208485304 0.38648488477038595
Ni 3.6015698351236525 4.748048767981279 4.929015928793722 0.03197860978912557 0.5120303094740795 0.324183455628003
Ni 3.4698989315028923 3.2449793950142705 2.9386564949685376 0.2200499209411823 -1.8902544753520996 -0.07851454856713574
Ni 5.006296817304025 4.856040087298638 2.6306676257110193 1.0404876541559307 0.7417550345008644 -0.00702116851283952
Ni 5.551977045100623 2.7984357460669127 0.8122088287467977 -0.5056161784176195 0.7265587863764004 -0.32517333034509804
Ni 5.982353946244849 7.923020941706891 12.55417891977043 -0.533511619276307 1.9593467021640707 -0.14367658708676545
Ni 2.2564069576386103 5.771118178788917 11.706794862728994 1.1349286441453357 0.7304236686484452 1.225023184240587
Ni 1.0422120816959306 7.824578136337626 11.56879236324361 -1.2682195171224029 1.021653552168563 1.45522356335221
Ni 0.4898460684159819 0.1090338052570074 5.350583732461933 -0.07207367803779846 1.231657401727653 -0.8275383488152716
Ni 8.820763824796185 2.6818726728324784 1.7653796485869844 0.30778753076848286 0.15310816481331052 -0.8073335917326225
Ni 1.503890946824876 1.3200409746311645 2.9598868763156534 1.7997485587510424 -0.9337591050484241 -1.0744727528521238
Ni 1.8406175567707268 6.980009339049146 0.8035111001715163 -0.14623971982825135 -1.4354134706048183 -1.9874565730264093
Ni 8.019428069628331 3.8094736641560147 4.072652982345644 -1.1434773050462952 0.3690304367393644 -0.8631422140618102
Ni 7.676019325638498 4.380850896506997 12.903599758680164 0.7124963947460632 -0.9002468322235916 -0.2603267661833581
Ni 8.258405647684894 9.091426767971138 7.424566604980152 -0.5257340322134171 -0.5854085652559144 -1.5156362601123123
Ni 7.24760507315473 0.781326780289433 0.4918315385724929 -1.0468516487007453 0.17451902638891878 0.7190169694734004
Ni 1.7492585437759567 7.186151348586307 9.504014769372867 2.5965326571025926 -0.4569392820372066 -1.2467361504376464
Ni 0.07148605423281801 5.089759592664855 1.3617148521415285 -0.044623809356961856 0.6838645899419835 0.9458381477001452
Ni 6.784465632278467 2.2272776000780277 7.040689871331334 0.02855312904734437 0.26484059489331163 0.194947983667232
Ni 3.6320045822584004 4.702633990838096 0.6581829004534872 0.5155547776875702 0.2765475989175947 -0.9892566238950962
Ni 6.034688200990955 5.779379560359687 4.736088478330426 -0.24454507786906915 0.20730701945321714 1.1228537152586726
Ni 5.113192704810895 3.3979929617427205 9.801221851035649 0.2722060341194473 -0.0902133250613027 -0.09316083772540085
P 0.1659378363725347 6.030032615796377 12.576090294559735 0.1371552410284799 -0.012660111966171747 0.794381916667961
P 4.201921238862065 6.444397955310625 12.684658541297287 0.192906527757171 -0.30551544690485444 -0.059376542186104206
P 2.5235006188310534 8.789708332968825 1.542150728525883 0.2797504221256085 1.4243806098294243 1.1686628031729873
P 6.470916533722876 8.24689448507634 6.033178330812164 0.8350205161249296 -0.25118803710688353 -0.32936062895356827
P 4.815399567129502 1.3549852493857586 12.72381931566242 0.4592381053737123 0.11282720580607665 -0.12497232580904284
P 4.0457491770800385 6.758193526023576 8.553619956312428 0.2393031127438395 0.342854549674945 0.28290413726324176
P 4.9518355991258876 1.4108340145238483 3.8770663711623867 -1.0257197518181367 -0.22260508326286824 0.021348383768789038
P 0.14652678469067235 5.712256976171983 3.6310305608069076 0.7704814559012796 0.08180890304769137 0.15913663039557754
Ni 0.7903284911921251 7.799291918712177 2.7272509355819787 0.8006042434285889 -0.32207720791827754 0.18792835781628925
Ni 1.4653317470956684 6.99694288911962 4.915548507543602 1.900770287281759 -0.7369144185791114 -0.7546812556442293
Ni 6.062092253450017 6.119428980130688 9.487287525626702 -0.6151153482917276 -0.6020302329729954 -0.7064180497624672
Ni 8.870770286945 2.8233659483539544 10.282779152085599 0.47934927430129054 0.9060166448278333 0.3134997506619117
Ni 2.4675970821024396 5.6857840407518365 7.310507506292526 -0.2810801966806256 0.36334598476007746 -0.16185428643705674
Ni 0.492350042962791 0.7190560461623523 9.56387007635782 0.6581980384138149 -1.7505538421939464 0.10060829514238157
Ni 1.6037486849493552 1.3482483437512522 11.6863394993878 -0.9625487755866068 0.9731196091239175 1.6079262651969857
Ni 4.30962044302996 7.216321366366854 1.4516854053165036 -0.6947722379934228 -0.35131373618589173 0.7064273057338479
Ni 6.038677398500818 8.254443835970292 8.166282571002307 -1.0657292023315388 0.1240171609846251 0.9098938683950524
Ni 7.035721175210925 1.0181399676604381 4.7808058305542644 0.08703004223731463 -0.8162779454101038 3.391265786462385
Ni 1.0207324896119285 7.607134921955591 7.0687730915129 -0.3349610058594812 0.64097293278478 1.001898738139139
Ni 4.915312076844506 5.0656509642356795 7.42146744581631 1.6786701686797667 0.5007436808166666 -0.7753297851325163
Ni 8.691703700323757 7.575860343766134 9.193353959357598 -1.9532624436432036 -0.06777247955928327 0.40493589238672195
Ni 5.1541527259247575 0.9117306344493936 10.502574806280657 -1.655597860241336 -0.6788879626629986 0.7720446866233414
Ni 8.278662007580516 7.477937868506853 4.572420924385129 -1.0060718956802222 0.1722942508234581 1.848868970426777
Ni 7.341310135943631 6.478109869278419 7.195378535869991 0.03347293494646494 -0.6546985099009885 -0.7811854725823448
Ni 2.3768222994065966 5.534997852038046 2.8354184368488577 -0.7754524267533097 0.6616931960512669 -0.5853255186238049
Ni 3.213750459816917 5.005310928674585 9.642203492266034 0.8326445596935853 -0.3077335376020958 -0.3208749600800603
Ni 1.3456375646029206 3.633529058194664 3.989095269561239 -0.26041881167653214 0.07597121331999174 0.40381283452587224
Ni 0.6104649779287509 0.32581976055275025 0.6671280140459707 0.14089979567257668 0.39103316626270074 -0.30024957052022483
Ni 1.123493122034203 3.7970313845085455 8.242103796625136 1.144540713313803 -0.9623196902949362 0.24758129359223166
Ni 5.526179625963611 3.254692223733938 4.920411311922331 -0.028747247336021457 -0.12837106707794668 0.14021999599673268
Ni 4.267628890294554 7.38014319362546 6.44739761275168 -0.015267981902664029 -0.005594463368641978 -0.9368799100655929
Ni 8.398082332120643 7.485222490046603 0.5606319591499291 -0.4591185490767125 0.28593392522850114 -0.21564819232906085
P 0.24975388849224675 5.816176940593691 8.039810404182159 0.9697609770643298 1.6285843077669695 0.37575824238150124
P 8.747077778343968 1.8804456316804172 8.038153563568796 0.6216886306338713 2.202029787123737 -0.034544827854405026
P 1.7573282247798916 3.8872949656928264 10.799661390444287 0.4996977560506556 -2.204040132685546 -1.9561811599518955
P 4.089000476397506 6.583773395998489 3.7078139407032813 0.6331794048822902 0.2927468343852765 0.768384978383567
P 6.952139728070626 4.368527288638997 10.641699210511952 1.2442329243998183 -0.3078602929879472 -0.854380151598464
P 6.7579196680709535 8.24430196312485 10.34294209283733 -0.7704374900372215 0.494823972898122 -0.23273985770402497
P 2.5532507210842463 8.789379703425679 5.8588750468468636 0.5629998585434111 -0.022649104858083576 0.9034614825061472
P 6.9297381475461295 4.163635897085479 1.8748963567004489 0.985949156788418 0.17259506989332857 -0.3248658264070083
Ni 2.59484974408756 1.9158372077576276 0.82996486553498 1.1341588558588467 -1.095855589403274 -1.2123877548647637
Ni 1.797603601012198 1.4315650615373496 7.173708156078995 -0.10131946227679325 -0.2163251637914274 0.5472153420156447
Ni 7.11666445740763 1.0132652961037627 9.340574517528246 0.5582667147337999 0.7776360646681898 -0.16268912363352628
Ni 2.573132808444619 2.004713241981956 9.514530001893718 0.6387512425431128 0.21856819418933326 0.9137186414577811
Ni 6.7339936116101935 1.8212375423234948 2.7774335796803147 -0.9588677271905938 2.3977136205157286 -2.1655628025459546
Ni 4.316393863058149 7.637323196932979 10.721101585295237 -0.5302116083687965 -0.45653921838531053 -0.8673164000441579
Ni 7.457900594973327 6.5500067104401705 11.306577025047211 0.930393788120617 -1.0579526437099134 2.028436872093513
Ni 8.042541680829645 4.275397327550604 8.409606274766984 -3.108428497881337 -0.8688158674078198 -0.031199822641572072
Ni 3.464613473017284 8.685404967413445 12.90979898986769 -0.42939273987750565 0.358094506553151 -0.9524253139993597
Ni 0.18595867842890254 5.386694642094698 10.39742704537136 -0.26153878421358834 -0.5807294146126902 -0.5243698048760389
Ni 0.09036764720627743 2.618949243918315 5.925450827989165 -0.09433274654631496 -0.08333228167075327 0.22373739709509854
Ni 3.5005345078028975 2.992308919326597 11.899040406890263 0.19898538696139925 0.25659121040032584 0.05000615671479775
Ni 1.0853173234386666 3.842720019604351 12.826736047117688 -0.6352056912836995 -0.7496827739883734 -0.09525988634627465
Ni 3.4731943555327796 9.055761333941305 8.341132658013011 -0.5341441106539833 -0.9898952859203598 0.7428570093157917
Ni 5.963339075734448 8.15516119954632 3.804424636369503 -1.6328636518686135 0.05163726456031753 0.7601085973073877
Ni 3.3922328161392334 8.882135391978823 3.688801808772405 0.5208705334735287 -1.9096408502985114 -0.8481380273434942
Ni 3.5820072487080057 3.323740942188418 7.822861046974686 -0.33893207469208725 -1.0306161606784896 -0.6165831910865058
Ni 5.429325196719555 4.526853699648319 12.109804225807842 -1.1813861642769268 0.40898332298321827 0.30039200963536006
Ni 8.037749166658756 9.074228488546463 2.7605730583972075 0.6007451956129848 -0.3562327707540639 -0.5129001136735424
Ni 4.906840737510058 0.45481507197639065 1.4981673156150719 -0.7123974072743537 0.8693097763251028 0.4624650969514423
Ni 6.3227046097637345 6.094361848867335 0.5332041723349725 -0.453281116459329 -1.245997472499409 0.6634191776034382
Ni 8.119440993925963 0.24740966441780063 11.767398714784449 1.1468446788566313 -1.8651435392170845 -1.0227544985422257
Ni -0.013221861952600385 5.13447146772964 5.8379787722019465 0.10139685248194794 0.16238779034302356 0.7813567080528866
Ni 7.354199716913715 6.419988083133565 2.7615479927085427 0.17892769697957572 -2.0476988056469185 -0.8343139769762082
P 8.881222532136748 1.7092844112915346 3.806014838214396 -1.6407332844246774 0.8759956729857107 1.6283778481831181
P 1.8924953815957943 3.7642414589812456 1.4496944580009403 -0.5298696516483454 0.4069565223611766 2.1202571366306198
P 4.934399976142274 1.6239228874591913 8.391074307113039 0.3517225415885362 1.0774439196653058 1.3909549831811272
P 8.829518150681675 2.0284110834821982 12.832307230733866 -0.43841165554666434 0.20237924313429662 -0.013495206272957404
P 6.38971765077039 8.03051931670953 1.7049492399015251 1.021043686498706 0.115179250978021 -2.170645359275184
P 2.152267906854804 3.8423092326754174 6.234588987787854 -0.8609225807026721 -1.6730291683439058 -1.0926090574415184
P 6.969675765636869 4.297881065460888 6.300964852624742 -0.18011451819882526 0.6258090805601481 -0.4177872944280934
P 2.533423405314398 9.0534700557377 10.504832308670109 0.8653379361615483 -0.24000450968623827 -0.8049375806966202
