# total energy = -340895.3779860821 ev
CRYSTAL
PRIMVEC
9.04448270862258 0.00000000000000 0.00000000000000
0.00000000000000 9.04448270862258 0.00000000000000
0.00000000000000 0.00000000000000 13.23751467439784
PRIMCOORD
 96 1
Ni 6.4721593414695 1.8798776045648256 11.237815668409507 -0.17448560204782207 1.2127412815494405 0.7748798420792913
Ni 4.491996514629672 0.4069564913657785 6.062979716298239 0.1150607231222857 -1.1816874975674294 0.1715488880170013
Ni 2.67998870695803 1.4653599258052967 4.884034132064839 -0.031193909104301115 0.8019862113777801 0.08745864513430099
Ni 3.411642121093704 4.266427120371143 4.9284063633492154 -0.6362125352816591 0.5695011499970386 -0.5115662253534673
Ni 4.939788844611218 4.667332852925416 2.7970469220819676 1.0979947472334637 -1.2129595682078338 -1.1562662292808474
Ni 7.30532802750404 6.016435000310539 2.608240635956664 -0.11913669296387225 -0.0819459428461879 -0.5278999295164845
Ni 4.997058507981107 4.740556983475417 11.357694857634055 -0.27195252334774456 -0.23219092717909046 0.3537118041044231
Ni 5.84590128223738 7.560355301357599 12.196225112911435 -1.4241350694775217 1.2474681435076644 1.6551679717927688
Ni 1.8909390066970702 6.33967576139336 0.4329394807733929 0.28022890442392384 0.4314758476587795 -0.48953907035009886
Ni 2.7666619830277766 1.4327907442204948 0.3830926242145704 -0.2022404035635872 0.7141701829040604 0.6944259103975976
Ni 0.634928100183853 9.100196540784346 4.682996087768114 -0.6194067765782301 0.017963012236323902 0.1619293626493663
Ni 8.911600991101954 2.257584239433728 1.2863596676372946 -0.8851881381182561 -0.0682879857431211 0.5265747829471576
Ni 6.8802373486688015 0.8105764731268267 4.673994114307589 -0.6226710491517986 -0.6516278413954648 0.06612903041858934
Ni 0.7368232403489128 7.344671526502622 2.4395682723878527 -0.284654030074813 0.021995530434484697 0.2037630108557007
Ni 7.508168637168677 3.7223381849096215 3.818360742568985 -0.1718175682973557 0.48068599083484315 0.06256728120925999
Ni 7.7618573276080305 3.863775802688887 12.600128186975624 -0.9872197959707255 -0.9831633665131647 0.03517346257733942
Ni 7.982235188895253 8.840791737387038 6.68892935867614 -0.43553304844728863 0.7693769099831911 0.5309860246409759
Ni 7.01414995698443 0.7312853036967677 0.5524876419374019 -0.4294341346384024 -1.1010371336042133 -1.6934072177796256
Ni 1.6989879539966386 6.671807248801608 9.162914600429348 1.5592635098839596 0.0369817194306718 0.4041169960298524
Ni 0.21821984775594364 4.666193248126836 1.5171649128315199 -0.9720783123435968 0.7252914896282024 -0.30079310172852064
Ni 6.422034819297055 1.818592190952324 6.900120739059256 0.8595961485817647 1.0400731923263313 -0.010323493413195124
Ni 3.5391693247442757 4.229733654753386 0.2931172075737014 -0.41547253025198766 -0.21592432880858298 0.5148369256849391
Ni 6.028925430682272 5.749459965036952 4.72511714735117 0.3568822314126047 -0.38481726725997595 0.8090377189079226
Ni 5.422854656453562 3.040736937086165 8.978953443594515 -0.007332786215987371 -0.1339490753863564 0.32168562890681374
P 0.1360498195370919 5.521276715327711 12.507068601792568 0.7396498152324036 -0.015798914705469565 0.285173907134025
P 4.0034045239624705 6.224340520191085 12.719927784753922 -0.27237984069315024 -0.09144745457871993 -0.6412580681253666
P 2.281977208812848 8.40880916286515 1.4833430704165331 2.168623186638833 0.21755903619852857 -0.8910883056527751
P 6.192449674795912 7.798351814610163 5.815001712127322 0.2223520867117977 0.48463237707710083 -0.27372092810207704
P 4.64274090493067 0.8951279135954087 12.636465299981761 1.1326825284236361 -0.15493236250624284 -0.869533976520767
P 4.00608169079088 6.185223133255714 8.312020537535632 -1.5246142952412065 -0.489789238687692 0.44408942265773194
P 4.615661724240613 0.9472105662352539 3.899056520135706 0.657140800793894 -0.1447083707853895 -0.8977207233676281
P 0.24135653851186759 5.640998530556266 3.51659881859463 -0.43545900067624355 -1.0035429586107814 1.2941678615570484
Ni 1.655022724426041 1.1345941552588388 2.7290722091914543 -0.7253619378548217 0.3687013355347199 -0.6921584545196595
Ni 1.600918629941096 6.572815387528167 5.019638963061533 1.2727230614197111 -0.932702895869768 -1.7819092165767765
Ni 5.918953567619342 5.692371191317632 9.174775534817105 0.3219669075926584 -0.6425037676070096 0.26383452222630044
Ni 8.665111708755216 2.374565576456175 10.184970068483695 0.24777849720470227 0.40217118515739125 0.3643080915630306
Ni 2.4765421169639903 5.239351150434664 7.025320797355268 -1.4163826792256122 -0.3448625812439093 0.6578380839712348
Ni 0.3419348020207909 -0.054280461894248684 9.311413245718542 0.4143052494167639 0.39422699060965005 -0.3951813841031194
Ni 1.579989697370357 1.1004964561267356 11.521932711419186 -0.8536476443078137 1.5864999770024097 -0.11797224034212586
Ni 4.228756850640318 6.821068343967947 1.6771798977241381 -0.7806622530890233 0.43045717658627797 -0.363449085996845
Ni 5.435254642000011 7.776138565520389 8.023998991418436 0.5247636978803479 1.3930578884567426 -0.1348366201976323
Ni 5.195792922577844 2.879229612576359 4.815198384437621 1.0961170705947767 -0.5094525214445742 0.18354925491198712
Ni 0.650878045122703 7.3627785805244965 6.930593409593974 -0.4622324121153459 -0.4180030099833253 1.5067248165552953
Ni 5.101413747393893 4.783916232716611 6.866259100921145 -0.975197574698869 -0.7837218658509535 0.5993747976280194
Ni 8.11763109234554 7.024080798800624 9.102286720696663 0.2961291205939481 0.14714757635450143 -0.21428807875674064
Ni 4.851496606168887 0.29457517815728096 10.410073671892011 -0.9427947328881311 0.8272516708127882 0.07224337084644333
Ni 8.121547353280341 7.236192003056879 4.682334031647034 -0.34814716553245206 0.013520403083938004 0.17093439436145402
Ni 7.057093160029318 6.1915994934382415 6.978473091202867 1.3656501858677512 -0.1641932189828785 -0.06727677086978735
Ni 2.4135292071885623 5.2588781882135 2.6148060258240364 0.15526069237993906 -0.14824260919089308 0.4620115543537914
Ni 2.4464420791094437 5.310196582079694 11.30956283496262 -0.49045104064140693 0.28020113650978196 0.9130180158463309
Ni 0.9771749368518741 3.536347446195412 3.7533779444988697 0.3334193724039742 -0.5528303742095769 0.49597531289374586
Ni 3.726308712739593 2.5905025968219477 2.7137834159254313 0.00732198758270997 0.12813066893236644 -0.30450988845847554
Ni 1.1860210829153743 3.533082388002656 8.276305684927449 -0.39809855774991443 -0.9103306988221548 -0.18369657912312878
Ni 3.6467896223498184 2.7936507188925503 7.133881721143767 -0.12311984598133634 -0.042424744823114036 -0.6256126482786257
Ni 3.9023324317074963 6.856188069625761 6.219725120756836 0.9119468942693392 1.0731452922899518 -1.4868221640940975
Ni 0.5056661647843325 7.319573087486285 11.350321795476896 0.641398707468289 -0.2995677139618518 0.3290554390083236
P 0.2686003287839422 5.492840862258393 8.113087144323268 -0.4973570237326209 0.26182211978196196 -2.1606872196212077
P 8.639235444241436 1.5685303380068623 8.10616359294777 -0.6933164793835027 0.7095334554629974 -1.122866313664163
P 1.8094843970462156 3.300548742197252 10.615705408864915 0.47665141575415326 -0.5889458889852114 -0.5876834773330201
P 4.031976044269716 6.12787206954307 3.9775418261724838 -1.2546050116627618 1.2799396337728086 -0.2968575141195403
P 6.813516201056725 4.02336569690267 10.345408335158643 1.1576646522902707 -0.8717921764273243 0.5213019645839925
P 6.398383497485265 7.6697935399513515 10.131252173402713 -0.8935851039326999 0.1043065699295752 -0.21623183274667276
P 2.291935184076627 8.374982798208901 5.985699135334245 0.5630412533043078 1.9757868499979652 0.22288353373523548
P 6.891868553200336 3.8529586015849095 1.6235940520880712 0.10383940048516956 0.8667913807786233 -0.36886948568146793
Ni 5.433111099640778 2.7006915274655587 0.3194891097300374 -0.027404360154881836 0.6811333070537495 0.060295454455947764
Ni 1.5543214559547311 1.2550304846071376 7.090714214932174 -0.5806288844790839 -0.20548179331902028 -0.23244032418573518
Ni 6.839455776948204 0.5555193524809247 9.107542469493922 0.7763715961334693 0.5198865722937047 -0.6190995297504563
Ni 2.7839640781046238 1.8187821250854204 9.206558750870188 0.162958575244829 -0.695804278802363 0.7148088449293237
Ni 6.446852879355011 1.8859916747540302 2.4890895275756524 -0.3957287719661572 0.4135673428094748 0.698467684567139
Ni 4.108754656453383 7.162063424254036 10.35692557921032 -0.905356642646331 -1.347364757295002 -0.11152031406919502
Ni 8.186124958533185 7.154520325825343 0.3737994184166298 -0.4608306466718128 0.036821282593407556 -0.014949165110664577
Ni 7.681632767581039 3.9376059135682926 8.199091128685913 0.026760813033611976 -0.556349443106429 -0.28770850063042064
Ni 3.033094349349659 8.337014060554639 12.365069321648287 0.5383766606780921 -0.7646357957537799 0.7612463104562567
Ni 0.20640232688432397 4.928736486961502 10.147679667019062 -0.490363108913291 -0.872193525630801 1.6368763725724327
Ni 8.552923947472825 2.3704141589756347 5.737443465549706 0.8069515258028553 0.07501630560589016 0.34816079237920683
Ni 3.912679319719996 2.5100790581793317 11.370336330864012 -0.5156018288754217 0.5478020677570501 0.032340106893602366
Ni 1.1013737709319913 3.413812796900522 12.792495285872363 0.9409425101707407 0.0958430125432543 -1.2249565926687096
Ni 3.091042348909178 8.580952798828365 8.282487588735616 -0.06491341284393337 -0.11843375335957666 -0.3183622209605356
Ni 5.6049110452679125 7.815690087617123 3.513275875713693 -0.24064625703529524 1.004494266780457 0.7587626248024545
Ni 2.8729165637715295 8.165015136311876 3.558495575010981 1.2752985354563715 -0.025235377528021054 0.7412495556193557
Ni 3.4068666343187037 4.260105027083784 9.324187672841667 0.029249383783420593 0.5238800097238138 -0.35227275766505134
Ni 7.275463146195233 5.957546374568065 11.38800834527627 0.6117374329584303 -0.37113951266256723 -0.3194459409430176
Ni 0.6110886531354717 0.07635894819434874 0.4500552595101547 -0.8736073752591923 -0.4159116746719353 -0.6899593899858117
Ni 4.676250712698427 0.359782279394101 1.611243811195528 -0.2638098396359521 -0.4847671028827522 0.2303471891021323
Ni 5.964004135093349 5.554017742080554 0.4436535747765466 0.23890279198162728 -0.2941748250810547 -0.018577248781555106
Ni 7.788565684514424 8.864524459541585 11.319663713050346 0.5227831771152093 0.0653795538470745 0.5559012998254169
Ni -0.038019386756421525 4.935384181619884 5.773568033216426 -0.27863559179487496 -0.4400908430213001 0.4943254359951486
Ni 7.945378922591985 8.737368079674678 2.567217576552558 -0.309879380300505 0.531671994964407 0.3743317943476199
P 8.539266778854927 1.739760481234708 3.4284503874245 0.11415723747140985 -1.0155361264169156 1.1536077086120777
P 1.890161181199627 3.173130072337021 1.6661402023499616 0.9674253869526177 0.20549130640071708 -0.360025919247909
P 4.83054958463309 1.1379044358642365 8.13312881315797 -1.0753757242823674 -0.786432322803581 1.2163503390569375
P 8.553077703675807 1.5853530755097036 12.381655998157138 -0.42409986690968254 0.6468383904266216 0.015786059189663134
P 6.275713180952449 7.745106945965416 1.3968353083770564 0.5762009306147173 -0.17824712597278333 -0.35905584202515584
P 1.7387113212614125 3.403692020951232 5.988717279153975 -0.3983762368913333 -1.402941466119042 0.061651711373526076
P 6.86170520396809 3.9882097933147427 6.035432935861462 0.7885863930321064 -0.4528630550853039 -0.572977024360781
P 2.1186700322798893 8.488997544962027 10.384208260757266 1.6266798916554048 -0.5774327461392893 -1.149611442968491
