# total energy = -340886.07032665255 ev
CRYSTAL
PRIMVEC
9.11614329050460 0.00000000000000 0.00000000000000
0.00000000000000 9.11614329050460 0.00000000000000
0.00000000000000 0.00000000000000 13.34239717954085
PRIMCOORD
 96 1
Ni 5.344448331109718 2.8716033329743764 9.371979530515052 -0.21593949831723455 1.472975230908676 -0.5598165757194229
Ni 4.688614758685282 0.3531566518257898 6.1299909467250755 -0.7051749213839855 0.5932918246587331 -0.4966229737800737
Ni 2.389760469222103 1.9404440043246067 4.960169166478377 1.4124175239302772 -0.6031666605702838 -0.6198052975682293
Ni 4.058187877294551 3.1680238445107944 2.474881544521037 -1.0995219825112676 -1.6360348505077436 0.7016301414555207
Ni 5.2382908438160305 3.1744689577367833 0.42132443565885275 0.37629765982473906 -1.0168121649158617 -0.3165660482920613
Ni 5.0869355186518295 5.067746037264691 2.8897763643973016 0.7991397430679205 1.3851116370264727 0.051281166772479424
Ni 5.27075342966857 4.817954598077541 11.66585822903234 -0.4606920642114195 0.22221916067835923 -0.188269800316108
Ni 5.759943904821333 7.962549954623992 12.71007414213199 -0.8917714477627288 0.9801778015222797 0.3989017703775001
Ni 1.968394099304637 5.501346271325406 11.766539649119734 2.8960569194210186 0.11602257281492276 0.34122961247701233
Ni 0.8142785221372255 7.935274454239044 11.839015722218146 0.6635559602916185 -1.1831627965613754 -0.22483397259338697
Ni 7.684999859463524 -0.005440514247906704 6.834416297124742 1.1644369380170978 0.11080297628719626 0.8386552846640396
Ni 8.67936140875796 2.7266748887498102 1.581688217359634 -1.2322194448787103 -0.9028950684797159 0.4447077729680212
Ni 1.3357428789787698 1.343710388115282 2.7278663686630167 -0.4541270093993921 2.4207309073465084 1.5240658789369042
Ni 1.6742526235624153 6.773130289775836 0.7307618880374057 0.7149433136246591 0.9399156115681232 -0.15297523877987204
Ni 7.71398007862253 4.109229162941383 3.8547383519465988 0.29112858205556313 -1.9657891153553047 -0.3038030921994381
Ni 7.534565264760179 4.313713370539901 12.7196141859665 1.1082555057295238 -0.7455294139416323 -0.540100071127102
Ni 6.876215636818948 0.9613064141354053 9.27626185038742 0.6470407362454147 -0.0988090371501137 -0.033007565274272184
Ni 7.003531692425961 0.901292108759661 0.6718615753578647 -0.45617643572925315 -0.29809498607106727 -1.0705399934566209
Ni 2.034723157058942 6.688869778392791 9.343573628376182 -1.5414740471110226 -0.10368641984707304 0.48164038432831247
Ni 0.4319383611595863 4.923136658051314 1.5249156124975554 -0.7758185518434767 1.0536902688891339 0.6409418224365284
Ni 6.497512816968847 2.0463371234661687 7.083612452162449 -0.7385802363173086 0.7944323102899221 -0.13720614887107338
Ni 3.1061161161972315 4.4601095138159295 0.45664219755436236 1.074495378559943 1.0847877616248864 -0.5360271866093091
Ni 5.925037257752954 5.865271823085935 5.0713250350758985 0.38521090315396883 -0.48128197254762917 -0.10112380132621938
Ni 6.201083189289252 2.216553748863143 11.343946246330672 2.247352422319936 0.4374721744515304 1.6644815358842109
P 0.14939626599550915 5.814084679148274 12.75050150227809 -0.9484133646264894 0.15227152784462808 2.0463842006005533
P 3.90379687645248 6.396624460431341 12.682054764463818 -0.12435808926381163 -1.034384112361354 2.525379691106851
P 2.053748547868897 8.807069458521573 1.8643196507268438 2.4441935092448226 -3.1736774396878182 -1.5065101294413281
P 6.254658762739232 7.88968462221193 5.784129032669351 -0.9104530833326321 0.714681318212524 -0.07072770553286528
P 4.958944868449734 1.097228108901305 12.726404801018889 -0.8808779407786764 0.09472509688872718 1.5308553910549119
P 3.9125757223317263 6.397855139760207 8.466551427596082 2.149512433951311 -0.208880277477608 0.502228235781993
P 4.436562515990288 1.4883562319013672 4.034767593859066 0.49150930670259224 -0.4538171914684571 -0.08114324443923446
P -0.052022182652654826 5.644214467192017 4.0383301826125555 2.546734502633543 0.7187575451644267 -0.18133373531790706
Ni 0.40917352841851284 0.3399418906767188 4.9081743322552525 0.43044097863636194 -1.4366378299302227 0.03688041796611713
Ni 1.9647658743202754 6.555008331984845 5.139665114015003 -1.6843098834640478 -0.5973788502439131 0.231014390372486
Ni 8.314551591109282 7.845170495079678 9.310337993582252 -0.6136526477032721 -1.0292719879457695 -0.6149453983727666
Ni 8.76828938544752 2.723037547622272 10.540880580300895 0.08701230162550176 0.042332442219623866 -0.333399060689
Ni 3.805324297856823 4.303202457457066 5.204549263075787 -0.9014670777839378 0.7510351742512098 -0.9702011499255421
Ni 1.7279284745873393 1.2889223676227899 7.1386356691489015 -0.029387966243813908 0.10989897641568815 1.0368521142858724
Ni 1.700169818614022 1.2825592996853925 11.695224972662043 -0.40686164865452507 0.6510246605938271 -0.7185626555448013
Ni 4.003363392229352 7.273014000874972 1.397642402763474 0.25585793177872707 -0.2219993313580693 0.48825943230672686
Ni 5.761840062602106 8.1019631322266 8.163478866383562 -1.2485364368711789 0.6499288564264871 0.5924505597043603
Ni 6.91340950098024 0.9775513812764404 4.803676894634057 -0.8733777757468892 -0.6726586939238351 0.37567596708034007
Ni 0.3407541390337706 7.458946857108727 6.946986079528983 1.1292560192405907 0.3269103676408628 0.09565095113710624
Ni 5.529487805312149 4.816514247455609 7.426591841745673 -0.7951650746908886 0.13927485847464402 0.3267859262478566
Ni 0.8142247368924824 0.3817229980845707 9.540467735165707 -0.027732432918261912 -0.10864376385234836 -0.09990561264840213
Ni 4.4526160441246105 0.5996589865547558 10.602242251638167 0.3054575970837255 -0.5586192129772121 0.1627058358040746
Ni 8.048177887483556 7.305102824857263 4.738872967633228 -0.3109034506896452 0.917081387282427 1.3000500313694385
Ni 7.210878368981989 6.646689383913795 7.375650833673785 1.0506609951445067 -2.2339911705216817 -0.9350318011132608
Ni 2.6113921421361574 5.485493298340973 2.772123420557684 -0.3682341660903142 0.12244236029833751 -0.21822212370382418
Ni 3.5098974459266743 4.4243924648492765 9.480533651849917 0.2979957414890416 0.7156207993076578 0.4441418731622222
Ni 1.2371062098059304 3.8200104045146275 3.9553805726183313 -0.9952830325948342 0.07189935724346326 0.6272362999249779
Ni 0.7133090319254463 0.6255661538488677 0.5258428404093554 -1.751950722541473 -0.24277641600442057 -1.1139083331399267
Ni 2.657528942753878 5.292559244147445 7.1184625559129895 -0.8457242756956791 -0.24289211564667848 0.448782200147711
Ni 5.804011340937924 3.284974845325799 4.651987007015268 -1.4261317881925761 -1.0306339012903025 1.0816952387424918
Ni 4.1387107699751144 7.014808361535646 6.375357410014214 0.2961772002230641 0.9391946742416988 -0.09817834554465028
Ni 0.7154185074565548 7.583446024474112 3.187765764174445 0.516228149605511 -0.8537396898009878 -1.1089124225872322
P 8.974815609117638 5.834650698155107 8.497132441496934 0.3205180909612738 1.2210107206470842 -0.6538027375595966
P 8.864619670396632 1.564129613986824 8.06817414754184 -1.4488896507143822 0.27495274362664907 0.8114080189123123
P 1.779097386238647 3.6157632166387064 10.717614336454954 0.6857070424673609 -1.364675480659308 0.3511479000319888
P 3.83404926500688 6.417044621147345 4.240347561867434 1.8022232455437799 -0.21281637930722058 -1.1863681908725503
P 7.009448069347695 4.301926197412315 10.410151440688493 0.019093783406657436 -1.7273784325187478 2.6207933294221704
P 6.317724241236246 8.206507062178 10.356301471328893 0.26407826280599034 -0.10772253758965963 0.8891733480182492
P 2.1962794464379676 8.497366726376576 6.232059843803976 0.29038938989669344 -0.1574003644307612 -0.24009141297308972
P 6.895952086796692 4.021942092023645 1.4709726584775515 0.21768502025343153 0.335312475661629 1.5072842886031912
Ni 2.7322630845171814 1.794011396475871 0.4807762750005893 2.0475447965675575 0.06935807887884829 1.0882566940100935
Ni 1.1954272032016586 4.100003626046474 8.664485686322077 -0.583042379016583 -0.6857111562324191 -0.14998504580329655
Ni 8.140269165855463 0.028297420035065683 11.324132309135925 -1.1478710632386164 0.7937509679521814 0.22782622245249154
Ni 2.701623727299999 1.8547431423196286 9.426590697829914 0.3366167962953493 1.1711737425202993 -0.08383416100783626
Ni 6.211521173226673 1.961529643492516 2.72191535039721 1.3838741650749458 0.7720752827509606 -0.6399038680903172
Ni 4.152312055594881 7.241134848185746 10.831598032665914 1.4587883978853329 -0.9140670259361355 -1.975975054749371
Ni 7.4175777993724665 6.650828112916058 11.69251656652422 -0.2374927990079781 0.2592970393672631 0.66250720731213
Ni 7.638379903257433 3.887925671181693 8.505858413745754 0.9705855298481543 -0.4268049245456715 -1.5297922398977204
Ni 3.0345543922594502 8.6219297067442 12.793918045771857 0.9566267536752171 -0.000976247870340254 0.27393227278193466
Ni 9.144494382067181 5.587575869634638 10.648019876214724 -0.6505682897826989 -1.557824206334272 -2.22720654349968
Ni 8.72936345408264 2.2655803668679053 5.940715200788392 0.19808987173032336 1.8897975903203392 0.6376628945749405
Ni 3.899776657311517 2.8646477157304875 11.806513936949946 -1.7758491264256255 -0.027103541085011385 -0.9962086297328971
Ni 1.0610005559167521 3.28724476497682 13.179313026328039 -0.8129805056057547 0.08409255687554551 -2.0120489176537926
Ni 3.437159739519088 8.705597668820754 8.479640385969313 -2.0324925302201255 -1.1938141056276341 -0.43169413431717263
Ni 5.362826475754122 8.061013417076472 3.467195608057967 0.4188404182829561 -0.5124879658367884 1.2589067243619092
Ni 2.804699958199934 8.530768274976326 4.009590629633415 1.1906318512449108 1.010604236332937 0.03291809088425944
Ni 3.867778994760993 3.1004458751412693 7.23764974664926 -0.4266257186553298 -1.455449820430403 0.39650678778276227
Ni 6.280694467652136 6.056127396635156 9.739175954447411 -1.5200212765538854 1.3994789614917382 -2.456954922675549
Ni 7.879027850838266 8.856406025394348 2.8976080430004796 -0.2504876686057492 0.981208299669323 -0.671706871533527
Ni 4.576814378765161 0.5094137271761491 1.831070341718147 -0.9143310782307995 0.3730747820120671 -0.7784927562415302
Ni 5.7965543358193115 5.678436468677678 0.5777428667434412 -0.10730524754658294 1.1274889000378387 -0.02541638319057558
Ni 8.492480473633819 7.599964475910451 0.395615088671677 -1.1887055807564755 0.3555933373978521 1.2842104932340206
Ni 0.1591870037673788 5.033934262221988 6.446992974711726 -0.6899851010174246 -0.7868889507250255 -1.0243845779464809
Ni 7.42920088192287 6.053410785968473 2.641567487665641 -0.7133883104327133 1.33310079117682 -1.337997200037173
P 8.517194337786089 1.951793602579707 3.694002515453484 -0.3806618503307057 -0.5493706977957507 -0.5033726337990816
P 1.9705546252375352 3.4095651741229527 1.9386772957769454 -0.3492360277212566 -0.750631768165204 -0.22043712907727198
P 4.6976670888598315 1.1960744493672104 8.322787114855192 0.8438489130498371 1.1083627207313491 -1.1186245076686736
P 8.372037989982104 1.7832999282431459 12.47616849404471 0.5962665910163408 0.9737685555618263 1.0960342810729833
P 6.4639927585078 7.976652628118482 1.5020204189090538 -0.41189355465147776 -0.8594071724994103 0.03890413326436525
P 1.716879709057073 3.4230479498814215 6.393289775257272 0.9112722367998176 0.11011109242649424 -0.024829143228537884
P 7.147530290046493 4.064614758234186 6.200585447871799 -0.26592200088294843 0.11500055930831161 -0.20638939273495424
P 2.490575896614194 8.4679033516292 10.603323426218935 -1.0719826394404182 1.938472686928539 -0.29084138983244745
