# total energy = -340852.4124365591 ev
CRYSTAL
PRIMVEC
9.42748733935166 0.00000000000000 0.00000000000000

0.00000000000000 9.42748733935166 0.00000000000000

0.00000000000000 0.00000000000000 13.79808066616055

PRIMCOORD
 96 1
Ni 8.489433398529538 3.892798028336339 11.549945514205277 -1.1423208228443489 -0.8537476602207876 -0.4894128291848797
Ni 1.8947269566429552 3.6496914150535984 4.579252026483886 0.5712338164174292 0.8587078324395404 -0.5597597543395585
Ni 1.9523666135867903 2.254215899819651 2.627209718457918 -0.16844428094974861 0.8395268886357155 -0.9824915372571207
Ni 7.794844421648455 4.547452169297551 6.433810345523588 -0.6603469664360175 -0.7192985052695612 0.8382004565148081
Ni 1.1989878263194216 3.7754823772062958 8.118639012662777 2.186777488950357 0.19871670668104485 -0.24324178567661334
Ni 6.483744917151721 8.562741539254965 1.3571292109128732 -0.03486493019798512 -0.5538714138795816 0.4120776456378258
Ni 1.3069608376013555 0.7370701771026418 12.226672231025601 -0.2742819428118695 2.4513391191506684 -1.6134196842113888
Ni 4.076766014205164 5.584824581978084 11.490365680388848 1.8277440155227036 -1.450095498097025 1.340196521681337
Ni 7.8926828841546905 9.499890335159261 3.534598765413146 -0.8005949874572083 2.247880012688632 -1.7494703793217805
Ni 9.069553825425006 4.742195773073933 9.352090904060638 -1.4467594917452566 0.49983505295946823 0.007178520026310218
Ni 5.618952085762299 0.8127050216772247 4.811101277261452 1.1900574667986794 2.992265028613176 2.5369365427065147
Ni 5.564781744120284 2.2551775035174386 11.165392653470374 0.8499586254920006 -0.5903556248485446 0.7993595723882103
Ni 2.35150756806636 0.40217283437376944 6.376644891187583 -0.17622521044674813 0.33877780850241007 -0.14076789808040271
Ni 8.800653607072206 9.556643808303175 5.50524056300151 1.586262664180623 -0.5552343556653793 1.4905029553797944
Ni 8.650520872883366 6.459572839885776 7.531861837031942 -0.20461147489892506 -0.44888401583289794 -2.554476608472807
Ni 2.921257759005299 7.9245760734646336 4.948957537575209 -2.262590065205297 1.3969819061014974 -4.179934969016285
Ni 5.5228577083942065 7.9023837685176614 11.737833449265672 -0.6743890463513805 -0.6583607892439243 -0.9775082251099165
Ni 3.7507352232191242 2.495983809915276 9.608927709749825 -0.6665464103785101 0.9243738071787823 0.06614831369229898
Ni 6.860834978992816 0.2755956197858226 6.978365576831777 -0.1583025645300564 -1.700056861885659 0.9253104600604388
Ni 9.300225583047144 2.164701908540339 4.187758649647895 -0.7034641093404659 0.25052880625632984 -0.18599206002552485
Ni 6.946106601017186 6.295562844489653 13.07951760784438 0.6205252064533894 -1.0558857338785557 0.22135861245027683
Ni 1.9184653694961735 0.37327004401419966 0.9737444158461641 -0.28415523606152354 1.2651251944677953 0.7269125701713932
Ni 3.173716439623382 3.011846483829197 6.450837330215485 -0.0712306133112128 -0.20641741775941225 0.6676733248941017
Ni 4.257830334006161 0.19096883788820565 10.455302059331729 -0.24296899163120095 1.362786234056395 -0.5202197872634072
P 3.992116606338188 1.1514261532278862 7.909004692801544 -0.32629741664721224 -0.28850477127947083 -0.8966259476415526
P 6.482406213964605 3.8470464327935794 8.169140176273627 1.341311866232703 -0.9950367209119831 -1.971756645792649
P 5.3012929034393474 9.023604252650347 3.4193854439361084 -0.2464199262942788 -4.651002462924758 -3.7109063599147123
P 7.23791561334668 8.31700465703416 12.971272142181407 1.7277684688683146 1.8316523494381747 0.0140464507907371
P 7.065769696468297 2.5232575304809477 3.5071826897902527 -0.07136585333749644 0.4617539298170305 0.7056714014044297
P 8.249145603929525 7.205447347315511 9.335132740025545 -3.1736298742793343 1.5060542728508322 -0.8010295038914657
P 3.402106745335084 7.503959303067815 12.425433829860776 -0.7076503795076716 -1.5648680005549307 -0.7216338382709572
P 9.28945939262682 1.0315933630065763 2.050947019338279 0.8890255095864754 3.995832669814306 0.8299878387970286
Ni 4.847529087930568 6.302350635297562 9.081165661450148 0.7431773687696878 0.8670433488884294 0.5092476045226197
Ni 8.524135979034977 6.572080472526883 1.8313780134306892 -0.8432557595505284 -2.40381947630315 0.01373123354316345
Ni 0.18888536320966665 6.899355691827705 10.65805148526655 1.367071234584994 -1.7985807636951865 6.034571695164774
Ni 7.475667413880958 2.094693388346535 6.013589529590564 2.492816926679481 1.7508911709287072 -1.9529852787224173
Ni 9.240021649575876 4.752113489643269 4.557698905171325 -0.6581437881371117 0.8692987205815094 -0.6497781897812357
Ni 3.3398664746214437 7.146930934058987 6.780431711375677 -0.281628870095244 -3.435734815409038 3.4611589119090973
Ni 4.193327466356551 6.7875268382673895 2.716069442123245 0.27764186042303796 -0.054485275532073905 1.1085121018250201
Ni 1.1792278130786171 5.423312870698761 6.407386984306352 0.6066186236746263 0.6830652339691398 -0.139962628570288
Ni 1.5899362943933333 4.5153232928067775 10.759729763322872 0.2481086268506114 -0.06653783582123379 -0.6561144164119087
Ni 6.670135767239482 5.14259058335552 4.06201671042881 0.029314432693401126 -0.6588768096483943 0.33203071958656366
Ni 5.788750558319611 0.46621752614384615 13.17941597631107 -0.43667667513342856 0.8799058066733942 0.010414510465104644
Ni 0.9098062546818226 2.3660636083544335 10.08445110854157 -0.28652964983097107 -0.3889737126305108 1.2145893905017726
Ni 9.2307167196767 7.593548714244993 3.9235259802242575 1.4208995932593593 -0.3886834350836016 0.532975801377495
Ni 8.689974906954342 9.074295851503308 10.454874994160063 0.14776772643700356 1.3988300150538295 0.14991871134173534
Ni 8.2210045545384 4.0624927985340875 2.508877784204135 0.8495035402324531 -0.23689064664760495 0.13350144632597655
Ni 6.390865312930154 7.047254111542276 6.929823445067988 -0.022670959234954505 1.1495147694896268 0.74852809155864
Ni 9.038933346891545 9.21129609597629 7.878262599682775 -0.23872358609128566 -2.1903148126796537 0.4914877094360375
Ni 4.086325486259637 7.450628007789557 0.6139858465345984 0.8051694942017682 1.0500935526768107 -0.8432639870806445
Ni 7.054353009428882 2.153379496373256 0.9942369448449889 2.0544458945627646 -0.704350111489845 1.15321638671093
Ni 3.1601220030330954 8.013119033558926 8.876540165555916 1.4521176707333767 1.3462311579111912 0.23479648312273757
Ni 5.83629337643668 4.3368232495332135 9.989078876695542 -1.1513147988128432 -0.5063165469187539 1.6497653127199587
Ni 5.149284099291098 5.103853038314267 7.059112004984206 -1.1824917386362797 -1.1025350583059788 -1.456295199149834
Ni 3.60232771919396 4.184031963944607 2.328164166928213 -1.1012335658857357 -0.12746835275801915 0.8391486793606902
Ni 1.567734561959128 0.3554850893487524 3.8782542437816687 -0.013557684079776651 -0.952943905506991 0.15739265112127732
P 1.2566180557760234 4.399223787529818 2.0963695955765993 -0.45949161614541506 -0.6545223893344405 -0.07613910635642371
P 1.9584944802883757 7.916751259061071 2.66424371655613 -0.03190070536333861 1.8344695071719956 -0.7502358182783659
P 3.946628980437958 1.017716101799294 0.8012148002373904 1.0590474194359891 0.3384965298165654 -0.4951183642100892
P 3.346286593427258 3.057918613937885 11.957637199605367 1.1347887761333617 0.2980170816452803 -0.8802896723753744
P 6.329360386220704 4.385582213503366 12.328363707564048 -0.6323779920269175 -0.8163483936367231 -1.1321487674073536
P 7.9149034715633615 1.6767540243239478 11.72235257248002 -0.3676896064407538 -0.45304817451291657 -0.4506459928293271
P 0.8193589421664229 2.6297032888311014 6.240540258001755 -0.5259582324090812 -0.35725427004004273 0.3507655769919056
P 3.199396914846641 5.316716272552876 5.4136628947668495 0.6576987301798931 0.36527122680724833 -0.37482390349268996
Ni 3.2848947965646067 0.2060933556564416 12.529581166823473 2.694071055070399 -0.21324626775578756 1.6941525805860822
Ni 7.047631211031605 0.9623390417914289 9.257256038986904 -0.5301830691237064 0.09475337902350134 0.3296532204933226
Ni 5.471789010051918 2.3789227009405294 6.728441004781981 -0.9558315114674314 -0.2555655973492889 3.3704439646210274
Ni 1.8185245773369332 6.042415957303544 3.435887317589116 0.3483042599356066 -1.90071243746063 0.8818135652190684
Ni 5.935536534540663 4.296445321713382 1.7261257749642593 1.1034699114154223 -2.062851859238273 1.9772639487641241
Ni 5.173701291225107 1.9007511209849752 2.499108079184361 -0.9075153408605467 -0.34067888217986486 -0.3662626441862402
Ni 8.962966654766353 4.009114365819662 0.26514242194164134 -0.6637505928009279 -1.3978583951691796 2.0772868037166807
Ni 0.9569653740685002 7.203835246998632 8.693908054628038 2.5747325305083657 0.1538131613001351 -1.6503255560988028
Ni 0.1517655749776326 8.452600205909393 12.637247784770327 -3.0647050888514573 -1.307927377234986 0.5705992681572237
Ni 4.447445384727678 4.978260053393467 0.3307124811460512 0.3287073116402855 1.1571481176651686 -2.0914774933947657
Ni 5.387403571827471 2.8385504135083632 13.528411183448481 -2.1165015262429296 -0.055203898865653314 -0.2717717747955061
Ni 7.2180896076952425 5.983060497683265 10.776769946496897 -0.005549211953003346 0.40369662066298223 -0.22980005834941067
Ni 9.269793654258347 1.4944358487209342 13.565514002203496 -2.0608255728368636 0.4891318076093512 1.5574010027539242
Ni 5.036606771879793 7.0696726761828454 5.006785744263708 0.30944872052098965 -1.454615497454566 -0.39320626265461955
Ni 9.14629357150332 8.609501875931677 1.5089164691111419 0.18125711644370077 -1.1992157362591798 -1.375241171990296
Ni 9.255935248025532 1.8968292862959606 8.195424953428535 -0.9432541890230529 1.113678733627624 -1.184274027347683
Ni 4.785005992599932 8.869266859155497 6.408960431925574 -0.5692324697166842 1.225325545972354 1.7394065673278754
Ni 5.143844439157537 3.1729905231064244 4.711712935854078 0.4573851113253735 2.262246308712633 -1.4650297508093542
Ni 2.3417972562161555 5.684086595056534 13.859481909109395 -1.3262032927260385 -1.5870571350574603 -0.5223679439546617
Ni 1.2975993427787798 3.1369398119266365 12.45899097066738 -0.14298058946100536 -1.1787284149391055 1.653588286010475
Ni 2.0001074089357567 0.5908951020543015 8.803381921877497 -0.7833220593093735 1.0866176157447738 -0.34632759582521
Ni 2.4467817540451624 6.4836977797155555 10.418764889810706 0.32855458811250515 2.062508102745609 -0.7105246157316731
Ni 1.592670265690964 7.7310109055924014 0.3529990609653554 0.8375401972229898 -1.1151548039525183 0.44129411930078194
Ni 6.904446534933638 7.4868672687140085 3.612986436259826 -0.8104572249632687 -1.056661949922948 -0.6317290455890088
P 3.5449708868671217 1.9082742557970755 4.179204147732482 -1.6578681443327514 -0.4433846832812235 0.12018647438462526
P 6.40396009269708 6.21533492813505 1.2838785778595683 -0.4640532673741686 1.743611349437842 1.8871645235728658
P 1.0196487366821017 7.928479053179181 6.663755243880046 0.4108689700417053 0.590094657877674 -1.1383299565174008
P 1.8020170471915857 8.960798332702716 10.622369388837582 -0.03882391484573314 -1.7178990322734027 -0.7634674864772916
P 5.532483172859312 8.404416318660466 9.385578281461717 0.7011555158119473 -0.5098973222914767 -0.4578283695103793
P 3.1480453918873557 5.132578591913853 8.572195423452426 -1.0866710946905285 -0.20610631427689668 -0.08493330760928598
P 0.27297572108371404 5.174691177384593 12.679662992581257 2.735746066211682 3.1294776052421525 -1.7560385194576014
P 7.872951153375586 6.525640670416098 5.4529877722627305 -0.28926273249141793 -0.17329929504920477 -1.4121843248735486
