# total energy = -340894.63409678044 ev
CRYSTAL
PRIMVEC
9.04509744443603 0.00000000000000 0.00000000000000
0.00000000000000 9.04509744443603 0.00000000000000
0.00000000000000 0.00000000000000 13.23841440238995
PRIMCOORD
 96 1
Ni 6.294139589452853 2.003299134214009 11.290673119303271 1.0246650853013772 -0.0953349625585842 0.8695136648057928
Ni 4.753632865363777 0.3763610771006026 6.039086836565883 -1.151480634966746 -0.96762181923414 -0.19315515343286732
Ni 2.862583390284927 1.673379205369938 4.7654846565293525 0.07750719034854393 -1.0573574333280757 0.05370803104641718
Ni 3.3823146887463476 4.423115960089173 4.882962381980396 0.346127563999262 -0.5394392976146515 -0.6721329033273522
Ni 5.037694150225958 4.590830156679351 2.621034063354675 0.0964644481773371 1.0627899171975568 0.3001672952190637
Ni 7.470409285039617 6.243631765390748 2.635357879648506 -0.28761594091661435 -0.8527958378304797 -0.6971422808874962
Ni 5.058443603735713 4.699733129764549 11.44426520527236 -0.17582771789801332 -0.35611141468485125 0.5852908087311275
Ni 5.686272861610854 7.797299106243859 12.541689691051285 -1.4574663366397997 0.3854628712637749 -1.2647032764390282
Ni 1.6242100557278167 6.655464096581959 0.4553229686653174 0.7892332825874859 0.2725510761636919 -1.5648718572096727
Ni 2.6609410332260954 1.5519487723409688 0.4251530461797959 0.29349733939805583 0.66602241955424 -0.11409270278206156
Ni 0.6090652032517827 0.004215919913206893 4.773665947156891 0.28828288507665195 0.19863314582830308 0.2171098644762519
Ni 8.777425864010645 2.3051702159204384 1.4315096819905824 -0.3528222024106182 0.3339765304590248 0.3553969051163299
Ni 6.727255034902326 0.5339248653522255 4.77373288087789 0.516384215567401 0.9417282392968297 -0.28035771669230425
Ni 0.6706143777495278 7.596253725615561 2.4603596660960756 0.7996999864467648 -0.727259926208483 0.5384486515666081
Ni 7.562777820018524 3.81033774434142 3.8259152111393706 1.0257976562439235 0.35390489395183566 0.20230853779736124
Ni 7.557142724318186 3.8954882915693316 12.796979425490983 0.5307957630070407 -0.04167166870717339 -0.7964693953246089
Ni 8.0359630470932 8.807772165896097 6.802983304134984 0.34541408287200515 0.3856708735095229 0.6920772076597629
Ni 6.878525244360536 0.6812125184109835 0.3592776015801696 -0.0330733855152011 0.576093972723208 -0.42226692746600175
Ni 2.0541506719785425 6.348871474015855 9.218517276375941 -0.549483312114215 0.8249844720451662 0.22141029162381867
Ni 9.250059340141945 4.817066133656675 1.263578403062028 -0.8704071231543398 0.4596260848407504 0.8935082279481774
Ni 6.1832919204197045 2.1484186774182383 6.834252205958533 1.0656541261192294 -0.6970288952380834 0.4737010748765777
Ni 3.3494176693849798 4.296204198016214 0.6100628774985684 0.3827112766605667 0.3204615266917255 -0.8125169357057748
Ni 5.691329071075524 5.39445992824917 5.0320536274671595 0.30423246642737284 0.436579487433932 -0.6923942246795496
Ni 5.343499849315449 2.79468184386046 9.20827008549486 -0.6464097875296352 0.17334506068547567 -0.10229236771302383
P 0.1467250479984673 5.512534630130747 12.415064658566932 0.1589052311110618 0.6966355164544067 -0.6504464194928539
P 3.8094151444033226 6.25869185261557 12.601752756040899 0.1258254178379575 -0.7478938004087508 0.501016217751763
P 2.376038554302708 8.627051119198235 1.2474111959114897 -0.6237748237389387 -0.5438356269101344 0.6803172389103573
P 6.464883893682861 7.60344457807426 5.876306740625039 -1.430420388265601 0.1673075962421441 0.96981342756882
P 4.623546274092072 1.221061018071639 12.556874600620674 0.33873127153519084 -0.16360160814546665 0.4146047829350537
P 4.033299396048242 5.947784718574248 8.35106981987235 1.806458109560734 1.8745098109233331 -3.933787836767419e-05
P 4.744596813028884 0.8558597821830395 3.6202034647457366 0.7391312237247721 0.8833387436143432 0.4968116927521122
P 0.24124812518575475 5.606296110114233 3.672812464941371 0.5031990843356947 -0.47191467240011625 -0.8359718242946055
Ni 1.4496306301865032 1.0407108203685018 2.6759866482950256 -0.051319990430214846 0.8007330556969694 -0.17847672548508617
Ni 1.7001436486721888 6.737096100908696 4.8765159410403776 1.5156167197282864 -0.15788141783223777 -0.47992083053404444
Ni 6.21046339310641 5.688977345743119 9.189273571867488 -1.46179041793645 -0.6394690945457439 0.014145695372762737
Ni 8.664380236301442 2.362995523805295 10.15692171321664 -0.3930959623290004 -0.5739800117039986 1.1908395963803426
Ni 2.516156158626862 5.195531100420037 7.0198413240944735 -1.2872274256834735 0.1496356328836778 -0.737609130653291
Ni 0.44329389359006777 0.18389587589660875 9.189352264215152 0.4682536786087613 -0.7885290574316096 -0.28621186148023614
Ni 1.3596319107348651 0.980542832248673 11.34198505252711 0.31240471782552 0.11601357395385826 0.05427110263873879
Ni 3.9995611826256687 6.858924518224687 1.4665512939531544 0.7112139284892138 1.0530215249568833 0.2906853238705574
Ni 5.743455967578015 7.836174935007994 7.984418654865348 -0.5112805757922485 -0.07129129134581914 0.13927588691590853
Ni 5.431363925773058 2.8061781626969453 4.413925236588186 -0.864851226333117 0.14099544071017653 1.3183855964538327
Ni 1.1085580962083752 7.416554774927552 7.1474993067055985 -0.9941363205849006 0.21329434738490363 0.03546451145519699
Ni 5.147013197793043 4.390770691671176 7.302282632006524 -0.13520660194254133 0.2951767839830078 -0.2881676996550263
Ni 7.983085407503824 7.2496094116191205 8.891077513247813 0.5029962242962693 1.5143113706533016 1.1763252048142514
Ni 4.586750817737372 0.35707873839437126 10.510573264193903 -0.4680539038931294 -0.41246382533265097 -0.7658958934131261
Ni 8.207548545384412 7.094893020039193 4.82863209974339 0.4135388035643846 0.3401716035261432 -0.011062171351432561
Ni 7.298317261292192 5.862516585079716 7.029544904619872 -0.5442678293515465 0.0906961782349922 -0.5434977839547414
Ni 2.351535385358539 5.501246348535204 2.5239566506524995 -1.568315592783899 -0.9115347464325849 0.9197049409482032
Ni 2.361928202308281 5.024352631513278 11.458920072132214 -0.551310852241257 0.146015005411955 0.2882862275107616
Ni 1.0779313963025212 3.2311077949701623 4.029574624925611 -0.3913162447207583 0.641748891718856 -1.8751207050344545
Ni 3.7040488044141635 2.7182779058496065 2.640044144628194 -0.7441268771671508 -0.6288560949165879 -0.5717063851784735
Ni 0.9473563697694708 3.3172623480130623 8.283964242021927 0.5713173772701708 0.6674169859089215 -1.4653686222060116
Ni 3.716684805527122 2.530718765492906 6.893374580815185 -0.5409048264165845 0.09145156834377799 0.506107002011109
Ni 4.2004618416950485 6.868367599944035 6.334885944365993 0.08193257310974922 -0.1230015752359172 -1.0400312833448022
Ni 0.7645639957596059 7.316154193428739 11.112232341668097 -0.325597048146078 -0.34621575283769407 0.5557755728808299
P 0.11609744358287011 5.712684546113244 8.13247695022534 1.3127209419688877 -1.4983854434516646 -0.2650835641420532
P 8.476242209709072 1.6831026851096877 7.936627978071914 -0.1358339511138951 -0.6976063650081082 -0.05938039884084613
P 1.726681964538632 3.1414889696106822 10.383099801570397 -0.03218172693886716 -0.14653976756717343 0.9569658821821906
P 3.84479956555858 6.306522327837707 3.8498901463934923 0.9130576108350146 -0.39596068547130514 0.2753623203602419
P 6.878669965919454 3.9940074928022207 10.541246094096662 0.2433469437959099 0.23728196854875264 -0.5035053027222038
P 6.288115554562926 7.949329103886385 10.343318558553287 -0.06099068075075947 -1.287940649700414 -0.6933874418307543
P 2.6131376932962556 8.49529118490155 5.921013039194051 -0.7154475069545871 1.1811835613478172 -1.373151893561435
P 7.002289312527045 4.187626848438579 1.735278425138314 -0.19379818633350496 -0.726576269877897 -0.77486930055633
Ni 5.434149815782214 2.997056853811309 0.32579445990518724 -0.5836967247711302 0.04882884857724494 0.33126684483734564
Ni 1.4533481652311888 1.1615895024540992 6.95244449410673 0.22529265739736037 0.15007246331078025 0.07493120209125159
Ni 6.88970498478689 0.6293271260099351 9.132069662176233 -0.08784945281481643 0.8398259079333729 0.07264060628486199
Ni 2.796780306464759 1.6781007462296118 9.244053395446882 0.08105711248333138 -1.15500356051834 -0.9438429716469875
Ni 6.559613199091605 1.972066412780189 2.3946045212922993 -0.606496239164149 0.20305672881729547 0.641658645997895
Ni 4.257663037857075 6.740126208548524 10.504562796950122 0.03724551461501973 1.3032327999727944 -0.6145394211835997
Ni 7.9649590322494435 7.250640552726406 0.27725304002486945 1.0800358487621982 -0.8828962567602859 -0.501548178995833
Ni 7.596570304025692 3.6626041679792483 8.467700019693984 -0.6264042909419857 0.7229173329690711 -1.2703777011159865
Ni 3.141271887272306 8.49739869260328 12.346079509470071 -0.05309045206707631 -0.6388800548114932 0.13827727044806506
Ni 0.16590789063294312 4.761493055032468 10.178023925526254 -0.4968389464456218 0.9302513490054818 0.6990896344218541
Ni 8.58646576701939 2.2495519118090694 5.756035889086894 -0.1539064923448898 0.8828312078503053 1.0804765358440422
Ni 3.7379317393956546 2.7460192196745483 11.254055851367989 -0.5017476966011488 -0.1427785007525283 0.6764945227301575
Ni 1.0361792265549068 3.011302882267222 12.736333856226727 0.4017852625728822 1.7122397771050963 -0.7414632142920585
Ni 3.189464166391736 8.527754039586165 7.98120131370867 0.06827281623446951 -0.3385800906693072 1.2357169165090072
Ni 5.824382454305032 7.564514478725531 3.841761317331062 -1.7533560875294318 0.22724566735867313 -1.2667403614737152
Ni 3.099320725381181 8.419312366470015 3.430800933532328 0.2856629309553016 -0.41653722407107613 0.2913047026221112
Ni 3.127116309790717 4.237944725454605 9.053221738839166 1.0906316220001735 -2.43690623155479 1.2779583416767215
Ni 7.167416611251579 6.137939801894025 11.274893042322836 1.216633160404679 -0.14931167388535577 1.2499613422431635
Ni 0.3160311817367351 0.08324203166969113 13.556930421560102 1.0058343257481193 0.12284268106054973 0.27670392198980087
Ni 4.652083556491059 0.4285368171292288 1.427789433416667 -0.5123079886154983 -0.5662394485266312 0.18109667960643652
Ni 5.943343575734976 5.686725116482471 0.48532917488731386 -0.22252280796170706 -0.3843069032824607 -0.22206515159899823
Ni 7.917598902093787 8.797922054792295 11.410387697349327 0.5075481053330099 0.4161153060423092 0.12856235715314632
Ni 0.24077597109978738 4.978222634608418 5.857681075992394 -0.3924729840330209 -0.6659697119394338 0.28438869222856833
Ni 7.82106962229601 -0.21643109136068342 2.656288235106907 -0.3090010914606097 0.3594764745023422 -0.2347579165753183
P 8.43764677896534 1.6186111404172072 3.7548912970812647 0.0353917492357326 -0.33065749338812084 -1.7522314870066855
P 1.7321723386800534 3.3709902267610756 1.7376871345845422 0.8991862521695612 -1.4025822830074102 0.033075699508046265
P 4.805126605046005 0.8855873994041203 8.22599330806841 0.5042997735990411 1.3702619736081498 -0.17320647822508234
P 8.428809718773957 1.722828753032461 12.346555281595013 -0.7786398233423557 -0.6333418986020836 0.37058235460751665
P 6.233609797435731 7.817162140205245 1.3693418228284664 -0.08479086849415074 -0.2894077427097145 1.9554432533446067
P 1.7740511397917202 3.372826381539838 6.005805400563642 0.7743090571774858 -1.3803651234804226 1.339158567335126
P 6.973082692918068 3.956660285504149 6.022379637098635 0.0297566624371423 -0.055544312924207556 -0.3474408834940468
P 2.4148420222873845 8.398590048252558 10.097454720147816 -0.1351017009335609 0.5554379870357531 0.5539277210388137
