# total energy = -340872.06798118 ev
CRYSTAL
PRIMVEC
9.24020305095314 0.00000000000000 0.00000000000000
0.00000000000000 9.24020305095314 0.00000000000000
0.00000000000000 0.00000000000000 13.52397117910849
PRIMCOORD
 96 1
Ni 4.168994768035214 2.7391657631906523 12.476282805776206 -1.3936968075923224 -1.494937079891748 0.13023511686987893
Ni 1.7461765931207556 8.28963555402085 5.483213125601024 0.1415078615702208 0.4989482794791407 1.0389120821386946
Ni 1.6334645975081539 8.04374451325622 0.4567709525428536 -1.1057347961901989 -0.5537965947775882 1.3493015693063988
Ni 1.8204770650604938 8.043578189603078 7.8933334136183815 -1.492229708262914 0.4741741578582543 -0.9163689345964348
Ni 7.657319225789505 5.924725731008685 9.977093429440393 1.2901065470034812 -0.5076630336443193 0.06653655026965315
Ni 8.714259840492524 1.6447930863277185 10.610907594570309 1.201363378729802 -0.2864792562090098 -0.026374119118154574
Ni 8.250069004978943 2.4947069538836364 6.203972980410953 0.21017842746374127 1.0287703657190024 1.2622018501734131
Ni 4.734800115415638 8.867148238541885 7.740160417318089 -0.6621536806274533 1.0203191496278556 0.05492441995202153
Ni 1.074524720921315 3.794184415679585 7.2101026430993675 1.0104355719655564 -0.20578981147774236 0.12789695565500556
Ni 2.9459707454668975 7.750848560073056 11.95460866769614 -1.1656337865386766 -0.34590979156150103 -1.6542739992235895
Ni 7.867071832807546 4.141144796336871 0.5390873005437439 0.7193954358587417 -0.711602165066568 0.47110271802178216
Ni 4.649559243180333 0.7822986824521948 3.181256805303129 -0.06448429572631474 -0.48402585384135344 0.7495233655923736
Ni 6.204426674375912 3.092575805508669 3.9298767960346477 0.47849412538984687 -0.03740260901817429 -0.5835159762188918
Ni 2.0631802358065663 0.8452355528011496 13.029493756532597 1.760440762290355 1.0603995625885092 -0.13423703894042044
Ni 6.809493644100815 2.057820918094211 13.036296393946106 0.19062287392931687 0.3182763461149486 -0.060880637535456444
Ni 8.665443848295329 8.358752272104327 10.155515280307945 -1.1523270421274414 -0.22350342670742152 -0.7251423656448479
Ni 2.9572530332717 6.055622446031485 -0.0722315904987102 0.39665025533916204 -1.1444018737430934 0.8048537627335622
Ni 3.727008140216098 2.6646065655682487 4.515708435273671 -0.7082265637261158 -0.1839405768131348 -1.0069180457306013
Ni 8.517729963899276 8.539472161446126 2.3677225407908558 -0.493800416729614 3.403701441122576 -1.1988436976317418
Ni 8.143760470012312 7.787190278284596 4.41335840325182 -2.2802352890908857 0.6740913126053035 3.099579789241455
Ni 3.3767674875107327 7.498027367094175 9.348228317011746 1.0527567013312706 -0.4556419033820217 1.063929944339271
Ni 4.396959815072309 0.10880246574346786 12.35478337715593 1.428241121226095 1.5035055382870492 2.530247046501481
Ni 5.5396402729700585 1.8654860936413253 5.771395651258202 -0.41452430740610546 -0.011316710564399864 1.0178974275602404
Ni 7.382654193031301 3.7592564485197526 9.081413760681846 0.23809932224372546 -0.28119049700624477 -0.808602431142717
P 7.388503241500129 3.8887671330997016 11.738793563521073 0.0422329405272821 0.29422393315143525 -0.02824151134419652
P 4.200725624973537 6.138091257381088 10.78774752269242 0.14808602900837076 -0.07249765294909451 0.7869948801752704
P 5.568506666993158 6.771285404892904 0.9774573129273145 0.5283092491397611 -1.9037885052827919 0.7553638835335507
P 4.685540593476732 2.9237942583812897 2.4759142291191742 -1.1547562203942243 0.345104007830754 -0.9341735668780236
P 1.9064017123142716 6.071746600183312 2.0929558658001755 1.6937167786002445 0.6861945236267407 -0.03680714152602048
P 2.8162844970308534 0.5394596807227231 6.816041251912842 0.39137049499746146 0.15043473174620545 1.287882285658653
P 4.734522909327068 6.880578525413141 4.647796212457028 -0.269256207462504 0.26129452941326614 -0.9515259421135419
P 3.1791195463602535 4.87757049123219 6.710107869186074 -0.41781917610729336 1.2542681971486334 -1.8825010566589258
Ni 9.018900091628108 2.369788650170998 3.891874613352573 -0.9460338086507191 -0.3352443414278549 -0.12332373446202631
Ni 1.8129740202631963 1.768870531571694 9.179543792015364 0.9576960754799959 0.3556452736817101 -1.4176407200024295
Ni 0.8194239698740926 7.15711931937067 3.7017546655473623 1.4276345979903478 -2.42650869037055 -1.422624032149634
Ni 3.161544680344909 4.619584024802953 8.692938072180008 -0.14470451413064758 0.42477529571015227 1.9019180277329568
Ni 3.7994420911594644 6.978302911837052 6.654604742112274 -0.39071949167702386 -1.1868417880748594 0.3293909679708714
Ni -0.010448821498502191 0.5557935874815685 7.611480426983554 1.5358929534788195 1.2162325825321505 0.7864066117719684
Ni 1.0975790272873946 0.23836766752083602 3.5596311039374733 0.6365796888130908 1.2984168666413896 -0.7575665476118243
Ni 3.977583963877561 8.227088620236483 1.035386917296398 1.1316736275431478 -0.8592973863944233 -0.9117049534618622
Ni 0.42888586807329226 5.7338231380134115 0.5891959971339699 1.1413443178636924 -0.7655187125793654 -2.053623912882102
Ni 3.0876692577409783 7.988201653309725 3.2255478701145637 -0.2775613848940897 -0.01149848755790278 0.45569486810714427
Ni 8.109497797465048 6.363219562111816 2.227736238123842 -0.791094761276257 -2.28429814630635 0.6717531513904302
Ni 0.018358435225702293 4.40510967407627 5.19059437850643 0.4774854816196745 1.2332304026417276 -1.3324868117419053
Ni 5.1913493030876365 4.437136217509068 9.976295075905309 0.21326580813981336 -0.26726026007839776 0.9029156373050063
Ni 0.5738415518880722 4.41060759483291 2.609666166854246 0.4206504749085013 1.0900454104794 -0.18898430988462936
Ni 4.839796541563039 1.2679314089166718 0.9808706438979076 -0.7519815973248791 1.5251773668335282 -1.184069881756677
Ni 3.9955931194316654 5.7977838228494845 2.7542374582262084 0.7684333151229992 -0.29946075607034234 -0.9088505147322025
Ni 6.054994112230725 7.524306504290621 2.943735540372727 -0.7696892990172873 0.7737339014003062 -0.23566140222619414
Ni 4.934942911363248 0.24454936329594917 10.246111774174421 0.10077541684786516 0.772353990333644 -2.453621230316626
Ni 4.120825590044682 8.925028869835321 5.333380462668001 1.0278110871295267 0.7974962939272265 -0.6564833697155532
Ni 1.6148455885591957 1.9992195509704924 5.744089927513752 -0.9591731742461546 -0.5419846897443247 -0.851684864154488
Ni 6.2724622887139665 7.307060092678235 6.274243799843177 -0.9448629282710695 0.41856222492090495 -1.7226699712994846
Ni 0.2648390009386898 4.78704422290815 11.480350631065988 -0.49806073466786477 -0.45219174004989215 1.0204592747501458
Ni 2.254720402805551 3.5219125954860355 10.664868531771363 0.6074164369855733 -0.40730773505300827 0.8363410347085661
Ni 7.21094350156803 0.5060766754965215 6.418179365252018 -0.8142783984815718 -2.55974094219554 -1.5472824262626836
P 6.54095486590001 0.19542197625926133 4.003785483369207 0.46250083528538416 0.6328634163037682 0.6789959489957725
P 8.561805731981922 1.467094743351334 0.8386047831625529 0.6663132113217816 -0.5987829296802912 -0.8909808335406333
P 0.6317702322368607 6.470738563665205 5.883792555950129 -1.209900983887168 -0.44499470808082076 0.31703964549437014
P 1.7944658937496665 3.2230474711956614 3.7791792501052854 0.831670111595458 -0.6743851896966386 1.0394453289343453
P 6.483942813684093 1.8721390397670077 7.993681093660461 -1.477251746796843 1.3338605521609803 0.39445581879100455
P 9.2128427113947 2.674160935420965 8.769064408223127 -0.12166228759920338 0.16352627482284096 -0.949946513441564
P 1.1116426161808508 6.959674662685141 9.697512608711543 -0.13104655702758075 -0.3113428522199089 0.8864394940268541
P 8.585830259657998 7.543202719328149 0.5350484078332777 -0.030596384729618276 0.9232270951688487 -2.837080697997127
Ni 4.282251935622003 2.3551521686944974 8.99383326905901 0.8129208560124129 -0.5954458948872584 0.977287367348362
Ni 0.5496617888023979 7.197138638357239 11.967037664687329 -0.17152523386791751 -0.7899300515441944 -0.5255741095967852
Ni 6.509307170788258 2.2203930488376207 10.569051323236815 -1.5391803659808394 -0.6464221288248093 0.2467839945019169
Ni 2.364466293270452 5.377003460805982 4.661888445979636 -0.43279250958767396 0.22296915147050633 0.12671090576670435
Ni 7.448730884343459 6.031690320384932 12.49621669560528 0.10240626758306878 0.4963944027090355 0.39453140922394636
Ni 5.461412714775577 4.626551137829015 7.721294694950303 0.1738644235240554 0.38846411998394387 -1.7404100688917252
Ni 5.313828193220856 4.575637619561641 12.36656278787957 0.8370200630534617 1.7335737626961822 -0.8051592097891229
Ni 2.8966742627161817 3.8982568215317515 1.137454199107908 0.5915779272914199 -0.1017984587957408 1.1219574286966483
Ni 6.876503595911161 -0.08872442874833573 8.621071469697913 0.30185059645875756 -0.866376918949024 1.9484938186099667
Ni 0.4210372396855776 2.6096550786107033 12.909292576427125 -0.15073143705101785 0.8684728822461042 -0.567488490442384
Ni 8.158027343370719 5.113057063472488 7.185840642207417 -0.46360795230663376 0.5326050483016377 0.2861072175815718
Ni 1.1643764544298358 2.18325667317218 1.8964795823840526 0.5159916081146727 -0.9261985190923469 -0.8883788771414118
Ni 0.7468366315617174 4.870446294755939 9.219493809479792 -0.41732115342495224 0.5582124644570967 -0.16789869285892373
Ni 9.231369318314135 0.2005271883904273 12.491943101739825 -1.9965441371499744 -0.3928763901190266 0.6631862356570255
Ni 3.554484310893022 2.8947430602991435 6.88344391234866 0.32096880534544725 -1.697547465200244 0.12351116788248408
Ni 4.7097684056177584 4.760802046523513 4.961850382360453 0.17377134958961685 -0.051925999445329926 1.411925157674891
Ni 7.105309501416918 1.713577157104912 2.2435859582479853 -1.0112374990415616 -0.45171222931031235 0.349434773995624
Ni 5.6255556800208835 4.391498855127478 1.0840763187131452 -0.9013207820140605 0.383111854533095 1.012545676330024
Ni 8.326808890498098 7.704970952414705 7.276355822287916 1.7849330910047645 -1.111721609901253 -0.4774811107443003
Ni 6.891019954749281 5.653525774357607 4.185547667604029 -0.17375052365401045 0.05853861966584111 1.1678791309294274
Ni 6.032799144739212 7.470833449805448 10.41982758967835 0.2504347038806268 -0.638515729493539 -1.5120233459500734
Ni 6.49029083311235 8.931681815961003 0.1328805865966665 1.3933990738462454 -0.8299243325489449 -0.05819434895254494
Ni 5.1621410215553 7.172772223171927 12.514379238528395 -0.0924455568259311 -0.8883608794192829 0.2458414280829895
Ni 1.5619361864541166 9.123379066410179 10.31943925274328 0.8058937739623024 -0.68892015008802 1.3135028144402348
P 2.6958014907353367 0.5093680357881438 1.684329142699881 -0.8774563166916372 0.7200369260974825 0.8117165512916665
P 9.07268731301366 0.5026901411144902 5.329377606749049 0.6008899487209651 0.15865891942821062 0.09533316278637129
P 7.018257549402955 -0.008513923000282914 11.31043531103636 -0.6254226437550068 1.2005563094474743 0.6546465736171306
P 6.775563618859835 4.039299279396217 5.741344663216613 0.1389185035764898 0.8850621540633531 1.5026647875533088
P 2.0808937048661953 4.105265088272947 12.733765681144542 -0.18220893883400877 0.22463034122301315 -0.5574599025617883
P 7.7865434640779325 4.172598447186624 2.8945628763415727 -0.9876843943119701 -0.6444382656255611 -0.9461191692756739
P 6.652373233099285 6.66374792293361 8.177147171319694 -0.32410529409189986 -0.911165021797992 1.9344116294852876
P 3.170637040050009 1.256796964359106 11.098649859368804 -0.7531614765655933 1.1996865052480112 -1.56623017100978
