# total energy = -381167.1257435174 ev
CRYSTAL
PRIMVEC
9.19212707346412 0.00000000000000 0.00000000000000

0.00000000000000 9.19212707346412 0.00000000000000

0.00000000000000 0.00000000000000 13.45360712645900

PRIMCOORD
 96 1
Ni 0.1378295129193079 5.142857288146761 9.758412795359458 0.9388516890799832 -1.2379823155044163 -2.3613111706272942
Ni 7.098362852922362 5.508676374442866 6.638036749214489 2.3745196988977684 1.3483934556698325 -0.8209221290503346
Ni 2.812276164981675 1.632209258920378 8.87679771374923 -0.7740360060217573 0.4814727484021966 -0.016334732604281546
Ni 5.37964648489495 2.004674253184222 0.46897497619313694 -0.5985636145806337 0.7408152962954144 -1.0124572303812758
Ni 7.346550287402219 1.7554940689664462 8.836248483018823 0.5198356644511112 0.09845705312733366 0.2242171649449945
Ni 7.875704281967679 8.02096746815602 6.409056264525212 -0.4747616549306082 -0.2143793529189663 -1.0634712595352975
Ni 6.295853379595348 4.458724028939435 10.822807811124177 -0.2078574926400485 -0.9671549069000505 1.144688294635261
Ni 5.4059083923138 2.96532508291092 9.34503731976613 -0.7864559769526649 1.5529501660714222 -1.1609536074541875
Ni 4.940740795208128 0.8870393558726929 9.704907261336482 0.351824100163407 -2.254654355297988 1.0304672938054509
Ni 1.7419448734692866 0.3746894890469597 0.8898889153056099 0.5084917001932017 -0.1932006619588221 -1.0837996866800044
Ni 8.170468224984921 8.727262946049676 8.477790452186845 -1.3383491840599533 0.7824229445338718 0.8505273535112771
Ni 2.6393814444212444 3.6379130303513314 13.375495546256166 1.4714081435318724 -0.20526530643284005 -0.8782590150985907
Ni 5.156268601735876 0.3963130490791973 12.19971768674777 -1.2387960696549634 -0.1072661667785314 -0.7078568390915229
Ni 7.831719953301526 5.820785861492091 0.8551095828204993 -2.157890373602361 -0.06283287616582081 1.985182175169936
Ni 2.7294183303742154 7.056446752876875 1.8526557727144288 1.3016058058923325 0.6526048605967535 -0.2651758667455433
Ni 3.0748217021525517 9.032404800679059 3.3164487154476574 -0.5488359083382032 0.43272051869915795 -0.29791243774661597
Ni 0.41235882632468013 3.961135799188931 13.022539922767878 0.44708475784063006 0.24293916683452998 0.8235569955700204
Ni 3.3385897922414216 1.8333513863754973 1.8907700089487725 0.9114434722703593 0.8019661567731221 0.4865385929608782
Ni 1.452935202081095 2.105594617745494 11.540382948308583 1.0975977689053613 0.058380753931738166 -0.13380277961647924
Ni 4.074906757579938 6.453231789437186 7.154345665226535 0.3853248030240138 0.6294078536549998 0.7009117752322575
Ni 3.5463226749010612 0.4970192370766405 6.572463790599469 -2.1381982944900724 -0.40409745564582666 0.8489147576085186
Ni 1.6369799729387131 6.275263014660722 11.58233122079928 0.4979242090900005 -0.2150424404242619 -0.5262263984688034
Ni 8.298827089247023 1.1134607523486661 10.909395810950596 -2.353697619946095 -1.4275348391876896 -1.4035970974251697
Ni 5.643368614347805 5.044060304969372 4.130230494363659 -0.20595821873480658 -0.5845282195334901 0.4225145247004336
P 2.133235344244788 1.3087750711571102 4.720547984124879 0.20261089952912847 0.7414135920010457 0.7508924780257584
Ni 0.7252524018243166 1.1134975208574778 7.236534312973621 -2.8107333183518497 -5.855909078921128 0.07251127979584931
P 7.12082841180639 0.8421496026770492 5.889505285248681 0.4963805187519645 0.05722015796473371 -0.7014481073517016
Ni 0.4481051705915419 7.272323860238337 2.4783427295271894 -1.0498323285956241 1.6322489011027506 0.27584260243077013
P 1.6110030214631548 6.487674690066668 5.522705398980021 3.5145512114873085 -1.0392679228162165 1.481098888457075
P 3.281653756346302 8.664646175543128 9.10429826595883 -0.6505505491708861 -0.17505715828057594 0.15067564411241793
P 4.959023936214811 8.00055175363825 3.381671454016243 0.7835046076338248 -0.5927423799131663 -0.26977608452171603
Ni 6.902230434792855 0.23592237915295014 0.26408889532825297 0.18271673170836272 0.6911755217811 0.8318449466104254
Ni 0.1754850620062239 6.894821580267272 7.932636641011918 -0.6949167339910871 -1.321717231930227 -0.40736069977813066
Ni 0.39152854687005784 2.5608255253447685 8.7766356996822 -0.07329212382593184 2.6687593157784875 1.4961866360281328
Ni 6.3652447478504754 6.444048854361431 9.714809939972227 0.36631920845578847 0.09051851500654733 -1.5457132820033508
Ni 7.204090700010781 3.8466018942400786 13.22057694965384 0.07455607814001998 -1.8187852636675192 -1.1068874217374034
Ni 3.8979215404141914 4.5635694318163695 5.622907858406742 -2.487176697674568 2.9017894510294218 -0.20832131965034448
Ni 6.098259413240569 3.6071285963486264 1.9110312957295315 0.4655028553365015 1.2849681973356513 1.42847920537883
Ni 1.2829635779712052 2.900051787642718 1.6036833305714395 -1.240025056966058 -0.7887023497846803 0.7080136763843613
Ni 5.999379700918355 0.9405844160426415 2.7088031466961415 -1.4190771953386399 -0.505441086292336 0.1433233175124048
Ni 5.454792124779128 7.25803929456494 13.383110304431098 0.03884988298766213 0.9858951636220311 -0.8062825247602888
Ni 6.995263954213989 8.412294707440331 10.572221231444349 -1.1057872466946892 0.8892221989783138 1.0052745965899075
Ni 4.245549406975644 5.323666430228937 9.248494246178907 0.34407196702181386 -0.8146494086677455 -0.79990284648619
Ni 7.875777818985303 2.964975782077208 6.527259666653484 1.381648875288853 -0.1726806876285994 1.1777786494313265
Ni 1.4031506411498764 5.244182106304963 2.147370997457496 -2.5871956959723827 -1.894138640897854 -1.0823117892805683
Ni 1.9832749810557366 6.483244084754843 9.41418877350126 2.232109380117936 1.0521375796900332 -0.8506836765834832
Ni 2.947722159317256 5.54138196303099 3.6421340551629293 0.5394830063683934 1.5253596580476632 3.7212151980398884
Ni 6.763217895102526 2.6044789374316144 4.550669200499739 -1.5200778408234337 -0.27373121251472216 -0.9632334603584574
Ni 1.7567625825204543 2.6345280012580834 6.568615966152312 2.8787788490668613 3.9152861784188056 -2.0091890796074945
Ni 0.6073725625735876 6.332585119898367 0.1068741053506277 0.44899842992357514 1.4805972662303082 0.9730756432598596
Ni 8.753580006231743 1.6578093331806152 12.941347701609596 -0.3127348474714291 1.5838509694153369 3.427649210187426
Ni 5.415091327389554 6.305229349342365 2.0546353029577373 -1.5721892168066922 -0.8935545078050804 0.6511974387262657
Ni 5.654959886750734 3.89689202216746 6.719928491252918 0.07646409379601025 -1.587500393242466 1.1574435374184002
Ni 8.470379759235822 5.467955250933764 11.625288788856862 0.38344018440679123 0.858784965534379 1.757000883370871
Ni 3.473861136160146 7.559200958115441 5.161463072818267 -0.37589913883473974 0.04631585234740411 0.08425196527154521
Ni 9.053326082192989 6.5767280184089225 4.676433127252444 -1.189380495336313 0.16776473838422076 0.8832718949321497
P 8.587064621950166 4.010396408869581 1.6066294073399876 0.1282201433223792 -0.556883461233028 0.7872291076732636
Ni 6.943935115912674 7.923714762348727 2.134872462099634 0.9492543724705459 1.1695416062335149 -0.38821035210192495
P 2.5734463159944294 5.766901611828352 0.036809873384243914 2.439174458763677 0.16239678920408807 -0.0016737881579971172
Ni 8.980597971763189 1.6034746692839326 4.670338746916884 0.48634781710631075 1.7655156057101011 2.161829303645451
P 5.6670659182770295 7.8574671015970114 7.9899091087626655 0.8059678217333474 -0.2454107683034741 -0.2732568439814649
P 4.7817537631057725 3.167891990082498 3.51604656553268 -0.7016928763726561 -0.4644898406909549 -0.6800408453205192
P 6.3887765934900465 2.1569694166828244 11.628706421750922 0.014765074124316508 0.3372924822061352 -0.08166492127065936
Ni 7.333515851028425 4.263676281819876 8.55870047504 0.457759978166289 -0.19818757365045223 1.0035167333585362
Ni 3.135195593621577 8.037347838831689 13.152771223341222 -0.8555659443764492 -1.999284933119905 -1.6239622356139256
Ni 1.0644575222296988 8.601211305715518 5.2866892601296005 0.3010514975962299 0.6369239595263869 -0.3433654278730925
Ni 7.485185949877226 6.067870240707593 3.395542373965507 -0.5949165047463497 -1.0563328487183035 -1.389103788905001
Ni 5.758739002872126 7.008160508679739 5.441930500396751 0.2809195027330452 0.8107385036491134 -0.40489012675045105
Ni 8.552152922833333 3.21147186515172 11.142640523449325 -0.5637670757267387 1.684930290656866 -1.5756100695627833
Ni 7.804079226802233 2.0371684228466775 2.0891296794995564 2.1468693399015093 -0.37370418806594996 -0.22631518512460377
Ni 5.630536404772475 1.0665625193591761 7.420807967798592 0.08595403556431648 -0.32673013330925665 -0.47464955483277615
Ni 9.076848735705358 7.456920158728131 10.358200933777884 0.2032354204870048 0.11831908215858333 0.08258820441587712
Ni 0.5213103524231762 9.057287889017465 12.172030080399741 1.1493659026165883 -2.1707615731380745 0.34344641762267303
Ni 5.195335142348446 4.8568902108627485 0.13835162574443588 -1.1966034954473133 0.023107018331108592 -0.9430037635751438
Ni 0.7317135480352754 0.39792902504147726 9.688750259351844 2.374000078948873 -0.7081386319979998 -0.8932092086505199
Ni 4.104238835484575 5.744822122286848 11.478671602331525 -0.6709985326125928 -1.1008854385176976 1.7599977612156656
Ni 4.0266021291283955 3.0028473461533935 11.496538339975915 0.9424476339613576 -0.6177070202783039 -0.022691270949928663
Ni 4.560848562164295 7.745056578032042 10.631094048541131 0.23343971198452698 0.33109483803585554 -0.6775720720650524
Ni 8.004853669169234 7.614289376442766 12.894878740960483 -0.17234747265889672 1.0176418599060086 -1.1718100905527173
Ni 1.5980605063613904 3.529197741921951 3.9656794676653533 2.296851557491328 -1.1587571140235011 -0.08766150517372644
Ni 3.6005194568896997 4.410584858777546 1.9524684859477444 1.246303176665286 -1.411209876775421 -0.8707979308348551
Ni 0.9050586828286508 0.8126033482085825 2.9372449727313255 -0.34787848525209764 -0.4189448050713043 -0.5350316554652592
Ni 2.6391792176227797 8.998927073405886 11.205657151489202 0.05620122978191611 1.2564104403026168 -0.9369750408825605
Ni 2.204612211975754 4.8703566772150815 7.537020355174704 0.7513131105029448 0.39036596499234705 -0.16242532844917834
Ni 8.7236044794229 3.877818358221323 4.346470690749636 -1.8062750470156503 2.114385508341191 -0.26865996863940184
Ni 4.386519869760202 8.87365676388398 1.2289368503358216 1.4707985349723314 1.3455775834875923 1.6074878921079863
Ni 1.9824476896074705 8.0905242947008 7.4714069511999925 0.9145231396369476 0.005226024285629709 0.11871657470731813
Ni 2.379611929665662 3.9402880546926236 9.997927457823323 -0.3130729475371382 0.1812666295253975 -0.05183883904816234
P 3.1660443725147034 1.4942538138583898 12.985233674514676 0.40073676670370983 -0.7855314082558665 -0.2076633743513714
Ni 8.128892233645944 8.879512148912264 4.151083754136289 -1.5852540204104506 -1.7447004687369632 -1.013355316715513
P 0.11351082119116314 4.769289238618562 7.526916368953214 -2.1796851008799494 -1.493327055092151 0.009391468517228987
Ni 5.01443407899424 0.4233084882488433 4.860115728298266 1.9528171285756695 -0.8531390801025114 0.004496088098140644
P 6.658832098585739 6.065893933358955 12.221674001784754 -2.3944881715998956 -0.3704766822675878 -0.22217339504208836
P 3.837860181270066 3.164895356614334 7.713679251824746 -0.4191852032168845 0.705637719953017 -0.008958237634552314
P 8.890579470064624 8.91244754068046 1.2299773991351963 -0.8712810411188606 0.5006038128046927 -0.4456760504185614
Ni 4.140373087519403 2.445160988749953 5.407609855059067 -0.7189352083928715 -1.29039553899881 -0.10781072642809175
