# total energy = -340871.92696063215 ev
CRYSTAL
PRIMVEC
9.20656613399454 0.00000000000000 0.00000000000000

0.00000000000000 9.20656613399454 0.00000000000000

0.00000000000000 0.00000000000000 13.47474015106802

PRIMCOORD
 96 1
Ni 8.552071531704081 4.228207653755925 9.585512285127338 2.0129400620094944 0.2741181635404957 -0.5259564326368684
Ni 1.016220791755387 -0.14841261124600802 7.640406951814326 0.9403383009278387 -0.02999886035493543 0.5148556947380165
Ni 0.5792081043786083 1.304358698256278 1.6166859371385613 1.3322428140518991 0.3949037049617005 0.3669699546659099
Ni 6.287633683186567 2.386710255976323 1.1167988463088467 1.6737141102260722 -1.384432608681577 -1.385132720072395
Ni 6.874165611082492 7.496041547127981 0.43639953005904986 -0.4961552901150359 -0.6178378894292134 -1.070918459841962
Ni 2.923121636759398 1.0368158806406633 3.30645912176244 -0.8011593446011106 -0.454676711255275 -0.4164860591181666
Ni 2.432890392698963 7.14228844237704 10.814152499240535 -0.7333238730143757 0.6098157904556852 0.32742047450806194
Ni 7.288221725309769 2.1828768773799805 4.548412030792094 0.44672146096394033 -0.5186408728120616 -1.1470069154661084
Ni 2.989574632545686 5.9903904825830665 4.334527843730819 0.3360100159492858 0.1626011919054103 0.20124281553700826
Ni 4.630939691394516 5.8619496756816405 2.6336920490020908 0.6590907254314133 0.27000465559275433 -0.9085741211423644
Ni 7.765637429035691 0.7179123914272431 2.4739084076791023 -1.3454863093253666 -0.2054774224436461 0.413855563473855
Ni -0.005018499307717534 5.460653862390883 1.0954966931292525 -0.6508487971375952 0.9534738098685321 0.09506833916075885
Ni 5.3008002511637695 1.7603599286933527 11.216252966428733 -0.6546748557519048 -0.3592597305058458 0.012060530708959873
Ni 1.1350775631049252 4.792468897694102 7.450372374836782 -1.5825232517428487 -1.2931754157367923 -0.38564387692632934
Ni 6.153033683408856 1.6402970971542876 6.4057299921570605 -1.3896041255801874 -1.079785937534921 0.42630150254669164
Ni 3.0167524163585315 7.841370643684901 8.462594754834067 -1.068576956192979 -1.3134089691748476 -0.8325121478807792
Ni 4.378219445573848 0.2501552964404994 7.518231213302006 -0.9413816545906885 0.21873865832892653 -0.9103605236188256
Ni 4.076133591079576 2.9328621839389344 7.310087320348898 0.5691375960100328 -0.2350600211967694 0.6544604257482536
Ni 8.430001668704582 8.112375130241448 4.163950424039883 -1.0169108952772552 1.7012354555747928 0.7622241009884937
Ni 4.664028090792676 6.1635475821603025 10.234213393495146 0.08913320462324649 0.02149622220056298 -0.16675558039341604
Ni 5.329690456314417 5.813882192860886 12.855346765363393 -0.338079753994121 -0.8238670706112715 -0.8397120080633279
Ni 2.3316918155747084 2.7382169585421927 10.838029729023265 0.46096408692588353 -0.816724288918903 0.3178359161434204
Ni 3.1609640713871268 4.949256722332571 11.81586558376954 0.49371042811896904 0.15393734558282518 0.32160309649533647
Ni 6.825637799945125 6.919535569967893 10.763447335165587 -1.371791779989115 0.7725049140892114 1.6194193534382497
P 3.1058811850211865 5.538154737775888 0.5239871195176841 0.024465075020899802 -0.7441055370109121 -0.7066864729325054
P 7.281933640504832 2.304928327246815 10.078984240536728 0.5329955988718369 0.26523320234604 -0.4139044144339194
P 4.3381524688958315 2.076274045818687 5.074236780949699 -1.0565076837332708 -0.07379708848680838 0.9894656545821088
P 1.3249169608762252 4.599416408272842 10.662305838752594 -1.2450081120029461 -0.01722690540124775 0.4207353213128238
P 3.4044133049112046 1.7407315292729642 9.182267441744038 0.34784763201416224 -0.4618518888474755 -0.20077950274734455
P 0.7813456334565474 7.129785925297824 8.74467566134496 1.040460657572737 0.42539493157202224 -1.5658473337490646
P 6.886649715029043 0.4688775341093803 0.2756289448252428 -0.1058255776772629 -1.6831014649782432 2.498330657408858
P 3.558199788925356 8.03884228494565 2.9601311127584693 0.6880644869559439 -0.043484810656512204 -0.042187432001327345
Ni 1.1311647724137128 4.242726408861906 13.020277797922752 1.0803775483723328 0.9765661729116215 -3.454019472650838
Ni 5.35088397201129 7.1984392904375225 7.350781264194141 0.062245379093467 -0.47131637669448506 -0.860156391960609
Ni 7.321954584351187 6.236601686006823 8.558643178752051 0.31548232830957923 -0.5643278333262153 -0.5960305637461347
Ni 4.696343138618925 3.946634029049939 0.9827006043962442 -1.0711624575319683 2.0324922731098094 0.8409854754591131
Ni 7.503130603203826 1.1809078503069395 11.990848345450464 0.7956309585837136 -0.008808599430565474 -1.241708358205752
Ni 2.0082927600212432 6.831290631673135 1.9443642047232632 0.4811678155672681 -0.7666368853442087 0.33947123502500887
Ni -0.009350188767048115 6.252004271480703 3.2179840193093754 0.13193153073569536 -0.09043315438159265 -0.11996767350559984
Ni 2.1568038815270065 1.2974998063387406 5.828040971223276 0.32419116893748684 -0.84433485154732 -0.001666589069145517
Ni 0.2626044154349878 1.809117903989027 10.07170829116434 -0.7543256720770235 0.25381313343455647 -0.2827706970091711
Ni 5.578543944275533 1.590940695047016 8.945799547469717 0.17969157172879377 -0.6826250611079276 -0.45450496156410114
Ni 0.37303165465070454 3.010206547696291 4.8490064215405395 0.6309194052035199 1.4956891275664241 0.8529855852437827
Ni 8.617585457724477 7.500718482824772 6.807951065364211 -0.6509449563958273 -0.34388581915293676 -0.05407698435006171
Ni 3.653248379739657 0.2051425523287904 12.364193023356467 -0.24399306202034107 -0.21577494771491226 -0.8249726449706244
Ni 4.325567092719625 3.793013263229769 9.863995265515582 0.057248954320140114 -0.9122304869480289 0.18553080411839015
Ni 0.819242622450049 6.142096282606126 5.392819881654756 0.5118873561383119 -0.07300133205839039 0.7300534297932201
Ni 2.1845524724524528 8.861089930646548 0.6379496802049905 -0.6500602397980288 0.9966236057831286 -0.016505453854190926
Ni 1.5494927334191602 8.369818344590568 4.168033536208243 0.9449814561268048 -0.6659715117116465 0.21930275836251265
Ni 3.1086063286555365 6.041118663073845 6.86244289017162 -0.13868736140229018 -0.27444572208324347 -1.4843464488600953
Ni 8.518265020132006 8.231103009662334 12.46533451976946 0.696988271808135 0.5434700160405995 -0.23533230102154953
Ni 8.001095362983362 3.0248265750319274 6.628063045141456 0.530706288617028 1.5586695850537027 1.4024308450312104
Ni 7.861173967865603 1.1526436916668865 8.231799946733688 -0.17922363095343974 -0.03349556065428425 0.45135021798520336
Ni 4.913572071228713 8.89178462279832 4.819537123367594 -1.9197486281564742 0.5367473526047852 0.799398910266578
Ni 6.542499058962653 3.78407368732114 8.541530013253638 -0.8435488653109149 0.10557875177377946 -0.4189964842448462
Ni 1.2181760308199472 6.736555064114131 12.932907483429558 0.35128879648522726 0.31341824669169893 0.07551432828823124
P 5.095585887617587 4.624955423278544 4.340496460684026 -0.8596115752007325 1.7737907012347 1.575712142358286
P 8.900061325931025 3.1554493381541002 0.7013046664204706 -0.9944865048354679 -0.06670932840209157 -0.690583653833372
P 4.512119746310306 5.117773712478345 8.191672206717877 1.4542707125206373 -0.03905094325487468 -0.41838044792740203
P 0.7937570055290736 2.244919927893113 7.4193536115501155 -0.24219740357249903 0.1502717238057799 0.09706017277980704
P 2.7274268628007783 1.8781119120830194 1.139519731360243 0.9522797895604308 -1.3286450693983118 0.43285704427702226
P 7.328178223191798 6.684399865841851 2.3233009510194824 -0.08448233611479644 -0.4301998091598333 0.8621734223906378
P 6.783223148852381 8.462353542796162 5.735590473427939 1.4102804229826165 1.805584191596213 2.045701315600916
P 8.20831675798998 5.4858246147432945 12.264008089185394 -0.33312575242295533 1.0714877020818707 0.9406779436554445
Ni 5.238103534441047 1.3574989991261102 3.2795096607946346 1.1392236719762638 0.33145222137527436 -0.8144540048274876
Ni 1.9095523361077038 0.20880124178923243 9.850816986467576 0.6365871450122584 0.21226590612038926 1.210339099865851
Ni 4.771349034527886 0.5495546748790167 0.9948228902859371 -1.0915042544131137 1.5241183294413945 -0.45268667740843976
Ni 5.897238444433211 4.573831360435477 6.4174527130679335 -0.07856185686530341 0.7001371018497621 -0.7029241776765959
Ni 7.049569112844801 4.654361196143798 0.7804608824320168 -0.043323345377983456 0.16571248384088236 -0.020128138208442753
Ni 5.7590570903522496 8.269844240788505 2.3830616937388465 0.29175104613091046 -0.046802562175835526 1.710059995844958
Ni 3.474180664577107 3.4060796934173445 3.084610334167122 0.8651777564346004 0.28382664907751115 1.2124597457532797
Ni 7.91169039733074 8.891066510624404 10.1404159750454 1.0950323221710303 0.3993468283347187 -0.09681051866284618
Ni 7.677245185679617 4.869794848318794 4.519252993904545 -0.6367511813939486 -0.5102143393112633 -0.2620789729877744
Ni -0.16865232667085892 6.6419852147491065 10.503303834911213 1.2716537396149323 -0.7786814752135686 1.0190312840543674
Ni 6.249141029351368 7.02424184886474 4.433539861351161 -0.4309084051910837 -3.1310071545128015 -1.3973117786370903
Ni 4.293859678271305 8.570420218404285 10.186284009169375 1.8875900411460589 1.4420037222278264 -0.20857508753236334
Ni 8.518955512606926 3.168366150718268 2.7580230446927936 -0.1630902157266869 0.6302645452283404 -0.3699529485536338
Ni 6.57854276615347 4.554083275652769 10.89652364821531 -1.1257510914111257 0.32002881002968114 0.105733789294405
Ni 2.545339393881245 5.4495323302615075 9.140468709938924 -0.13087429311577461 0.41180793691620693 0.1750417316616082
Ni 9.263923240514794 8.134111833351925 1.562719807268725 -1.0859529855775814 -0.19297054822588702 -0.05375096846921065
Ni 6.070745393531073 3.489481977821331 2.99229517289687 0.752499417501562 1.0221806283166266 0.15612149771833758
Ni 2.6404156043945437 3.6340342758042206 5.6524514968210555 -0.05232272066311634 1.220762352081704 -1.0851142917263699
Ni 0.7535289139402427 1.9816949898873304 12.622597403230674 1.1728282474045866 -2.8385179446642854 0.08820606482328679
Ni 8.749865402786458 0.7665249029748676 6.175594374206071 -0.7060640088571583 -0.4941184621906652 -2.7789876505091367
Ni 8.344767277600475 3.328836601889643 11.788255091339078 -0.039044515496971466 0.7689321091362886 0.9191038170290945
Ni 4.213771757746934 7.447918824909234 0.7348285364061464 -0.6737418996856849 -0.19026574770021426 -0.4564937098593558
Ni 3.8126784889154863 2.6276276837590276 12.887309201699116 -1.8396500229316703 -1.0235854790839534 -0.8328440772989012
Ni 1.7160579315024946 3.6897800349460836 1.6216445937651192 -0.06607169481809265 0.9488748776439401 1.164675279280149
P 8.3075083036538 5.198506092645975 6.51693702754112 -0.42084844985192044 0.8731227223132898 1.1367258452550744
P 6.3354986215480125 8.393110957411198 8.821858910191501 -0.7127727883359015 0.5002428299208481 0.2010510112411763
P 1.306761612068999 8.918640176789536 11.953240442639794 0.5960763293824057 -0.0554934050816141 0.2556784687780693
P 5.223179690416445 7.871577387821062 12.085117140096424 -0.258894918832838 -0.5572580709636274 0.19073060315177476
P 1.3518829936634287 4.726752427214395 3.6248396780081875 0.9710100189800825 -1.8194331816641636 0.6217575361985938
P 2.708820392243271 8.166988481724442 6.1816587394491345 0.2439637514443024 0.12386443745684476 0.5642486433488476
P 0.5247696776559266 1.1236061814549234 4.060168484402795 -0.45327700269427096 -1.4625460651555522 -1.3818270527379297
P 5.814176802983519 3.3226221696153644 12.526711935536769 0.2900631169055263 1.3520966155530325 1.0624034803924154
