# total energy = -340898.379625264 ev
CRYSTAL
PRIMVEC
9.02878727930139 0.00000000000000 0.00000000000000

0.00000000000000 9.02878727930139 0.00000000000000

0.00000000000000 0.00000000000000 13.21454282706548

PRIMCOORD
 96 1
Ni 6.3456031436129665 1.9272849012841486 11.237171583638027 0.7604035028399873 -0.12678906730280745 1.3457480476271857
Ni 4.5922487976475574 0.09109685065115969 6.037037120333164 -0.0598748219787614 1.261127900382944 -0.48509337587391943
Ni 2.8382624365828777 1.6453790806489244 4.898247936745616 -0.35813333021088645 -0.4584950565601007 -0.24895863355573253
Ni 3.4159784100372366 4.156645933657324 4.833760727531094 -0.14198737230980063 0.6799732253073774 -0.09122402571400419
Ni 5.128287889698713 4.471588086410035 2.906762941677756 0.16044737878720108 -0.12438354318510837 -0.46873241801739274
Ni 7.132967554281876 6.1053832331680775 2.57707407090168 0.3340446646927989 -0.5500530685747559 -0.169520801843379
Ni 5.089057809608394 4.468455097275089 11.605870232098392 0.17776350146814546 0.04463872175529732 -0.6203148902147962
Ni 5.576449796590127 7.690386814262579 12.380335214591227 -0.4668359723256283 0.39346465852232887 0.49535927657630174
Ni 1.9001082520155956 6.565210333034565 0.2518544055437122 0.0406419418910784 -0.16613157365617195 0.16177586779063752
Ni 2.9715363634443754 1.848599021425199 0.2698948251129798 -0.6453502359168691 -0.9436645370875942 0.5142422295237337
Ni 0.5978898954230152 0.18673969562348755 4.694769772657354 -0.013714007151982835 -0.2038424579433844 -0.29837472209501514
Ni 8.499330026177947 2.3472137908125177 1.3249690944088262 0.7255079765143827 0.3247524407575956 -0.4033101838578409
Ni 6.909062662185251 0.5743581675198162 4.587243238061348 -0.554622176002677 0.5133261454673675 0.11494913724508592
Ni 0.755384446645915 7.325199461118009 2.179514001493856 0.07079069756031679 0.4075561036183884 1.1654419822428443
Ni 7.764458983896867 3.902359172860141 3.714700346706574 -0.5056848268720259 -0.09995677760131172 -0.025099109060472902
Ni 7.648014716250181 3.84026820375056 12.695132003871105 -0.3967908946820844 -0.19117848932247075 -0.8442723737405008
Ni 8.052964847925884 8.901725011095177 6.787769032969748 -0.48024478953236643 0.12353302225935499 0.1489712598268015
Ni 6.689166551575416 0.5495046251804323 0.4367468113199088 0.15066124593471472 0.4690617763323534 -0.7722845705482893
Ni 1.915195355313852 6.4487931517492765 9.146406045262191 -0.39463579601229454 -0.006276319927014997 0.12098248792335939
Ni 0.16939990993569498 4.940046706775106 1.4089873759481766 -0.49318515174311844 -0.8190637356853571 0.1344265292434072
Ni 6.456043267816601 1.8477774017961497 7.01523036431783 -0.1476772236057263 0.4874086542706573 -0.15280297486806588
Ni 3.507521282772738 4.396297030512872 0.7770399925829993 -0.16054302382480093 -0.002540249923350464 -0.669083317867751
Ni 6.0984581534375195 5.768139976198316 4.801979396825012 0.16988641271291388 -0.6336979963899216 0.780739900404494
Ni 5.256857818464225 2.7886853664388163 9.304848619133994 0.32764853135846794 0.4904950065054649 -0.9466218199437052
P 0.10291463012877058 5.545300480983314 12.477514759133491 0.9443993583710897 0.5619102250236581 0.09635877583740825
P 3.8647903896021845 6.11086370695745 12.682935015333934 0.5870443010871245 0.4652992239661277 -1.0986105264405919
P 2.511510630260975 8.494436423552182 1.3880288523777142 -0.34462218309832904 0.02363358025853994 -0.7491878366298259
P 6.391451324671343 7.804844748740136 5.748115029217344 -0.07840861911689076 -0.9302109826858496 0.9486681609497727
P 4.805499720927939 0.9607893539082327 12.524320894506614 0.05543375548827228 -0.05373168519550101 -0.13381974889734374
P 4.033782198359495 6.158346098486793 8.238791733170284 -0.3468479871050543 -0.04986140360681735 -0.2521732838382883
P 4.7050454352927495 1.0879778782424865 3.8687025630666576 0.34017854550467863 -0.8674354421205256 0.00862553688548192
P 0.16485391561452675 5.695115145871387 3.6181022560556375 -0.023662376613946344 -0.9737778115332069 -0.8487928873186737
Ni 1.3933856317833728 1.0084162060316932 2.4940597904914537 -0.1462201794442256 0.9699057301723102 -0.5665055577038244
Ni 1.7314866235307145 6.527758924009331 4.818749466044749 1.1759415962225876 0.2993805376517102 0.22023401192753042
Ni 5.937086641019963 5.526556718896432 9.263011025319834 0.162954461479771 0.6502006220306351 0.3745698785003549
Ni 8.660286214387414 2.296309488959993 10.318694737747117 -0.022937068412147595 0.6498357824920485 -0.12722769750212282
Ni 2.3430966638801394 5.18695694848511 6.989237389042335 -0.11204224801093605 0.20319531127768875 0.23716215514143674
Ni 0.531735069225137 9.170268226774436 9.150237862521184 0.05099963097631862 -0.42405410127341164 0.42734845575396724
Ni 1.5598493801436084 1.2798757199547197 11.465413002194348 0.06674506673603343 -0.4105326697482091 -0.692507353218646
Ni 4.074592316197986 6.759591091208211 1.7228460742449982 -0.06439045046092781 0.7343065486426192 -0.12847365409408198
Ni 5.763454035676594 7.885878113253512 8.014818222291453 -1.218473041826895 -0.18763550916621877 -0.6502232477384544
Ni 5.3792791431925675 2.8437248527979855 4.907709202781668 0.24035983614312803 0.1167586796499989 0.05903792789976284
Ni 0.7317976431412082 7.346245563923656 6.968583135598235 -0.02219556226043274 -0.21290199704249138 0.27290820239279445
Ni 5.188988425589903 4.536739814357503 7.104388734371661 -0.465105877008399 -0.18690557297872973 -0.1477013919754424
Ni 8.170700232132504 7.28019998605008 9.123690519715762 -0.10987969314197851 -0.6276834147647256 0.21557877254370614
Ni 4.6300523293709555 0.3749158712797415 10.146866084072805 -0.31237772124232654 -0.7340237272948779 0.6425369348377902
Ni 8.178519161789172 7.306789764155027 4.566245890706218 -0.08957414881540703 0.4175767210791841 0.5191085564770995
Ni 7.227634387365192 6.075236112932962 7.170765668732996 -0.16656146210473893 0.035872802637209183 -1.0824729974487808
Ni 2.26310160988699 5.39592822666473 2.631491473827426 -0.11505480958501475 -0.6951995553388286 0.6230194336301529
Ni 2.269493991176736 5.346080292906697 11.345517029226942 0.17681887816668904 -0.2979777437669126 0.4559496644304276
Ni 1.1522809001995074 3.3092942612806855 3.7827557325958243 -0.1866500053244979 0.08669194217160553 -0.35707275015685597
Ni 3.6816956153440508 2.6118655992377073 2.5706780780970813 -0.47981618663538006 0.14025084923466816 0.7351773812833468
Ni 1.1454190219788762 3.326647590149177 8.2183090266817 -0.276638101748872 0.42640563222472366 0.36948012268227337
Ni 3.6111627302656673 2.743541430776769 6.975481128967397 -0.006358852338492274 -0.20300119298901168 0.535702970500671
Ni 4.087675028752847 6.787661590402872 6.048877471778606 -0.05806399402226774 -0.2775073917277027 -0.09413142916878627
Ni 0.7677773598638603 7.360592306677054 11.228832595842531 0.23444038533489944 0.13457359634423277 -0.041178016900206504
P 0.11470983763855044 5.524272435751933 8.048872098718762 0.9976674736666107 -0.12109870178624951 0.7204472741620238
P 8.482987921468286 1.7051045075298135 8.04970455289237 0.11368415448973325 0.13395961690931768 -0.31392501112478843
P 1.916323953705403 3.3248237751484297 10.560441416096097 -0.9400626786689487 -0.4996617606063975 -1.2277691224168406
P 3.9792302665054757 6.072572620728902 3.9307050500623406 -0.4814796903807321 0.22701452518447354 -0.3211410692572534
P 6.910290577235259 3.913563897691461 10.383683947526203 0.15672313585807846 0.1440817929449841 0.6722676291330035
P 6.254954120803575 7.770056831918962 10.196248132414807 0.2669532703609402 -0.722617028119833 0.4568824606573422
P 2.2788658722201776 8.452958175465893 5.860002467998304 0.8766842144123029 0.2186504694904944 -0.449254254688123
P 6.892991421089563 3.981279801184533 1.577737213210338 0.046003720423623995 0.2859727488862365 0.29977365932507083
Ni 5.275005680600368 2.815744641474648 0.5551403941084824 0.05358410387404319 0.11322469835481144 -1.161294278623058
Ni 1.3221936452443233 1.0860005738604888 6.968781768915148 0.38605808164561256 0.6174365402257367 -0.1344671526733555
Ni 6.971162660081965 0.5439609498811327 9.158378216999765 0.10345244945939602 0.912300935174648 0.36891268021457757
Ni 2.679310639116807 1.5282666827544396 9.072298663358087 0.11013706056842322 0.42724766851004486 0.2743876151517984
Ni 6.3107610540689985 1.9970322818820123 2.497456420210666 0.6951077669559707 -0.016788789422564634 1.3862552637126127
Ni 4.142263075755396 6.8965397344326 10.475022769672512 -0.26274154627243784 -0.027413359015946333 -0.3486899254097995
Ni 8.08359952266615 7.139675943121257 0.46233981132543694 -0.4773682393155198 0.08420080031863562 -0.6080656405337979
Ni 7.6628399847215976 3.784154291722635 8.253195357282618 -0.14385605008742322 0.07594190274395309 -0.15323800552295547
Ni 3.129955462469634 8.48131759584879 12.318478091068375 0.037628608986051325 -0.07870249620822574 0.0849639037369053
Ni 0.004022324667488467 4.8930428409637825 10.360425791873114 0.2249206187699223 -0.7343834246271417 -0.8953216270078324
Ni 8.52740052537261 2.21397597909955 5.607987350043634 0.20152255156095614 1.061517478243036 0.1499217966655289
Ni 3.772949566891314 2.5175599176396894 11.253253659278274 0.4324400113442617 -0.05343703677321764 0.15759885359481243
Ni 1.1442994523744574 3.4087914954798393 12.668702938177116 -0.6271756218903715 0.4500908916568055 0.2510134592022322
Ni 3.0477934995647065 8.251002264888154 7.944398197052224 0.7313636639642113 0.37076310315975497 0.10252530965943633
Ni 5.385906272947756 7.804655144210355 3.6585250389261477 -0.03938878621026765 0.7272483562442571 0.0864253187737802
Ni 2.8871533189048755 8.444308597393045 3.5563372261615362 0.708457191679683 -0.31690260569587353 0.7562318879608009
Ni 3.485138919471494 4.342611862223564 9.381360367051458 -0.2028145308995023 0.1025592482211653 -0.4404335710726995
Ni 7.330427128867674 6.244354324710127 11.457391827705916 -0.7211409577949387 -0.8733777757468892 -0.394812687909791
Ni 0.7371995664825288 8.923971942589436 0.046185857697127956 0.0836133032462818 -0.4585919871492812 1.0275604045713014
Ni 4.552395731245101 0.4584493069500817 1.7433016943721855 -0.4635457316101307 -1.1555830871708936 -0.4201925614354763
Ni 5.769006739763027 5.488780273534431 0.44364119317421674 1.0044503009163992 0.6398506462548786 0.37599864052708143
Ni 7.872289788619235 8.710450155695082 11.495713611810714 -0.3101388046094788 0.21457167143543046 -0.4448257866031242
Ni 0.01809278653463555 4.987348522561799 5.777966005234517 -0.2922251575538516 -0.901589462294415 0.17914418386575598
Ni 7.901705577096625 8.702288132127382 2.338894666348716 -0.09729697138096147 0.839192131004116 0.9626235946886001
P 8.449771013608151 1.6712014118476157 3.3671976789182545 -0.1117080045999689 -0.6021287062240727 1.1181943621097905
P 1.8219099266617962 3.2731610551767822 1.6050646432240023 -0.47124232892344003 -0.17556829358903955 0.11414078241117762
P 4.684875124838946 1.1148204623871403 8.090789145859686 -0.1954274944068118 -0.6937216852417213 -0.7757727862072059
P 8.525522537649067 1.4753128462228573 12.47463367315954 -0.2979499758527708 1.1736474008717723 -0.2655095959358782
P 6.088553573953266 7.674812156459172 1.4841520288254864 0.6487296939120634 0.1879520119653731 -0.5149022317052359
P 1.6874441998988206 3.3664825989773677 5.964516096328223 -0.07716549073840905 -1.1297681829903188 0.13073931019980709
P 6.940907194401261 3.959213445432924 5.988157072555724 0.618185245466303 0.17974247957138723 -0.22593826140115925
P 2.3853604164469484 8.564797761675049 10.10572912414012 0.22741047507131154 -0.2784579285664301 0.8612131153598975
