# total energy = -340872.9378536106 ev
CRYSTAL
PRIMVEC
9.20465565661351 0.00000000000000 0.00000000000000

0.00000000000000 9.20465565661351 0.00000000000000

0.00000000000000 0.00000000000000 13.47194397430461

PRIMCOORD
 96 1
Ni 6.235675441120458 1.4940352438483615 12.870731678574767 0.9581946123829692 0.09015830345365118 0.13845416234556154
Ni 1.739845568264585 3.752811673734869 9.784713531520415 -0.42705843531737414 0.3824662505292961 -1.5575313576842014
Ni 1.7470896321221236 5.148697676270735 2.9483754109678344 -1.0392036452371844 -0.2508427379523228 -1.2862879445883395
Ni 2.5611769761529817 9.348892424633057 6.871163014070512 1.5490963395429709 -0.541873618087757 -0.7936159850362138
Ni 8.766587510077013 0.41914411210071517 12.304963848042172 0.12696107410429747 0.7120274255294446 1.4150683312895629
Ni 5.445851568917391 0.9790071561471461 2.022920019899181 0.6094290965402279 1.6721629636888686 -0.6275018948815386
Ni 6.060814601092934 3.2913822948550604 11.26379765348339 -0.30015418259294113 0.12513764774231353 -0.16869856305239977
Ni 4.927288893514403 5.786534277297592 0.5378050076700581 0.8873645769442847 -0.6359327992577113 0.6687192496601129
Ni 3.2901488710216293 9.028634846748254 1.4886495999308955 -0.7338172677110265 -1.5885987685129672 -0.1317466684183989
Ni 8.931599368748035 -0.032969234974500265 9.848516521399596 -0.10188459075164388 0.6041336524692434 0.6848228400901948
Ni 4.244515164466576 1.7472000879878042 7.838798738845862 -2.1465502659991933 1.0680164557038188 -1.3267265122193603
Ni 8.41020165945925 1.81395224948065 7.787739594469556 2.3050536336861462 -0.3930118872556264 -1.353044581288599
Ni 3.0078789062754057 5.908652441462731 10.632246911679292 -0.6640336712589855 -1.5379961158647513 1.1499999366561613
Ni 1.5458298401969888 5.799024994774948 8.257560857744432 0.015915385678675818 -1.2387071094855828 -1.3602102457991025
Ni 0.6338684740522891 6.948566802877136 6.065971969554661 -0.7034977907918787 -0.6496401215414748 1.421458808196939
Ni 8.503095042496454 4.293134154676893 3.1691665613419038 0.21226822011323443 -0.9033097874196313 -1.5031376134246694
Ni 6.088419362857557 8.291341943331684 4.177542091242369 1.170049913328501 -0.3215886983176332 0.6653570180560993
Ni 1.3035264895161174 1.2904282647775185 2.191966279064179 0.165069965160877 0.3057478746306347 -0.7589464586784865
Ni 7.227983324426616 1.1766771324376686 10.645934234368188 -1.952607583668024 0.0868904313356568 -0.03580878216849317
Ni 1.08913165423049 2.119648062406589 13.181191821173721 -0.046007577078365926 1.1881239972213926 2.309932301934686
Ni 3.44427162226766 7.062078614174679 12.966840247768818 -0.5757815836891115 1.7504162881748178 -1.677772596566162
Ni 6.37982034583336 4.178600626621806 4.977304229960029 -2.31476623298822 -1.4134760471017784 -3.1133647588406896
Ni 2.5449123499315447 0.2745362132175024 9.812209678350452 0.804045407899654 -0.8138577660043854 -0.43679417454789937
Ni 5.927788920191857 6.34705177234818 7.563000567362962 0.9146486094712183 -0.019344208854566686 -0.802403758531173
P 9.077999414051913 8.905264849438737 2.7389400440512564 -2.499062136258244 1.067521518345271 -1.9954465332104214
P 2.817517426430735 3.9418384785359013 7.811747176875188 0.6343464286071978 -0.769596739303481 -1.332996404388472
P 2.9567470451208604 7.475294007684998 8.651385724034562 -1.7723966491006506 0.4030715854844735 0.41449268283722157
P 6.676762531404129 2.947818529311696 2.8410307188374473 0.18149031550042938 0.10897235083636071 -1.1566999743841564
P 3.4991958014772315 1.958916368530682 3.3420253888039695 -1.3245732133217833 -1.3293999452864653 -0.101292979914232
P 6.845695573306804 3.448487354474461 6.990092685579676 -0.22460617285329704 -1.6614872291425773 0.9779342569037416
P 9.002355555371794 5.227738052820524 9.433323967893596 -0.12936299867757076 -1.175925912493304 0.7113810501946973
P 3.05892792553069 6.694665586299824 1.5468082950738076 -0.3160070904647977 0.02761673327600405 -0.6936676920753344
Ni 8.390301194325835 3.4787062383935203 5.346893238388786 1.4306952391935424 -1.0499531704442047 0.38298227093376624
Ni 1.734074249282785 5.414325623921114 0.2286648126659858 0.647889200288639 0.03555372873489361 -0.2248170033125225
Ni 1.0766593460640799 7.1966322678843335 9.861139785915768 -0.2453308069951581 1.1549868483477914 2.6283076355213444
Ni 1.6382261718386308 7.871066579073292 2.9454382054062838 1.468917515899535 -1.0129912485078747 -0.17450308554931881
Ni 8.330286840639493 3.03784005984121 9.589814156527375 0.4193631235556455 1.391538880709055 1.5448859010060492
Ni 0.8776519333332774 8.353381321222166 0.7396014310092902 -0.027369393151888348 0.3668815087171617 -0.7238789255513921
Ni 4.359987567379945 3.8174467644688406 13.116284272637737 -1.1106229775204357 -0.5410734907839649 -1.2642355927739906
Ni 6.5490571413666565 3.52648760495576 0.579960488806977 -0.0958790079875123 0.2896082887562948 0.15979766101834414
Ni 7.610004140537702 5.987628385424205 4.784371889841647 1.0510119507260223 2.13684100913123 0.3566983975365728
Ni 5.401015692106628 7.9067070050661625 1.8849403934223388 -0.17122672879089224 -2.0092371592366107 -0.39650473090023325
Ni 8.079018155527564 1.701581815461805 1.3268704162621194 0.3351949762471582 0.3988205235176035 -0.0745769040756264
Ni 6.7342271955243485 4.845376664456924 9.311712980245039 -0.7031298659294988 0.07987157681566244 0.5302262636568158
Ni 8.111657863836117 5.100548123489561 7.220800011295202 0.5825415281207644 1.203145153220573 0.6100402477616655
Ni 4.476003044966243 7.589174005201476 10.346937569695765 0.01573592267801806 -1.13937202462867 -0.48099478032451354
Ni 8.706287812070997 4.827298721107235 0.5977429627159717 -0.019257562678031352 -0.8982156607261756 0.20555506975911694
Ni 7.372965852787596 5.249727974746394 11.985328504867368 -1.0786852482715745 0.41503235739077554 -0.04231547293875938
Ni 2.2874949549634076 0.04547191850397252 12.269262671323176 -1.646256785346068 -0.039451006906770766 0.8346299655547303
Ni 0.9004619900618244 1.9368804233274453 11.016978498827285 -1.7413996864985042 -0.8288730084662951 -0.9595552401759216
Ni 6.067469567000178 7.8570294794764095 12.206901130491126 -0.05600119795596807 -0.692723068773878 0.8606906671975241
Ni 4.090475255119806 5.62622599757346 8.466227635928984 -0.6891492353796905 1.4887813447029972 -0.3141736368004847
Ni 3.9392979936252526 9.068840781855913 3.8358662005365924 0.07501527716462564 -0.6294952711624836 -0.23798850769747398
Ni 4.246825532990391 3.5036324454153935 2.171111291158175 1.9180768968810062 1.4499162922066837 -1.4500219645466126
Ni 0.8159144681423209 3.660194430361866 6.8926908622916185 1.07758841566297 0.2644104493344285 0.994330695983894
Ni 8.6990989761463 6.643358836691285 2.4789186520497037 -0.49158489713553394 0.4550613482882034 -0.44143681552623326
P 0.29739505462005805 1.3913941306648636 5.777227450148471 -0.43673015407918336 0.5246870790061415 0.29856524083926644
P 5.0405337698032175 0.5087670810482322 6.151438116090406 -0.17249762508351582 -0.7426783176460822 0.42607164592407265
P 7.0779290308998135 6.281017573982256 0.46225319554467476 0.08513642475902758 1.2062335623379097 0.4566626313370522
P 0.5061888570501425 5.268302969491645 4.739915244836387 0.46008554097567217 -1.0578845094761393 0.7093110550395462
P 2.402470306481215 4.103757572967872 11.883763415908707 1.7215818804416285 0.018515542305684238 1.1368418020076487
P 1.2361760254175027 7.271576572748476 12.268602697525736 -0.05450173059230613 -0.2044816341892801 -0.5439366712643728
P 2.2891609976040868 7.540334103259799 4.897226488738392 0.7885887070249515 0.9203713708876086 1.5547124001781676
P 7.4712807778986114 7.363254941263195 6.663694682028591 2.006740360956686 0.730817047432122 -1.0297047046078136
Ni 3.133743365218204 2.2157814841704173 11.27941151056286 1.3978401403367344 -0.016394896418255634 0.491618835697263
Ni 7.56093412220919 8.502054916427964 0.9379580745981257 0.15436671981075997 -0.5247027627354254 -0.1725955841139608
Ni 4.713354291002444 8.351347092362552 8.053770706029669 1.1666743119880487 1.4225371288627824 -0.15545481066861613
Ni 8.164860772472169 1.478755515762575 3.8460916523019537 0.829582890049126 -0.12420176619160547 -1.058271974722545
Ni 5.5995417013561735 1.6679664136730745 4.266066024326367 -0.967781741850772 0.638299756827991 0.22076623028191658
Ni 8.577238542334413 8.289703514657425 4.664067963270308 -0.47728699245562317 0.772837871948598 0.8536116488635557
Ni 3.3102518385754593 1.9339625475423883 0.7721030694857436 -0.17296170920412793 0.389895967334464 -1.1845457929518308
Ni 3.6205039559607144 3.8434223022146776 4.324709804812725 0.6571667689358232 1.2810997155191808 1.6133687763687956
Ni 2.723409028871047 5.553730131065234 6.194938397391984 -0.10704196658286726 -0.46675446835541556 -1.235894322627136
Ni 0.7160798544126522 8.718999441279715 7.888254432238706 -0.9289249168845742 -0.7164875181833275 -0.8896906539743001
Ni 4.1443316942944675 3.699038076459468 9.53374399771137 0.44866572917450465 0.12211968685159613 1.0149884814435617
Ni 0.41273491049461075 4.543095778711604 11.6008656936592 -1.633714172794367 0.4063438284778421 0.21248496410973083
Ni 4.353912494767524 0.24947285682907563 11.550372635594506 1.5676663892356744 1.4309536350612517 -0.732476437412416
Ni 6.342661151687383 1.124192186928539 8.281581326667727 0.9039931866399012 -1.0592024569566145 0.5167783656820262
Ni 7.134390387573437 1.3776791940095492 5.907258856624064 -0.2442601996387987 -0.6483394004521802 1.0914250644357462
Ni 1.8709934994490955 0.6509081322645831 4.400825862318626 -1.0843722713540227 -0.40283658665553207 1.3686105540476556
Ni 8.061483286850802 7.06339487990737 8.9268598916448 -1.0454840789292577 0.9518110774541284 -0.8653770169296001
Ni 3.5691880016967024 6.299675410626768 3.5127284859541734 1.1628436253880488 0.8238431593518715 1.2792258955352356
Ni 8.320198538240684 7.578054781389651 11.527336144341314 0.3201121137721068 -1.4238823300367671 -0.4602606331009557
Ni 1.39225936827936 3.0171387896816113 4.1351049476479655 -1.0213727877033507 0.2394545507200392 -0.5439744664808438
Ni 6.421710732892646 5.20199263146152 2.349345637416686 -0.22402510353884644 0.46257771126990654 1.2548857761279744
Ni 2.6206022318890287 2.418596862870551 6.018307502116933 0.9396808698494978 0.049010368460431726 0.8005137405973116
Ni 4.8775561399918095 4.2392132829139175 6.57592553069341 -1.8147730571843326 -0.11538751033408515 1.6783318115037418
Ni 4.2736571036952515 7.520157498462182 5.813897877088812 0.4962776746255131 -0.2777547318518184 -0.4405359009785187
P 1.0912119063674706 1.5130152434344408 8.930767267893243 -0.9280240023368598 0.8673665365558029 -0.7394680382389007
P 5.2689012720974135 5.51255770713287 11.036162841764872 -0.08603322554168409 -0.30914121658289984 -0.23053822206701588
P 4.899002987244751 0.11165431182301723 0.08401549283314287 -0.466495558267074 -1.423346255027639 1.1478643783703972
P 5.434686321828198 6.072384853022954 4.417247888148657 0.7552751804744864 0.4453037546808073 0.32945524554990363
P 0.9180658936546358 3.427252214297407 1.8536721787793167 -0.2708271514940497 -0.21886772770762306 -0.9738449173257164
P 6.421314932707292 8.281750692328437 9.89357975320055 1.4730194538830503 0.9328641040379805 -0.04366941586349254
P 8.140081839937869 2.9160716725840583 12.439898574488426 -0.22988001965772667 -0.2661053205383482 -0.014553472334142677
P 4.946094004646489 1.818536167906386 9.827648646975929 0.8229916099848537 -1.2754309472691776 2.191631474608548
