# total energy = -340868.3631368447 ev
CRYSTAL
PRIMVEC
9.23102764270899 0.00000000000000 0.00000000000000
0.00000000000000 9.23102764270899 0.00000000000000
0.00000000000000 0.00000000000000 13.51054204167675
PRIMCOORD
 96 1
Ni -0.08291124323710161 0.7960542765135368 3.3276063493794483 0.4436330518466037 -0.8744463262207198 -0.22799257282702673
Ni 3.024453866062924 6.181576060056066 5.785605594737152 1.1502804440110577 -0.17152651941949812 -0.00559754869243552
Ni 2.885766908170941 2.1636328540620515 9.980075586750866 0.2915175899638657 0.7782176482032725 -0.18281546206975613
Ni 5.537481112844063 5.697196351492033 8.84485212673396 -1.439981806701791 1.212868551155924 2.462560698898101
Ni 1.1753867377786356 7.1522186068040705 6.434976074193249 -1.006117661316493 0.9268454086477262 -0.32476786737656327
Ni 2.7191376298889796 2.1047573603563094 7.138659150437754 0.534805398387066 -0.12308719297118802 0.8605150608516082
Ni 9.098654613672267 9.276905755638069 9.315572683834151 -0.5870286173578406 0.27697465915268427 1.114996423997783
Ni 7.958253470303284 2.5596531669297278 8.736024773653824 -0.29480963045157615 -0.20349818723008822 0.12728117644787756
Ni 6.089422712037184 7.5620300748295355 2.029864187648027 0.10530827172121218 -0.031367972788320174 1.1406532053339387
Ni 2.184661134818038 3.131829178509646 13.460741603915656 -0.0784772675712971 0.21395640644893477 -0.26964290137796143
Ni 4.743077344056237 1.9879848618649898 5.936747978100625 -0.24478521890433327 -0.04750755866266011 0.3260667886936449
Ni 3.7191717683521124 2.467730594599565 1.6867773560529808 2.3405181451413433 0.19725863407827962 -0.13634637197393937
Ni 4.14138050637551 8.777442548059426 1.229422403740583 -1.2065942881114382 0.009002717719242558 -0.05444002411643527
Ni 5.07107421491739 1.5351937295726799 3.7142774775457807 -0.865495030564703 0.03571288002057721 -1.769645825828391
Ni 4.791549469714571 6.622597632223756 6.900050011741887 1.8185695481122874 0.5282442002297806 -0.03411853895026382
Ni 1.9048133036510144 8.18561367882828 2.239777754105941 1.9923820353524848 1.9446304789998188 0.6019641556217504
Ni 1.1454043603003898 1.8235617991671726 5.175982996803093 0.42868234407404243 0.03817136886339877 -0.9483660563283216
Ni 4.230589156606349 3.7560681854643496 8.098313081991762 0.23194384416529085 0.03313380643949132 -0.35681795383357257
Ni 0.9805012841700393 0.38661204959002005 7.179299672323753 -0.027349338547230317 -0.496067615497236 0.09798756969008286
Ni 2.786274893250827 1.1188466940427197 3.1731260264543586 -1.7659994873250553 -1.0295689503608978 1.6289977411553045
Ni 0.3462235347561014 5.175920225815761 2.518364626909809 1.1852212217523008 -0.5593830877264302 -0.4678019357833233
Ni 4.358060416026636 7.763109547923324 12.449681003045576 -0.8929215022067719 1.3653298264138551 -0.3551724478103496
Ni 3.253318732078362 9.162173314235016 6.391689016709031 1.4189265286933885 -1.3578648854953774 -1.1482731837730418
Ni 7.0979309337900425 1.5558804623093634 4.602136169236856 1.8437591600040373 -1.399154488272784 1.0609492644443923
P 9.2629669040395 5.676306536149277 10.039467094896581 2.286743522523049 -2.6865258957332894 1.2771456159674393
P 3.9079370506959066 6.722717357017183 10.61340900204657 -2.018283328599279 -1.1697005004088823 0.049639517403998384
P 2.859689255345804 0.20378970278209238 8.49364568330706 -1.3042044198574443 -1.1675857680587245 1.4060738411004365
P 2.126081033993855 5.132672861750003 7.245109513924095 0.0248049748588218 -1.2636578658936495 1.0279532691343458
P 6.473562692449657 0.4621532404322229 9.326313907489842 0.8261175572083449 -0.2855348900178695 -0.4747387721124726
P 2.488925033851428 1.0284933963958394 0.83474982089502 -1.2126242963556018 -0.8860661698478353 -0.8904756117694407
P 6.0908350592521385 2.810857119613071 1.7156492409171151 -1.171889537640401 -1.1418886204029366 0.7728959788800431
P 8.591548115283285 1.6307348647019413 6.366653546894145 -0.15485342963919138 -0.2481965585787274 0.35518890287058186
Ni 6.727046708937534 4.559416819946886 7.588412351563781 1.0028811566570663 -1.851494323864766 -1.780468884585824
Ni 6.762383082394037 7.166102072237347 4.702019579725037 -0.9789817243316493 0.2104432510893537 -1.5117299830793707
Ni 0.8168480891697855 3.2682545346521925 7.273332457551554 -0.321690256892504 -1.0220520731585625 -0.13185594030275355
Ni 8.225777879692766 -0.028680802593875915 0.6530471977287521 0.6694720686657373 -1.4237231787510836 0.555803597905288
Ni 2.6090299332878364 6.861930483479443 8.71844705099555 0.5644299061217183 0.18773243975539927 -0.5398681576219542
Ni 4.274141144581215 0.28938532883036205 10.809879423085281 0.135565785054173 1.0281808117641196 0.583344483638034
Ni 9.34069215599973 5.269199759195587 7.92566240443977 -1.032574569956441 1.6581476232463828 0.9693154048864789
Ni 7.238639486715195 1.8619628737698517 13.181371016872902 -1.1929833821962228 0.288353076192955 0.46966084336893305
Ni 7.996349920996856 6.145048884045777 6.229508170602799 0.7808453156341068 -0.06967689567084775 0.027798510269506967
Ni 8.084035451682157 3.6116949146023543 5.829704059542902 0.19830558728555525 0.6746806094498704 0.4318352878807273
Ni 4.567780130906027 1.323618578155996 12.977159456131833 -0.13601675654866252 0.5709620508132812 0.48848646071586843
Ni 6.782312870871726 7.908276687154509 7.713289692242877 -0.6575619474917127 0.3331949150979939 -0.4739998370639192
Ni 3.494645485284573 4.662075077316212 1.9917917376260823 -1.4141154804579905 0.6615978081239832 0.4853826249795641
Ni 7.8753957670259656 7.2854869515249545 12.680427152475442 -0.09771888940972848 -0.3621221396553054 -1.5351661026151238
Ni 6.191748652414756 0.5161381357426527 1.7872552447152985 0.22972138259267535 3.5141349498854964 -0.35867043366127904
Ni 2.1293211246634556 4.542284032816459 9.443017173274548 0.6558758180385413 0.7465989928567272 -1.612566077961842
Ni 7.809929319650437 3.851793941144586 1.1386481712374812 0.19057530852083307 1.354366642534132 -0.503953703113532
Ni 1.3123659555741052 6.628616262185523 11.447076946512878 -0.9800207071191253 -0.41452430740610546 -0.16598064990060446
Ni 4.90868197828029 7.973272352125054 9.31399233191781 0.7655572791267847 0.615969725872223 -2.069583778645468
Ni 8.564048884215644 3.13418309053457 3.5773213373191823 0.7885442269402614 0.7771688952237841 -0.9186821561106437
Ni 7.677380995078353 6.798430244971793 9.729346108883526 -0.5939762523202673 1.987675116795119 -1.2885412593988905
Ni 6.59427683970428 1.2977901630746749 7.088035272257814 0.20723991366070763 -0.9899433655494759 0.38523404308242043
Ni 4.6225016622148445 1.2690078191777632 8.527542939568717 1.0679202964455867 0.6328202217706586 -0.3553981906679105
Ni 2.7873641545015757 6.462910086658433 0.47645764072172087 0.28912877801671494 1.274363682346928 2.4655714606999664
P 4.0230018090907125 6.849219358544855 2.3406608848776473 0.14841333044080246 -0.9277293539145764 -0.1538337301254254
P 7.013753193573256 5.194243815499973 12.818423629506782 0.9475268482564778 -0.2494620555547123 -0.2632693937514498
P 6.1357624703317635 8.840952017594626 13.26216373928757 0.15684500614792343 -0.09670973141892378 0.06343605696745849
P 7.278314443119599 8.933576148018492 3.442715416706489 0.40564448841797235 -0.6454947319145334 0.02831273090176414
P 9.114070429678632 2.9361775496145057 12.92972397486722 1.701792099409211 0.6060059297912919 1.597560091471313
P 8.876713018318371 7.671251592786002 7.797933599350874 0.2808192297097551 0.16676329370289988 -0.029459700022013778
P 7.9639028591631025 5.423745622416272 3.9264203371567103 -0.3206317337210026 -0.599638078591735 0.4138000276455712
P 4.242589492419686 3.2570019120703013 11.52735642379584 -0.9224634775299467 -0.6224712744361667 0.7592341651222343
Ni 7.940769904126007 6.507920576985996 1.2303750457836113 0.6262004024612957 -1.4616371801880377 0.9487368094041789
Ni 2.288888666870646 8.478209559040089 10.547355461318942 -0.43512372882401196 0.39865648713591345 -0.9870241350201516
Ni 1.4164642532410312 8.533143403982526 13.328270819974982 0.3445103401108131 0.5388258324003689 -0.5681348657771312
Ni 7.764180347118975 3.6712350422916047 11.329089644796149 -2.0153088193519872 2.9131365006111247 -0.13824693143076192
Ni 2.9118260989409803 3.5532163550812075 5.204787495166122 0.3854803547652716 0.3447383969612192 0.45676213302939406
Ni 8.472984797447511 8.775734807962912 5.389071113635012 0.07015486374853079 0.21917137499097092 1.4088688873470703
Ni 4.45632470428277 5.198425470979543 4.1036108340571635 0.5715963419631704 0.4345089780581484 0.5708026424172815
Ni 5.958655975782004 5.295360491268662 2.3206249395831486 1.023648985332037 -1.7878235251786823 0.7036078340071819
Ni 8.835847259360182 1.821927907291049 11.229732402878245 1.3658769571665765 -3.511144499798604 -1.6572341102931782
Ni 0.06055277141134466 2.0143209834614906 1.379615837472047 1.253703840004731 0.23759230070031986 -0.28869991800941247
Ni 5.965597708498642 6.336758864177614 11.066214903982958 -0.05238519846993559 -0.6557079250021094 1.9775938212997168
Ni 2.430160312476271 6.208936825710474 3.761739728790284 -0.6293623451290452 1.3608859317098885 -2.982148509004464
Ni 5.963945354567421 1.8354513626499254 10.995162761837697 0.324875339488705 2.050894686876397 -0.7936437529503557
Ni 6.0740992063063075 3.525034027974962 4.659840245546666 1.2810449510218456 0.7657105168751974 -2.966973086815606
Ni 2.9641752561697765 5.412428382641541 12.228121572232196 2.187624153221368 -3.241901919182855 -2.7294350363919895
Ni 4.628298747515441 8.219150001912784 4.021818391358966 -1.5591187567759792 0.5782585844746945 -0.2491069862081387
Ni 1.0298595884730501 3.7375322821465184 11.133443554517536 -0.05567569629574927 0.07096630390623261 1.2100207972944836
Ni 5.436290588854984 6.231543612177292 0.13522716876672258 -0.15064196266100507 0.7195376178635607 0.5602870875979383
Ni 0.8952038203115933 4.978357774218036 4.979850431372665 -1.007831044463174 -0.6511131065425754 0.7935149406819753
Ni 0.5782214115215751 5.004620047594147 -0.3368328104307876 -0.5956772941717742 1.069088862832391 1.1259030436079578
Ni 2.233548656716064 1.1374656766084899 12.003954376136303 -0.2807865766996067 0.37667201244502224 0.7474775388069386
Ni 0.25678041642552485 7.43614655214763 3.602640199679814 -1.3295886642585037 -0.5603968737029252 0.9503483768656731
Ni 4.991262750731148 4.015035432316167 13.793317987543729 0.12219476306390568 -1.0955732822761648 -1.3657252620800608
Ni 7.3550427441045665 9.217439476169208 11.419353401475806 -0.7036849671020203 -0.6042141279981917 -0.8312710763848264
P 0.819919252035245 2.2487798521714533 9.316397014594251 -0.0009793331941337973 0.2978373615343064 0.2928080266405151
P 9.392847461650003 8.486249784035024 11.501132920735433 0.5443819863319076 0.8847351097412376 -0.6409420795468446
P 1.9073610672544612 3.282165693168115 3.314338593483672 -0.697401962306786 0.29091055250748604 -0.5220429565150752
P 2.1306319305753743 8.479252665153094 4.644316426517982 -0.8616548308830063 -0.26618656739824476 -1.1045526029566397
P 4.948246162354109 4.338398327347861 6.033538071257228 -1.3479630530006335 1.0006936620874443 2.836831558100798
P 5.508791079222638 8.550682356325096 5.964214900571844 -0.0822364775034132 0.7019852108020943 1.1431464040694377
P 0.822618404490491 6.938778787822546 1.0784111009683026 -2.591897986544059 -2.013608805941745 0.03143610702209424
P 6.313072047487594 3.801337144563277 9.704230329128968 -0.8941407193258537 0.16266495526381017 -0.6285676171418916
