# total energy = -340896.1399251028 ev
CRYSTAL
PRIMVEC
9.01876564144984 0.00000000000000 0.00000000000000
0.00000000000000 9.01876564144984 0.00000000000000
0.00000000000000 0.00000000000000 13.19987514706859
PRIMCOORD
 96 1
Ni 6.466806648729291 1.9331363258184404 11.398382203154664 -0.8409757052671001 0.35280291913690853 -0.10310663608420308
Ni 4.671630379903025 0.3973145023693968 5.977972418940172 -0.7188670741590973 -1.1580868274293539 0.36251423288740153
Ni 2.9040334962033905 1.630250102766522 4.7061379807439385 -0.7287426814015966 -0.23954813887511 0.5910999592137368
Ni 3.4109332153146656 4.313224635974868 4.8056122594003154 0.47059698202995726 -1.1316196343767608 0.019881826525591565
Ni 5.15977106661947 4.483679305331742 2.781107721423804 -0.07028161913438219 -0.5538986675730913 -0.1196776530690068
Ni 7.207409640170972 6.150527558799332 2.672051004344587 -1.002384933746938 -0.45195134190431197 -0.3185439979540385
Ni 5.041174299315614 4.415335099808653 11.42036003298301 0.7940713274060776 0.2532032677646994 0.05618786004547743
Ni 5.688108391501184 7.841293578570332 12.296898368545406 -0.5274769830464529 0.4761307673639929 0.3816980049047039
Ni 1.9594621025302241 6.523417440240037 0.5317644558000003 -0.39272700902535596 0.4144422892152604 -1.0764517309553654
Ni 2.7359687997237425 1.6776707721569155 0.48118270907576605 -0.6606814669573009 0.18348729132580013 -0.4258718712084408
Ni 0.6684754137601154 0.19378441214482967 4.804305440268579 -0.8647897769675623 -0.8041922178901635 -0.35718973535069454
Ni 8.58809246196165 2.1777432857283414 1.3196690689264932 0.24127360620664895 1.2604900096886293 0.1422434541846647
Ni 6.847768325359117 0.5447460669678461 4.730862024689703 0.1303968392587238 1.3340816670328508 0.17217675140898736
Ni 0.6135105469667044 7.270279454990377 2.506299621234782 0.03091880106604352 1.1741279400526166 0.15044475904853447
Ni 7.670225633154396 3.8772304518098224 3.725453645957609 -0.6365907445566844 -0.7308548426485929 0.3151797094674959
Ni 7.525122713827267 3.781757799438824 12.431536814176516 0.5951695012974202 0.37091197003279347 1.2987269416826406
Ni 7.8862521249589035 8.888047586201878 7.002468113134006 0.8818639588410295 -0.04868306702800003 0.36409777532443743
Ni 6.708392322171756 0.8495307401731836 0.36609965283971024 -0.09916050695226149 -1.0947127340480824 -0.23022480459165512
Ni 1.840297152995178 6.367023026413712 9.31376578887141 0.48685663842192933 -0.248525659783372 -1.4228410332564463
Ni -0.035953308962496204 4.984707808054058 1.5645682368410063 -0.46330944722960854 -1.7855259873937572 -0.06966069772093164
Ni 6.352087950622442 1.9187423759616375 6.942764786907785 1.2639322026009585 0.39027931881581174 0.020059489754036423
Ni 3.34269723497847 4.426626594307848 0.5954071788291354 -0.14147135190533056 -0.5855911135803656 0.11169129242942055
Ni 5.912504297758771 5.632787283467582 4.918128574953887 0.3279807178869061 -0.5874626195714656 -0.7598463447849365
Ni 5.387251390703515 2.9072712330446135 9.218872141250289 -0.18845157730961096 0.33767840479064426 0.23046648828881597
P 0.20862839840379682 5.5024390646202335 12.755250072569483 -0.1642076171605817 0.5425184507606076 -2.3202331696400624
P 4.140488218927661 6.0995174207103116 12.588179244056139 -0.9928253150829611 0.7755133618982321 -0.8392229842420514
P 2.4087770034487144 8.503216859140618 1.4935526729547683 -0.6198258663935196 -0.30004748181174773 -1.3357922219660543
P 6.294268644524721 7.849022660667625 5.95185046633037 -0.29854981422029875 -1.4077070058284855 -0.439748629190533
P 4.741588944463939 1.1436786812600293 12.574596983101035 -0.4114595524378527 -0.8517478561819396 0.08542490253372384
P 3.9101579649220946 6.1559478369095695 8.142778285451982 0.1440879635925712 0.3670974813827097 0.35883035627791104
P 4.798939274751788 0.9148004485119472 3.736554844503184 0.08420671385590658 0.44129566196267866 -0.2804515619576912
P -0.027406224827601522 5.6175365508812085 3.8018146321998163 1.2282185512494332 0.28406499034056243 -0.05666891344695401
Ni 1.4028960414005198 1.0886551924903842 2.617179030836593 -0.18016979691679294 0.6166865494335896 -0.0009806187457144402
Ni 1.7930207838539747 6.343880873949703 4.786090239437888 0.8233351093672013 0.7895904088165885 -0.6306232141193397
Ni 5.912801917022727 5.608824423336301 9.118552804259588 0.12817951989243087 0.17579840732197466 0.7336275202977237
Ni 8.575790865718119 2.4459613739121213 10.265397974112803 0.6451098377712889 0.5854131932416047 -0.7190287965479424
Ni 2.4224584708251364 5.102321529910302 6.904551375292335 -0.7864829735358584 0.5036413140794359 0.21899988241011312
Ni 0.5003602121932506 9.105345723952382 9.14004271887036 0.28770361553441415 0.4582474593256689 0.03816262711265041
Ni 1.52761655052942 1.2272826381350674 11.285206615837602 -0.5140236857550244 -1.7712306538170077 0.1163321336355416
Ni 4.130675801982673 6.750861689261782 1.5958119464205311 -0.10105875241623885 0.9009356307605001 0.5196099215935504
Ni 5.607453570968987 7.737244080138043 8.040809416237716 -0.8284552042025861 0.8564442332163443 -1.2862365225251138
Ni 5.345837219185696 2.7033930184688733 4.859190941924935 -0.49163760475034035 0.612488452191842 -0.8461798751758588
Ni 0.9041041925406641 7.402738064982145 6.740978024068757 -0.7352208329267725 -0.15122354619608797 1.116253950553968
Ni 5.135176892897978 4.587656653639435 7.093164427256782 0.10008327587684698 -0.3573391164443652 -0.6808530568091693
Ni 8.283988705557185 7.103621685940343 8.922547972030332 -0.4129659617800501 0.02716524756088225 0.8970730624813001
Ni 4.75953628795707 0.4580053834260184 10.418278676871328 -1.043573749280422 -0.5036492844992358 -0.06368468264315483
Ni 7.935269115855974 7.346569192984547 4.598770478456815 0.964290697978378 0.30928725524246087 0.6756370598258686
Ni 7.27908177019103 6.069331612332669 6.871564338327271 0.14033980940404864 0.16994837629910087 0.2805286950525298
Ni 2.06362884491498 5.252005982149245 2.5774342328266027 1.4805126769363017 0.19093063497772278 0.5487106956142486
Ni 2.6138186387835574 5.030243555439395 11.427474937144686 -0.4533867887992579 0.31414946843076863 -0.18598306116446034
Ni 1.0111569399092404 3.4476125349059044 3.753279243384422 0.20156497476311738 -0.646041605556939 0.7168559572663395
Ni 3.6297645432128243 2.6276895002370426 2.6584552152411223 -0.29900232837668506 0.40452117344680655 -0.3535559952528492
Ni 1.1153146635284223 3.258389814388625 7.991349603950942 -0.47459736143860204 0.49895033636166974 0.8377535987853765
Ni 3.8321095676409103 2.620203924810259 6.9062144356642605 -0.8147831060321322 0.04450785260438787 0.010328635619517695
Ni 4.070764142271683 6.70671483177491 5.910481388640425 -0.2239726530343562 1.4016361170440572 0.32887957555209163
Ni 0.946005377399502 7.1548753306998725 11.395755938619388 -0.6667353864608646 0.2613377239463757 0.8253698804090431
P 0.22691484748252685 5.432408349934724 7.949295100077339 0.6223725440747733 0.6639223424921017 0.8463899343041358
P 8.430471496017203 1.809831762884727 7.99123055624536 0.18439360519015338 -1.2993350075802848 0.39107019014822325
P 1.8333977973307327 3.159075167882916 10.384130924776834 -0.6209954612215887 0.778602285236201 -2.0057003497279458
P 3.8989025454851967 5.972388901173037 3.6602064845327815 -0.04124229447923865 1.9612115232869516 0.4097479690633846
P 6.950618327970006 4.093915313501264 10.30598692858056 0.3295642603239421 -0.272183408411628 0.41217174801352885
P 6.355343724994814 7.71130611034596 9.967344005655669 1.0975969975744129 -0.20572219146460052 2.990052337232573
P 2.5038347926032887 8.481481634106222 5.717050512106113 0.19986521846319127 -0.21596829467264095 0.7140740236458282
P 6.92294875518763 4.0078492336244045 1.664478121874628 -0.10538694747794754 -0.7949030792787535 -1.4460256989030258
Ni 5.180126420520976 2.928799026470797 0.592164932605125 0.3559666615768708 0.17183376624727179 -0.50071025647557
Ni 1.469418456277573 1.022809185031414 6.94380735620819 0.15190514564414484 0.22808770364399425 0.14188787061745886
Ni 6.887892813399791 0.8040436941219493 9.378088526824857 0.3499075998669845 -0.5708538073701911 -1.7364256303226804
Ni 2.810725347570257 1.5702933492276594 8.96197621136866 -0.02464093847713176 0.22167974323512143 1.0081722298526767
Ni 6.374292151466708 1.8675699000922776 2.468086209619332 -0.010214992859788859 1.1615560169248769 1.3982322335688306
Ni 4.123541958413293 7.022858640221252 10.448175884750588 0.20603509471932904 -0.662613136762375 -0.6624241606800204
Ni 7.981679683502031 7.218484684296382 0.3919952344335934 0.9507206726034272 0.057637962228442675 -0.41154311329059445
Ni 7.540508727897257 3.8721619055569882 8.036691447876429 0.6287028571681753 0.008125714430927942 0.37300227690291893
Ni 3.0217103494186546 8.424338735426584 12.304712227039099 0.5883553065890641 0.19348348330656356 0.5765272036058845
Ni 0.24541684505848596 4.910771967874818 10.556098041120542 -0.5490503383418545 -0.4809518429017201 -0.6391608192767056
Ni 8.702233959071735 2.377499924436564 5.738711783262797 -0.3229279859543471 0.04339559337681558 0.2700771607019026
Ni 3.5278615109872518 2.6503266018288816 11.488972997720218 1.2038172395869333 -0.14537865737953673 0.2519310859204951
Ni 1.0223582467526922 3.3199248519030142 12.43222314223673 -0.46490044586581225 0.3130456938436286 1.5182310174226818
Ni 3.1524553939512794 8.349383774737433 8.049112091825544 0.09018041494083824 -0.4331748326277572 -0.37964832146452676
Ni 5.531542621128945 7.780976074408492 3.7822258733721372 -0.9882508083384013 -0.24768516615994765 -0.8895968087089131
Ni 3.012980184342599 8.444567826610049 3.5529968106432097 0.6419733490248363 -1.00305624878235 0.5583685304189867
Ni 3.369771569232932 4.221476733786113 8.925121927725277 -0.23080124592041543 -0.5875017003395173 1.3867167767300634
Ni 7.180705075305062 6.083346774035346 11.561466737284107 0.5268601753980603 -0.16824322068253605 -1.4986435822090578
Ni 0.5629233889831254 9.077748301294601 0.40926075924929706 0.17623369508718037 -0.4811387621015455 -0.329182194394175
Ni 4.413612515583935 0.43334356896271825 1.618330902183345 0.80786041077037 -1.0709487988592654 -0.34796384587705237
Ni 5.937477259634389 5.590110484769343 0.42530243757654956 0.6928279697828584 -0.48314216568481955 0.24395500969355405
Ni 8.039634271083367 8.657690275899588 11.30265702534758 -0.1795103089559231 -0.22305631186767394 -0.0062732346032214545
Ni 0.17618699675598667 4.8486687481292385 5.877059647174672 -0.5470605616053352 -0.7489340687478069 -0.5563260460676612
Ni 7.6670059338443215 8.866231192277313 2.4003047750680873 1.1050483116461356 -0.4980635628813423 0.40142119436524415
P 8.412163401901095 1.6105440999863754 3.6455942805490773 0.38103286051687923 0.1437920296187072 -0.919944567762835
P 1.604023532476057 3.2917231719517472 1.6468825102389 0.936524069388071 -0.825173705237837 -1.0209799231403063
P 4.859653604598904 1.0655040212608025 8.195961044167884 -1.0603941632718705 -0.6443832440179096 0.3469490314592928
P 8.441095601863891 1.506458526491789 12.3441007838089 0.5321178242525739 0.5455451534020733 0.050383080438242266
P 6.184654567733005 7.616455752799598 1.4117136885026476 -0.9673533960641016 1.1943617506009883 0.027425186090488253
P 1.850172701299187 3.1916689866689345 5.871357081701956 0.0955697042772096 -0.6304488933250045 0.34342739145927953
P 6.9118195984687745 3.8616099498348957 5.822095682257819 -0.15862060999110744 0.8815094037150882 0.8374741198717448
P 2.344861011822674 8.337911904926747 10.160181447415182 -0.18592906799807335 1.4549032038983138 0.2506725309230457
