# total energy = -381174.7675016182 ev
CRYSTAL
PRIMVEC
9.16459684973248 0.00000000000000 0.00000000000000

0.00000000000000 9.16459684973248 0.00000000000000

0.00000000000000 0.00000000000000 13.41331386122559

PRIMCOORD
 96 1
Ni 7.500397633281984 6.6544320356805455 12.972726824365099 -1.8553856884993722 -0.29143839998649806 -0.3292305311336072
Ni 4.386258490081325 7.332850475339558 8.812385725441994 0.6663186106384202 0.31019973975440124 -0.15231909325311185
Ni 2.650218090678858 5.496769337719197 5.575042325715843 0.3419916874540174 1.7711792317537818 0.14364933339325583
Ni 5.612976424619426 1.693608316409718 7.551078769817233 0.22911768757040543 0.10724045574691854 -0.07942677596875998
Ni 3.458315574473377 1.1345495849359244 0.20217192095644468 1.5630998529109144 -0.22973578077037854 -0.5519117190500494
Ni 6.545446651026168 7.836124306343187 11.103313131873696 -0.344957969171193 -0.5617351328983744 -1.0204333066082167
Ni 6.622117667509394 5.515996661718935 2.228783192270682 0.7508302573292552 -0.2472017987656259 -0.11110508090864736
Ni 8.16897329602216 3.3008311437719953 6.214576297787396 -0.5897383029795198 -0.7127941284921402 0.45696936394419363
Ni 5.644429320695259 4.126634628504309 8.330781583474293 0.7947907220706053 0.7188735019170006 0.5133683115592126
Ni 4.10215599056184 6.910225095812428 11.121126358593568 1.4309235531542648 -0.10719031923527345 -0.9810090391743234
Ni 1.4215939200149497 3.0127420446624793 5.84753419760174 0.008059894189999021 0.5408580323390492 1.253243355428545
Ni 6.866143385403113 8.263680238926495 3.548559358756228 -0.5321214237969997 -1.1586195600043723 0.8273943670382394
Ni 4.4208823366356675 5.72149441483911 13.146925646634985 -0.5496041539627954 1.44111951985066 0.4475074472003454
Ni 8.821455926854071 2.862561797577776 11.236372995753484 -1.4800485928156897 -1.1101750913497397 0.58116907325327
Ni 5.883606966903631 1.0087380006325861 11.545402281996939 0.011539882318799481 0.4955251127302046 -0.29494872713260173
Ni 4.460216785923977 8.696835740129362 1.7039065737874615 3.57366164449622 0.19453480738921336 1.1436238579264886
Ni 1.2178191110854095 4.118478137389073 8.25582709596397 0.9922887258532007 1.861143416918756 -0.20649609351614756
Ni 3.332119077106174 4.159544695464777 2.983000178801493 0.6554855245786582 -0.020566768407758125 1.8017992706324841
Ni 2.3020917182031435 6.387668953228508 7.97602554170334 0.4634269466440793 -0.9334300038437795 -1.0252173582604214
Ni 4.206943989900736 2.5515062189909754 9.426138770371665 0.3977871971570826 -1.1568961495553625 0.71306178033123
Ni 3.3159710576173564 3.5508596725426598 7.5665706041781275 0.6254648098468518 0.9565377935058366 -1.3145703364728005
Ni 1.278204639128438 1.270323085915962 10.48878201267921 0.7332873633494856 0.6105089598679678 -0.6601464203894373
Ni 4.1342320792172655 2.0084763672481354 2.367021053319132 -0.4225644041017626 -0.45575914568617637 1.1727868526436898
Ni 0.6997591196713048 3.0280194274592205 1.9008675050269133 0.48770484535483755 -0.2857608899857466 -0.2912872191206145
P 1.0860322096954032 0.9064326905556196 1.5287023952531469 0.22391094655848534 0.48081377466195907 0.9428309854427053
Ni 0.5025397468032579 8.457648929324233 3.2487450745536393 0.9529372206387716 0.6083872855392748 0.915393715167359
P 3.4163600505120804 2.0154597899782596 11.32691279651164 -1.3287258020375763 -0.8236300148998008 1.1702846550471266
Ni 6.350534007162284 5.092280695177521 11.5242494762182 -0.5269306236246796 -0.5779084002241273 0.4130703485683983
P 8.093970236149016 4.0587158019256355 3.8925433334970125 -0.5604722070255509 0.944987883884708 -0.10080832696832961
P 1.3566810811731267 5.898187840346712 9.9359524576223 0.006649129885401451 -0.7692516972592364 -0.1302204615818596
P 3.5076027758416286 0.059820072423017186 7.921983747536678 0.9206495642496596 0.6454096283998949 0.5878318299854264
Ni 0.7906563397030502 0.7135729163656829 5.667996997719915 0.3606902923047853 -0.9567010585565782 0.18515927971158433
Ni 5.594885510617765 8.548286791267707 6.860454003735317 0.11704381499058551 -1.4094625550670112 0.7592236235992731
Ni 2.4186012367964085 8.414566159961616 1.395132063333899 -2.570420790506889 -1.0344715298688378 -0.5667585542548949
Ni 3.847691796959969 0.07491049744588117 10.427939171257922 2.0627338456031703 1.2976157108963329 -1.1325747992011785
Ni 4.2165484873038475 6.109312655876724 2.038112840246397 0.4078265836709557 -0.27672011993971696 -0.22911974445293445
Ni 8.714935818727781 5.187491690903583 11.165779023380948 0.486558133344904 -0.27063509008790165 0.17215618258369705
Ni 8.512123292457904 7.530888246698156 6.108450267321731 -0.3370888508357614 1.0750607641451098 0.5167811938955036
Ni 2.3351942416955427 5.918075015313076 11.888179279344604 -1.5340664417930419 -0.49793809304707143 0.43470643878093523
Ni 0.18256334973154503 5.437840980560801 1.8747923943290798 0.4217210822648608 -1.6079139239018114 1.923473128195913
Ni -0.04333296285412838 6.751622584306485 8.467422971767379 2.336506452878789 1.5287820534656509 -0.237452689798662
Ni 3.6274023846712637 4.860168953070102 9.559159226485392 0.0028834921953821307 1.284475059749317 0.1276511581927866
Ni 1.529781984751321 1.7596484006528603 12.886747326954067 -1.837691613653719 1.0476510046735892 -0.40237738763092634
Ni 1.476608994357384 8.667765639210788 7.580749151823501 -1.0559600387599168 -0.8798682685672394 -0.5167971347351035
Ni 8.927893553609533 7.456123466340738 11.023825834806523 1.1139296732961654 1.6346086595841784 0.08436457959000954
Ni 8.95821003968729 2.6059347591408533 8.700371441558866 -2.374171314419414 -1.843822152031489 0.5348007704013757
Ni 5.837829806093959 1.7476794372860072 0.7917799192656659 -0.039075882955539154 -2.1665074258474104 -1.1426432391807742
Ni 7.056501224677928 7.402547233689419 8.299863899849166 -1.178279500327145 -0.5680502764831249 0.4584760303967072
Ni 1.767539118462095 1.7434453935834908 8.133310184195382 1.3645237855727919 -0.23769205950297775 -0.3012301892659393
Ni 2.1360658833226602 7.977451552958993 9.744128282866095 -1.272940062526524 -0.7525883776709427 0.005396745535539093
Ni 5.497603316024239 3.4588929440691745 6.15198943360293 -0.28914549018726327 -0.09974594714208629 -0.6867707078451849
Ni 6.399518776837498 2.42518141726915 4.154197153256079 -0.3238954920739389 1.8263479065061257 0.8359494556971023
Ni 4.78865760456202 8.41215587101408 12.697109824984487 -0.9135741454601171 -0.0623731629205829 0.6432252191540664
Ni 7.472601411312868 0.584139483423309 5.3425090121575245 0.4210531096635587 -0.9255207762990318 1.03462811005136
Ni 5.220988292056606 0.7032315853831737 5.182622540645689 -0.8097445151669603 0.06488461648852696 -2.586855024803513
Ni 8.080021719882286 0.7022097328445793 2.2162148642758104 0.20232499285759348 -1.090960723204818 -0.7715358653077229
P 8.62954010613028 0.5518480267440542 11.58466341451118 -0.08325360591401791 -0.5416095657930929 0.3763529385427066
Ni 8.342367466696633 2.1817330689712278 0.13391308783802294 0.47231987825833494 -3.1171033999475157 -1.5702362068453795
P 6.346804016281496 6.962774893626773 5.33110825378971 -0.6758808004055586 0.577715824597347 -0.33379346791394127
Ni 4.837926476736753 5.908314719765068 6.91908359503938 -0.20827503979344128 0.17378291955384265 -0.8466753267550385
P 3.4924078744157154 3.677376930796417 5.271915039784988 0.8947855519987041 -1.8775180016220374 -1.0679130973567352
P 5.715244159849681 7.0387494007563385 0.8654522796894477 1.5043113220177964 0.8573050385547429 -0.3975745669256443
P 5.92954909045496 0.8797188074637052 2.8523276923773437 -0.6081651422261396 -0.31718748392614404 -0.27713021089394213
Ni 2.1515540518448515 8.874161522813315 11.902572278554132 0.24417432479321174 -1.8312283745268785 1.9320606127546078
Ni 4.410480519314551 6.996592255666351 4.0977001636177635 1.1428970070627928 -0.2019519257888909 1.5503998888457429
Ni 3.2368714229930764 7.928439289493502 6.146798605998806 -0.050959007546370304 -0.1569985010066522 -0.6636186952087539
Ni 4.079271992455384 3.9835661085043523 11.858724265362165 -0.0895019008165749 -1.1876935945521934 -0.9619468803365498
Ni 1.046835229358473 4.071610389565117 13.071194001319524 1.9728473077536666 0.5743798182455785 -0.25477755423035475
Ni 1.6523951247858752 3.7522516863149393 10.691323266885028 1.3333252484828004 0.00463158523474041 -0.32640257476650886
Ni 0.40812973683390547 5.260542691667125 6.19868122116912 0.10981053046693992 0.6685043054358294 0.34442626503743906
Ni 8.158562314104284 7.448315229902331 1.7585660617756587 -0.8266657164023312 0.04291325442375835 -0.44652091491736007
Ni 0.42736530897072633 6.4490167639311995 0.028193965468443317 2.7045408442534713 -0.19604918715121075 -2.1124443254544203
Ni 5.5968284051306085 3.9298982298854455 0.6180100001240869 0.22379164737180166 1.2285836478983359 -0.0492196562577604
Ni 6.7903888285957565 2.7997293222001765 9.906926346768167 -0.41412552930579005 -0.2750319336040167 0.5056362330222776
Ni 3.37555010114562 8.919572099752639 3.8723033215554388 -1.3621781681587508 1.5790733455210353 -0.22174196393162454
Ni 7.483287331133504 2.803486806871241 2.0779238485661597 -0.8893463832610038 3.3615104095768236 1.392100923860112
Ni 6.235939889291585 0.2603707762128491 9.197536152363151 0.18704749787323272 0.21319098903781994 0.6239584005046545
Ni 2.235492593557721 6.623803953312993 3.0926811563498555 -1.0454601676698576 -0.145113319533292 0.560892325282105
Ni 3.409504932136578 1.5456550663373774 6.127121300298216 -1.096397577949673 -0.10439758698148474 0.22332242104486702
Ni 8.55493112391776 6.291972233874236 3.948584842676421 -0.6362788697432205 -0.4751264944691946 0.4447337411099502
Ni 1.2182681763265852 4.358141507225654 3.8634768984171415 -1.553769319538608 0.7620955458304294 0.36417465130895993
Ni 8.721250225894522 2.046949344441129 4.239412323297435 1.2040411826722812 0.5350465678635946 -1.4721131400186969
Ni 7.260404337962089 5.463254407372657 6.487107577439355 -0.7599443038153816 -0.29070949224027354 0.4093623035891918
Ni 8.149571844684006 4.36027685827043 0.07914912344677671 -3.159882699896571 1.2908549951337316 -0.002607612826176154
Ni 0.24818919420119426 8.621722705095115 13.53819160897322 -0.5019294735946517 2.0212095011071383 -1.2070164632505214
Ni 3.1563970988549928 3.4684241246982155 0.8368944797296842 -0.3435739443394728 0.7885509118084807 -1.2167318907660722
Ni 1.8366768364096755 2.078228113178548 3.7627964713454913 1.6388154985766743 -1.4895691307116152 -0.6431629984575633
Ni 8.204394462494509 4.8189465968495 8.62160814763563 -2.155846346589139 -1.4502567062652378 0.40853106593714805
P 6.55209098367622 2.9062402657297075 12.310054994856873 0.4962668759922356 0.9934277245536505 -0.2040977684873001
Ni 6.9787396211804165 8.908382127110274 13.382396213454465 0.6508002032878469 0.2632547384634305 0.18620623291885996
P 1.1992333088587799 7.223507671411591 5.034914901766482 0.8735497825483794 0.30262964071662724 0.36245304063216294
Ni 8.954984101628229 0.0625217955474799 9.133420633439334 -1.3732902189115124 -0.11304266425099242 -0.3361750807722404
P 2.3054459606168254 5.66526044912777 0.9828672604424714 0.040161659820550186 -0.56579721878289 -0.27156685787355167
P 8.01078319137036 1.0482924002431053 7.317056209285626 0.08371254782830745 0.34100335539881915 1.0645629499375797
P 6.143102524126025 5.9074715768632675 9.588748960040185 -0.5978979559721768 0.40605252248966844 -0.553362335453647
Ni 5.625119515324694 4.967862129581503 4.390110370099004 0.25430549968994265 0.02698809855306965 -0.28907581329159243
