# total energy = -381164.2004685945 ev
CRYSTAL
PRIMVEC
9.33254535936020 0.00000000000000 0.00000000000000

0.00000000000000 9.33254535936020 0.00000000000000

0.00000000000000 0.00000000000000 13.65912348157294

PRIMCOORD
 96 1
Ni 9.00879009991344 8.50532727140979 7.185914396123718 0.23186593973950392 -0.38068936113453145 0.21191777875235115
Ni 4.823283461148361 5.716202743139432 2.4995645743581862 0.478700070753066 0.09619242546287304 0.3402654487915301
Ni 0.42191411325075884 3.3643173009762632 7.676523509801742 0.9326725568524646 1.2267018574945907 -0.5966514851595853
Ni 1.2827770349321328 7.03617930416969 1.0099717998368112 -0.40991714765139725 0.17814171074317062 -0.5585634200386121
Ni 5.3374320541734255 5.85466038719156 8.990831482735663 1.5009665739152798 1.041914102189812 0.21682421491503306
Ni 1.9096441117035974 7.023785683833937 4.110959199096435 -1.066589236338989 -1.131429886963458 1.474868591276647
Ni 5.618043030269367 0.4530250867080367 4.473103025118031 -1.2814409009086833 -0.03232725137779594 1.171035931390854
Ni -0.018002480141315398 9.072092755589201 13.39753811336671 1.1891100152837457 1.1434839899145144 -1.0611883770383916
Ni 7.15999418443658 0.3176938453761473 6.580570035631103 -2.5592385486378246 -0.20002591241077167 1.717829355377732
Ni 6.1076563613496315 8.384284157136664 8.578066063773411 -0.3619964127107185 0.002423778950144213 -1.2276919893220017
Ni 6.878188642525144 8.17191275325083 11.984105442364898 0.19869588074543845 -0.4898571158111499 1.6040050757657087
Ni 3.5077771893807737 5.3764514266310925 5.243081886349335 -0.6001415005907148 0.1713498846323178 -1.3107558478227168
Ni 8.81249867180961 4.873725869216693 5.789214979084257 -2.340247922199092 -0.8768683053986511 0.22123597082948349
Ni 8.930723357361806 7.467566884290044 4.817367560598035 -0.6089976654297641 -0.2560422798753913 0.7415591164399744
Ni 2.2315236037066914 5.450383851555665 12.553239526575343 -0.7899665612090847 0.7688943139198178 0.8704207500010945
Ni 0.8407298214175793 2.9961483836227685 2.3927507921075915 1.9245105683214923 -0.3072990211678385 -1.4956410479373081
Ni 5.5306624073750505 2.402878470412079 3.2782712320789447 -0.6002222332299793 0.9437213584674586 1.296598068265096
Ni 8.105521025036564 7.895202781146112 1.086494939373737 1.372661327078262 -0.18421028553475371 1.30954228713059
Ni 2.7113750922634634 0.6613125687121495 12.307416546837498 -0.23704774105075946 0.1321919834859336 -0.12382509957847707
Ni 0.4249359914621419 9.154835103403043 10.33497093714792 2.088472645130171 -1.4159916144347808 0.1699524900641589
Ni 5.4086393758314015 1.0809980701133768 11.026177515392813 0.0974322114072451 0.5127481614767105 1.019725481907915
Ni 0.23965323395172655 1.6233122852568906 11.746122734045775 1.926891924069475 -0.5143111350884562 -0.40907254026291484
Ni 4.572079335713532 8.583580664870095 6.521903788526729 2.3339237797532775 4.221939852693161 -0.526223570255326
Ni 4.360155894008509 4.092825130064507 0.3153495099632399 -0.49367828932945296 -0.30314514690046507 0.9451794310702237
P 9.024394115878334 2.4385287939682345 5.820890571540264 -0.18261543024380808 0.60202329099446 -0.030381440505334773
Ni 2.781303855197044 9.241683771207647 3.906523258592748 0.428777732001326 0.625521117006084 0.29532513663541393
P 5.118882505210583 6.105052581173671 11.957087723334775 -0.7118564471692193 1.536774070532192 1.141525580636563
Ni 6.523103953869485 2.631451173170553 1.33956930691345 0.9291306051374773 -0.5880557730707743 -1.8781355806013782
P 6.678434840065468 7.958402778822103 5.193717387278579 0.1563971199772274 0.06556030239931289 -0.485078463475584
P 1.8080966848411544 5.075056871854638 8.796940385317342 -0.11984374633322586 0.1436220796997462 -0.5656997739730774
P 6.479306318149841 5.401490646029303 6.919917252922171 1.1478047287770554 -0.4422683102885932 0.3782920645469485
Ni 2.0140939601958743 0.3514879256455704 8.347199421347371 -0.46229257592932 0.7923980534687127 1.810780648195488
Ni 6.8546426303963015 5.544315921344332 10.899939906331376 0.40754324810258197 0.49912928514169524 0.5752375382601835
Ni 3.279848432257214 1.2291802265072627 6.00982328756974 2.5079789791319 0.18952372732786715 0.07150417868757362
Ni 7.180059157118709 3.4514552776893073 7.446762774009578 0.6693085465046795 0.4762094431207282 -1.5271316623464215
Ni 4.677537099112632 9.11769157257752 2.241093195794252 -0.2527109015093132 -1.9320205035452918 0.9021149957805817
Ni 8.350304359213112 6.239189256690067 7.895697406054089 -1.382650834190806 -0.9704798575082254 -0.6627378352656974
Ni 8.629580781312058 3.6026145160764953 12.192789557549936 -0.23535184140557533 2.508911261138182 -0.3827251606176376
Ni 8.188263372850406 6.08695677557802 12.973503645793452 1.0438681405923893 1.1943218985019883 -0.398917454106784
Ni 2.116994606146182 2.4491212330353123 0.2561139775874197 -0.2665583489153667 0.15557693806877723 -0.017701788155137257
Ni 6.325953931585769 6.811143636130531 0.8199014465189856 -2.4748901669977315 -0.799120716904527 -1.122230736962693
Ni 9.014193643719464 4.496933679882598 0.8850239485542882 -0.14585791100880044 -0.0508816173412156 0.2981885742261381
Ni 2.9802550587494347 2.720856958423949 8.048215463056401 -0.9283757292493237 -0.15655292882880137 -0.0001172423041546368
Ni 1.146792515419895 4.59947968910643 4.385193246897633 0.8734844765280827 0.23322322509834673 -1.2405433913633732
Ni 0.07252134405502006 5.732236056194268 10.71812325619498 1.0281263043771005 0.4480522639602219 0.10814959782474924
Ni 4.184918688402765 1.8091045997479775 1.5315565650633267 -1.0607420335295925 0.8049355238140912 -0.681662182974026
Ni 9.1197447325729 1.519310398945424 8.74980263158703 -0.02388580547866209 -1.1634984853632284 0.0130563189633259
Ni 4.548393335403185 7.417992402947033 4.362518894512283 0.6965678964412648 0.12749972021658687 -0.46150041904532774
Ni 5.213990475723877 3.321770226344715 8.874947399578202 0.30294254397135567 0.018725858544277427 0.8592912157468362
Ni 8.105782336308705 1.3941516321361027 2.7799870330363703 -0.44294990973665 0.8009773104972915 0.26143568297682074
Ni 4.4157218695198575 8.460923020236965 12.991684377552547 0.785564575486647 0.04699976578830615 -0.41500484658694975
Ni 1.2812744951173314 3.0632587178354167 9.989559431834135 -0.8806568259068058 0.99322717850707 -1.023885269712559
Ni 7.011560049315989 8.838629799023547 2.962240446299056 -0.49158361158395336 -0.08544598557964639 -0.7357239978154362
Ni 9.279237934032247 6.141337517819308 2.8177269135150977 0.450269840436831 -0.4334900498753308 -0.25364626883938896
Ni 2.5283265461298403 3.4601812076696756 5.844028751433662 -0.5315418971444459 -0.6861783256768247 -0.15131019237262328
Ni 0.8290081443530423 7.325012252792588 8.750990664620723 1.821449954983876 -0.5422423142810855 1.0624057943852607
P 5.448601335377857 2.06302449590397 6.885728405980909 -0.20867227523185997 -0.1351376963778189 -0.24985106346301486
Ni 4.7919074434007705 6.57821263465459 6.625016283258379 0.9943818609368036 -1.515543700398506 0.2642150454941708
P 3.4600318869427387 0.19028593511734077 10.263451908472463 -1.0022324673294738 -0.13071899848483293 0.1504676418666699
Ni 7.622907103031462 1.6054497932970784 12.862441688861503 -1.1552071918887137 -0.6129895601979767 0.7490469401765875
P 6.853522724944275 2.8334354539888467 10.989830050692772 0.4078512662613041 0.2675173703945264 -0.589352894615643
P 4.376189207063345 2.0272808468934786 13.0726554082431 -0.05310767845825693 -0.058175579899467554 -0.6675707378779665
P 6.6902778402206415 4.471213184667738 2.327022607873652 0.2777537034105539 1.3095705692653639 0.1114328965617113
Ni 3.6998876371303733 6.716698276343018 0.5948060501890515 0.5758831422639824 0.5713284330137645 -0.7394965774839909
Ni 1.1143619200383135 6.179292980097551 6.632446855932571 1.2434315115444456 -0.14272605024803808 0.10556255382386336
Ni 8.035872238465991 4.326306751721027 9.345093974138626 0.3037856086979413 -1.3508491162991767 0.8374473803988675
Ni 3.9508957791110983 4.783965447236821 7.608432325064028 -2.5425765146011114 -0.5218573228668303 -0.30277516515555597
Ni 8.368642810990035 3.5547198929115233 3.4838821400527156 -1.6062702176508012 1.9462009088107322 1.3086076911314624
Ni 2.332837716933296 9.319125233215233 1.2872687890493 0.3140754206597236 -0.058179693664525606 -0.4704339740895317
Ni 3.511575535372228 5.409945932192099 10.619026555763385 -0.4208139970695591 -0.41793050487417704 -1.6050443156635004
Ni 6.863517881103605 2.492573564573915 5.194305337640893 0.36549645544417697 -0.2808418554175744 0.5264518842160482
Ni 2.505620463090016 4.965539451191944 1.3811149994199787 -2.8027454150503663 0.19551568324524393 -0.6426503204872028
Ni 6.797191480707375 1.501839873893821 8.567370966706566 -0.17619564276039332 -0.9605741683587393 1.7113244643796786
Ni 2.4933854960266335 7.62484827248164 10.741098116543288 -1.220558206490698 -0.015229158244928612 1.2162222981195054
Ni 6.1688031990302425 4.7122914983071675 4.815305068057221 -0.41058332048048646 0.7253177148804476 -0.4477149352254612
Ni 7.857219321231568 7.6784917436336775 9.717318815737544 0.921558192106858 -1.513152317348194 0.4500063023627992
Ni 8.274262779020559 0.4896245301347846 4.794912523030374 1.6286910085481627 -0.5421680093997244 -0.646209755703687
Ni 3.499135252309308 3.8997347650443848 2.8923602126017296 0.2326544970790703 -1.4800465359331607 1.8487560989979968
Ni 7.037252546894548 6.674589831346847 3.1426226842023146 -0.06993606286950536 -2.0283106309282943 0.9499668251565382
Ni 2.4741697849789572 8.177652268692462 6.6295379015209335 -2.432764698582591 -1.2446530426563727 -2.0326162002821833
Ni 6.188672188258268 0.21991210059614105 0.6389816539987543 0.6257301476930965 -0.19524057520698634 -0.9074644330179532
Ni 3.5007124524875772 7.896947967142185 8.545680264609912 1.3392197595903645 -1.5288424743899414 1.349056028954496
Ni 1.1718783975452738 0.6960399035249274 6.3012273524595805 -2.4250498464368366 0.5481805341423913 0.3819366032780713
Ni 7.70040456031165 0.4281137231822652 10.508400428703185 -1.1518511309322872 2.061545995942656 0.48829105687561075
Ni 6.613433661120802 4.480909699373195 13.46521866610535 0.6563792400375211 0.137807272790182 0.19356010218076988
Ni 0.9998795852049718 1.5421004748941498 4.2618104634843155 0.3067668028134523 1.0675109768223099 -1.3142720885060912
Ni 0.5521563175577341 8.735411846528498 2.8568330786452965 -0.8308710127329304 0.025670922403542882 0.07900871459473491
Ni 5.0508669140908795 3.950158508021848 11.744606195412826 0.18122832008829434 -1.619807590015604 -1.1086527411679423
P -0.2191561644160236 1.4548691727267704 1.0703627013373047 1.46243396505772 0.600206035280063 -1.8551923415416436
Ni 3.458445354219035 2.417045274380206 10.339355366992603 0.08053003633526777 -0.06927374669515811 1.0494124674493863
P 3.1528231563611833 2.111301753431717 3.9312461047007616 0.22468561994098077 -0.3583307909336732 0.5010036193462726
Ni 4.474311589751676 0.8124559417721003 8.45779755077127 0.2155916280595126 0.43543251831368235 -0.42453464045425593
P 3.198720614803376 7.388529557013321 2.5927883039484474 0.3851628235248528 0.7371224208248596 -1.7868400782194906
P 0.5672199791420249 7.405972084428623 12.181233999794117 0.7457808678308059 -0.9265697863888365 -0.5705992681572237
P 1.5808398709888105 3.479555571989722 12.049368865836248 -0.3708294376213162 -0.29364157828540394 0.14444174738756416
Ni 5.028496802686663 8.03497631410437 10.580425281341142 -0.19007677161785974 -1.3886206786209956 0.2005329339541772
