# total energy = -381170.2708260127 ev
CRYSTAL
PRIMVEC
9.27199731972232 0.00000000000000 0.00000000000000

0.00000000000000 9.27199731972232 0.00000000000000

0.00000000000000 0.00000000000000 13.57050530526271

PRIMCOORD
 96 1
Ni 0.9878571583424319 6.752054024216982 6.583567921526781 1.8961322742891151 2.2659762080687105 -0.8495505914203045
Ni 1.5292490927496571 5.766162529345939 0.8271141007699465 1.24953453911839 -0.1691377074723474 0.9418472813731974
Ni 4.227103663234356 7.7536337388691035 6.103836624937588 2.1492193281909246 -1.8778563587980626 0.5083279209218278
Ni 1.219898167941254 7.618086407320906 12.645485845737273 -0.20808066439444806 0.8340129007960216 0.11392789506942315
Ni 2.2991215897131907 6.56849628957989 10.784467065408135 -0.15052831990127621 -0.03966492268978975 -1.1639011201182858
Ni 8.43515337159276 1.3367809685087737 10.220138063569218 0.03438104858303111 0.008506237698798253 -1.0731542911510163
Ni 5.1323195078009425 3.1794792089647275 12.10396781216396 -0.19086738583995516 0.14790322357360333 -0.0036602224604066
Ni 2.0844192154516104 1.1562922650463479 7.979348464569209 -0.1804690733247666 0.9078269585636947 -0.7216659770604732
Ni 6.766527612324701 4.429808072722466 10.73220730586199 0.0330265914376657 0.4751550337142849 0.6916218652898992
Ni 6.165600181927943 4.809162578705292 8.512045119714795 0.6603955602857658 0.6328135369024392 -0.21950047619561552
Ni 1.3625478495794654 2.1676817530603936 9.931981997861028 -1.7147643432991628 -0.751175556483816 -0.9840370273673698
Ni 6.840777768357123 4.6345801376545355 0.055473433881914516 0.44417144084857696 1.0158171479924443 -0.8330793332381589
Ni 3.935388077683403 6.015903782184757 7.687067287170357 -0.753476950923483 -0.867612591128338 0.9372108110424503
Ni 4.403929927681696 7.776081244832452 11.09097055978228 0.8723259374436073 -1.9821518729840442 -0.9840979625122924
Ni 3.150457856769238 4.278229457485451 13.164367224598106 0.4224440764738144 2.4785976977563053 -1.0412173332331036
Ni 4.674987502788064 1.7089774924165464 5.418445006055198 -0.49311264663397014 1.1059309713614052 0.01738040025997652
Ni 3.346950027927963 5.154563029819146 2.6185103790221813 -0.5923497724604379 -0.4084924993897287 -0.8358638379618314
Ni 2.406750936769178 0.42531579762277505 0.9196783062772973 0.7803277525677399 -0.23353407147054622 -0.22643576986286806
Ni 9.350253165501323 1.3930805373685216 0.5378231425669557 -0.2848589469967675 0.5482455830523719 -0.42263279544585275
Ni 9.511771362065357 4.4624084159554815 5.307560260674663 -4.172480826731085 -2.2129921996725113 0.7722655443848958
Ni 8.134026708572662 0.5876675467626462 2.819964923246409 0.19373982229174377 1.0378119070959804 -1.6572983878722105
Ni 6.121929073672111 6.613873445376926 7.027214458219997 -0.22583850259850138 -0.39702100841501947 -0.9850256165328843
Ni 0.684451438335226 0.5885975281125527 11.702742518462694 1.9505234474454858 0.5160309459930402 0.17099687216827325
Ni 0.15965452506521688 4.958766258473413 10.038428238035179 0.7591140946046023 0.1109040206414348 -2.108151868726653
P 8.771040753264897 2.239270845808436 4.153755672559321 1.075205003032458 -0.6291432871397036 0.9993787999307627
Ni 2.656102765712722 7.55238503298952 4.484102108521547 -1.0591641475195113 -0.5056082079978196 -1.0022031567534353
P 5.666822348060805 6.802326794697476 9.511608174909242 0.9513927589697873 -0.3429381105276868 -0.9906151948055197
Ni 3.1056648368151145 3.06167848064406 4.121973119506383 -1.1511744165802367 0.29586455407865175 0.038024044652257095
P 6.671545269867643 7.6204785826775945 4.876574636576636 -0.1337611277452664 0.47071602410632485 1.062806629368105
P 6.977864251491406 5.397943692368474 2.1871853998154136 -0.5212605698230958 0.6218974042105677 -0.5549245377344443
P 1.0039904340038222 6.534338250765774 2.8006810228322943 0.27067597062816606 1.224245168423982 0.5478303498918242
Ni 1.3685375599686942 3.74517304883661 7.791342952728225 0.8548308659826375 -0.1063210292564427 0.5111911014022358
Ni 5.064179598125335 8.76182438774339 8.737288827941569 0.6101459201015943 -1.4250341842530232 0.8959479477379215
Ni 4.978571245147395 8.977982465613499 4.272103448732875 -0.2551794176544637 -0.2769983133017681 -1.0340727517685224
Ni 8.036781998724006 3.4281356380952803 8.850791985417953 0.8522764749919001 -0.680456335591383 -0.6455664656927333
Ni 2.738614271523475 2.8939851337406672 1.2530260878323927 -1.2106064945946247 -1.199059927407606 2.057699625613372
Ni 0.5412713984396402 7.979295614183421 9.72927944277242 -0.366848084376065 -0.23039861116535804 0.1905215724647622
Ni 9.003934786634321 4.041014673277976 0.8218986021725144 0.4409241375558729 -0.7567571643366516 -0.3619226220499896
Ni 6.405596565387382 7.580340105471756 12.660969154373454 -2.262243480499156 -0.9560310290727471 0.8410569521269966
Ni 0.83883297841847 5.325585023827389 12.076990008218914 0.9548120690639815 -0.8914017231281358 2.147704948428927
Ni 6.135419830044136 0.29282358925298485 6.584382002907856 -0.7189809740291424 -0.02272778061481892 0.22468176328623887
Ni 0.3428617781965621 8.550274492634035 3.847916980406398 1.6131276068922669 -1.6444570131331677 0.7929328429262602
Ni 7.747152612612028 7.481509884049482 2.8003416677235546 -0.6052698229562157 -1.092000477323242 -0.5180091527653338
Ni 6.852015429335056 2.4366067687402566 0.8900255310516123 0.44889841401060104 -0.20063140720525446 0.17201065814476826
Ni 5.3826541684801805 6.644304141193411 3.370927413479891 0.6667808949868194 0.5682089135481763 -0.3909861150748492
Ni 8.122093647781737 0.27790772686420423 5.357880318342439 -0.2833450814554023 0.5674218988705066 -0.800590359471518
Ni 7.633644819136889 3.4504904240835628 2.8491142290074882 0.28500267166348336 0.9098684144737557 0.3698984411666146
Ni 0.834250757250735 4.398923049028161 3.0746425875577126 0.5838890432875945 -0.25112813040322557 -0.43789846335567173
Ni 1.035635761493664 2.2428312928509495 5.894403526858977 1.0603707662331028 -0.2380111334052933 -1.8088137542771041
Ni 5.469198993206281 8.714296128524834 1.7168457095006016 0.4778752608589254 0.28195051510072083 0.21710420804929706
Ni 4.111750742255416 5.46490605836075 4.722875515509873 2.285840808203121 -0.12022246982888328 1.9348857409082292
Ni 4.359767403558017 3.649421130586509 9.021400448337403 -1.3143955014578332 -1.598123934394583 -1.5377886278396355
Ni 6.149346370298968 1.5584837008877972 3.0799211357381893 -1.594706166962286 -0.22411226393601402 0.259646709397198
Ni 6.793490581073738 5.005181877991182 4.925361105856829 0.5431887373547548 1.4371484510180539 -0.67731521885924
Ni 4.315818135376988 1.391253953859732 7.993855431867951 0.5634608573402295 1.6240465677976161 -1.2641283777721648
Ni 8.781212134529579 3.3158239322984877 11.654200829916672 -0.08065499194890625 -0.4299524690357176 0.25202750228904336
P 1.2240983828117193 3.1694932676501777 12.984504380967373 -0.3814627489654463 -0.02557270626278177 0.5211163309357477
Ni 1.924097106565922 0.8605034909907697 3.560588904075543 1.0491484151547221 0.5340854895019059 -0.4870052481846516
P 5.169249873869515 5.479991598303901 12.547167438577361 -0.6413951079238631 0.20952922391551654 -0.12510730872501036
Ni 2.628898725028515 8.131467637260856 7.764445815161486 -0.35458340807609906 -0.7276671889492308 0.895456867034116
P 3.9640385499786306 1.4928286865439444 2.66095943800665 -0.3994717839483572 -0.335206546211384 -0.43449997919708394
P 7.034655236219001 0.7492024329221906 8.582204470447328 0.26818611432677686 -0.5942220497824863 -0.5483494556200879
P 3.084237250577486 8.916981994017933 12.223660027975962 -1.6124064124555264 1.0617025976706491 0.903828893147895
Ni 6.859692643270476 2.5246072970748847 5.376837844444324 1.2525424727067784 -0.7876019176316501 -0.5883465648383158
Ni 3.2153154793275283 7.516446770654148 2.126484413739308 -0.5855211795743787 0.34862024851412865 0.03418461630150887
Ni 5.120516254975109 6.453940760386514 1.0728109082964097 1.2154931332629646 -1.2801008419410211 -0.00019231851646418495
Ni 4.835337427666272 3.878133493080481 1.1416786697762806 1.0122867662416823 -0.13573033565649528 0.620998289435066
Ni 7.128042795104933 8.652090297253418 10.543142931905761 -0.7904231891305291 -0.69921741824897 -0.9409461097151666
Ni 8.760192516182238 6.343474182093524 0.1577519111768736 -1.9163200620908996 1.1112297578664991 1.1450778167641957
Ni 2.4789519813526524 3.6755310755649426 10.9611820658854 -0.039826387968318507 2.6490304698909926 0.3540653307890999
Ni 6.225738357755402 2.2291458245312876 9.947763864816919 -1.2529703042728162 -0.17709527175652726 -0.1846725698831529
Ni 8.00177093613929 6.291532452061853 11.573863607521202 0.3027831355753559 0.32735619692902973 -0.6993757982037051
Ni 3.4255394787934477 6.961582623869911 13.288456221627714 -0.37749476545663374 0.0773837773968022 -0.9704991407819351
Ni 7.9420129122095995 6.615598036913144 9.200273969834187 -1.5902483883012484 0.02891359771055665 0.4625373449502744
Ni 7.0469777209052005 1.5994288418767044 12.212124735878069 0.6028383306965877 0.695348165101551 -0.520621136466884
Ni 5.222174435636881 3.9949513896654554 6.3735367796089974 -1.3524126041315547 0.05240730995712265 0.5432594426916902
Ni 2.985203045210068 0.18604541156809898 5.90790633682776 -2.0291048446948152 2.208891033019944 -0.5912141161940979
Ni 8.980569352917826 5.408207793608221 7.4919640612381135 -2.2998790314637425 -1.6414642490534312 1.280919995408207
Ni 0.46495636856251144 8.455561038104667 1.446385251033655 -0.06900866595922954 -1.125507607941752 -0.14117181838704077
Ni 8.622086113322235 6.596942777929973 4.918670432456105 0.015724352713792276 0.5041128543992156 -0.10067257272141372
Ni 4.752139794040034 1.2631334923142783 0.30075207432083245 0.5302044092799449 0.4422354001681287 0.8443081120744426
Ni 5.3116306675800375 3.631183111491133 3.76820376344312 -0.2909208369201312 0.09706634342739412 -0.9365230409468064
Ni 8.27182713551495 8.72086070275947 12.631833756608636 2.00654881377117 -0.575462509786796 -0.03728073872832934
Ni 5.087776831779495 0.578629203593265 11.534712598049811 0.022480954711335478 0.5209463810167867 0.25473384547661293
Ni 4.337421889567241 5.293290656512089 10.435352252093159 0.32269324423572165 1.2608908446714735 1.489796416231073
Ni 2.9374058980638225 1.9104394542387795 12.525508979601819 -0.4477481024562418 -1.0135993144055189 -0.1258207898522672
Ni 9.141698125586583 1.2288549175325776 7.538551212709754 -2.287273683994906 -0.661713507766241 1.3882848925481317
Ni 2.5448666116266883 9.247269089196116 9.896155926695483 0.45329577174734836 -1.1673070604760412 1.3050827086973396
P 0.7463846728799511 8.899096310827805 6.213432562664713 0.7362577588317191 0.17324530188281775 0.09319837583155562
Ni 7.7781210842838915 8.01980497128952 7.240312776912946 2.5055480010929045 0.9619008575899628 0.3103187818307688
P 3.156836991053742 3.1087060519972614 6.477826353163127 -0.33775785187832796 -0.12516875809056507 0.13508833119712219
Ni 3.653751153422066 1.8828367176617917 10.283335998573834 1.159268506442281 0.05583664735364577 -0.5731215203584452
P 1.7998616119757112 6.087993562798153 8.62845319400998 -0.17369473071541056 0.12109021714581727 0.3260662744730126
P 7.447333301240353 4.05426435771483 6.730401128439946 0.32809333220537046 0.1958905500861594 1.5242227162297428
P 7.0181325366623355 0.36426989323942627 0.3737653458858801 -1.156225091630267 -0.4115719096460009 1.9851595494621166
Ni 2.1023790746217896 5.219569004337541 5.178098141090012 1.1431397192012183 0.5207489202939999 0.05289479111650245
