# total energy = -381172.4815212877 ev
CRYSTAL
PRIMVEC
9.20199138869949 0.00000000000000 0.00000000000000
0.00000000000000 9.20199138869949 0.00000000000000
0.00000000000000 0.00000000000000 13.46804454890421
PRIMCOORD
 96 1
Ni 7.192341044826529 4.6641398639762235 0.6672704579440019 1.1447530864349251 -0.21176942609994498 -0.07561125887741171
Ni 3.0282282021472344 1.9113272702762751 8.747602771517684 0.6840018868507962 -0.1039738691805048 0.24015826165528317
Ni 6.014035223040142 2.6683843208130837 1.029246440730783 -2.227529731167054 -0.4400697599753776 -1.1224659929019505
Ni 8.578280604969233 0.3590018991031807 12.063529400493609 0.3672370922843675 -0.8524772781487964 0.2949662106340984
Ni 5.645090572018241 4.313102288598774 2.82761558337813 0.6385697226599261 0.664644565370107 -0.46885351697628935
Ni 8.709703448933286 4.78796186288256 3.1284654965948215 -0.2968261466609727 -0.3639599641949925 -1.0015380123656108
Ni 4.160947357570512 7.363286442692391 1.545094446177509 -0.20266797801930903 -0.3276302765260229 0.5562322008022742
Ni 0.8673880095652788 2.367801265352656 7.45868440976001 0.1313067526675029 1.501535559044872 -0.2944339922797123
Ni 1.2371709620215114 3.7309382903222095 9.362001346352578 1.8158732322270468 -0.9735978343119167 1.366696881964711
Ni 7.737605056805945 0.9438390759381788 1.0070622793928372 0.5777993854500888 0.07609411205110121 -0.007734649640096357
Ni 3.293300772041405 8.291316497069847 3.855201064625962 -0.7681054994699352 -0.302285370003331 -0.2855006943458244
Ni 9.126562870191906 4.689252099039793 7.865822847097357 -1.3963249892437886 -0.4632695951306086 0.494374029844897
Ni 7.53801385910392 2.7146427325626497 11.810788419536296 1.0359344875676093 1.5624452500460513 0.20950094178074244
Ni 2.1192186643972604 8.813520318111445 0.5666641636334431 1.5395002112141034 -1.5005631678292737 -0.5721056774994212
Ni 5.10662683182775 6.437234816507923 12.086694494135612 2.216476558676686 1.9674058250231214 0.12513970462484253
Ni 3.3034321647878286 5.115065058120639 2.600329151571734 0.19854727098271613 -0.3044584663952498 -1.0132151915932226
Ni 7.4968809566729355 6.683204051850254 7.490320856864646 -0.33222252388239554 0.31747930413494996 -0.8755809540457952
Ni 9.096858841322282 3.081194865769773 0.5975230424482768 -1.3285519954638734 1.1493566466452074 1.21171258317461
Ni 1.3028639800203479 3.434965432651026 2.504423234568054 0.6794764881766169 0.612026682064075 -0.3443092798436006
Ni 5.077806194151275 2.9389596816812427 7.717997453114683 0.2565729555678807 -0.46816086178463884 -0.2726616335996272
Ni 2.141064192444499 7.963339112630214 5.984781171559528 -0.3937227972797219 -1.1753731253136273 1.249004891867165
Ni 5.018977861882531 5.040280472425647 0.5425991152134183 -1.5544491192144518 0.08871334347700852 -0.09497860766042998
Ni 1.0663451900463887 8.219835426357568 10.153289805623897 -0.9480485250879026 -0.06643344903288557 0.5406626284987914
Ni 5.460489418624957 2.7341141467783014 10.211135365190263 -0.5956783226130387 0.15908109456729377 -0.3588051594669305
P 2.3604948840259894 0.5865367846826498 12.003192861802395 -1.108560438564452 -0.4958773538633009 -1.0793377942539089
Ni 0.6725993312768392 2.2972956057494787 12.143718315852517 1.0917058289009585 0.10100707324269702 -1.9856675994467865
P 1.9216427028546048 0.6134461687047815 7.394226299033263 2.0717581605889674 -1.6661311556724918 0.5931280453873591
Ni 3.8643579664624434 1.6315591198044128 13.106669928334131 0.5904327579433832 0.20846375876547968 1.211138712949011
P 4.538100185095419 6.2010380962398 9.407819902903888 0.07816333587530411 0.675009967764831 0.563943453403603
P 5.531096300135683 0.963623357868071 8.78546160533906 -0.3957012611623314 0.9582151812082593 -0.36775671223326345
P 0.4174879172845794 6.632372250277825 7.426347691094971 1.565672241623781 1.8827411976941897 -0.7395996787207585
Ni 8.377631178233747 7.799341218418803 2.617999736032186 -1.7199186338065928 0.8024222704739341 2.2269404343224872
Ni 3.8583490659507134 6.504501375069556 7.275841756960586 0.5749331196458872 -0.2690268650605173 -0.4905060622490585
Ni -0.03376854855726716 9.058633768235413 7.877216753090656 0.3891747728977233 -1.4407904186460152 0.2498477210289052
Ni 7.155100584840356 5.654090119798444 4.529047265763964 -2.6360512840225057 1.714976459309969 0.030212261917322163
Ni 5.927591713993907 1.4756037662472927 5.729992747472264 -0.450389910954463 0.22293726979130637 -0.03923631979280339
Ni 7.883419815625047 2.01949668147901 8.714620073042655 -0.3911447521399006 0.0706127772215558 -0.7587749660976287
Ni 5.76184544137939 1.9719039809481258 3.366351702519842 -0.755122456946706 -0.402706488835571 -0.6370535431257158
Ni 8.81288538069137 4.7657850631378915 12.269482855184624 0.22800748522536216 0.22220836204508185 -0.40578538487121085
Ni 4.371286481455846 0.4327034103874055 10.794866462635506 0.5487006683119195 0.19428823859604605 -0.3456683649746563
Ni 0.3941544271963808 3.0857130436430644 4.651418110595722 -1.0665825514707696 -2.2465713211795375 0.5901671629868223
Ni 7.875947798449664 8.655098830806784 5.072052188806735 -0.6972448679036314 -0.7718307708403224 0.5502034781096912
Ni 8.301383475875102 1.4706346907858312 6.386574171979166 0.12714079421527136 -0.3649097297027716 -2.4809353447505464
Ni 1.091871514731747 6.857544984614781 12.345442535206335 -2.3305057552106634 0.09504365657041051 -0.4115906786990783
Ni 4.262942232412801 0.11309891810033612 6.94470348840797 -0.37229959440893945 -0.5004289777897253 0.21100709401262369
Ni 5.000831534456603 6.685799013480128 3.509475798996478 0.5625596856821989 -1.495139168600225 1.3958020268607831
Ni 5.688073074759881 7.5553412092778665 5.8795959662311486 -0.12316201207318145 -0.8417460077742213 -0.6334496278245413
Ni 8.832706470587642 6.215301183212512 1.1830466878562842 0.7118734164500837 -2.2585873718038068 -1.754951971261642
Ni 7.38101868049653 3.4239966586694304 6.841093664040706 -0.8711393733346738 1.1900664656597442 0.6343019485225075
Ni 3.083191697945953 7.504859083386059 11.198476856395216 0.17919252060518817 0.5107825531099074 -1.5135343832779613
Ni 8.928517607077891 4.967179851192596 5.630047156158247 0.47167093182042635 -1.5611121330569242 1.521164389019393
Ni 4.421943445187965 8.517657884339405 13.105687155631754 0.09476314921551422 0.7288406404320416 -1.1485056114988221
Ni 4.673535097395023 4.403741905812464 4.9280253769546 -1.1320814045045278 -0.500224575088403 0.2738391988474961
Ni 1.6758114973862035 6.889328663584942 2.5203960515791732 0.399147567839719 -2.517192013089736 0.008480783777501524
Ni 8.654693943176591 0.9543385483484146 3.5816516200742026 0.18539710675400328 0.8706673187942618 -0.8716597646145182
Ni 2.9586427417035863 2.6050470126626437 11.052874663581965 -0.38851168539242764 -0.42534042418500295 -0.6662738734434138
P 6.221273275757861 8.322023543023358 11.4850498796518 0.10268626071733282 -0.06854355339735292 0.46489350388727674
Ni 2.057924198380977 6.280810161379443 8.931603034859794 -0.07543976629655394 0.5844893958757547 -0.4925328628711001
P 7.614252359470968 2.669405741880162 2.320920798971248 2.0247925904727064 0.9554527879717738 1.3108221822842778
Ni 3.0970867052548536 6.54422637278646 13.117471226068695 -0.41036889047683517 -2.5002533283528683 2.6088389852737714
P 5.936904129488349 5.241251968866969 6.366829458613135 0.4786746168317691 0.7197854722083088 0.9970419242674701
P 1.5018018363191075 5.052730767054086 1.0104578142915026 0.3767900260801253 0.013800910438834297 -0.25203830092232077
P 5.215891280030326 3.2575786406684557 12.40332858353572 -0.059732639973942285 1.0779136602128727 -0.030129215285212622
Ni 6.878654353334396 -0.10349387927316349 7.226440865081226 0.2597611234878752 0.869102288299987 0.3934119509075225
Ni 5.540482331562887 7.991165935214397 8.621030297323511 -1.0754767686366058 -1.3320777492289446 0.6600559175581601
Ni 1.3581495455249017 0.8319667833174961 5.357911137515526 -1.663040689672626 -0.20215684271084539 1.0298026636382587
Ni 3.59749100820719 2.855534425878266 1.9649739610777064 0.8939206328952475 0.2162536871235437 -0.11860833126422798
Ni 2.0122179061271286 1.464975465954723 3.4340553556822515 1.3773972991013503 -0.7823576385135752 -1.9449634368592053
Ni 7.716155214397305 7.912921400679573 9.545221280807409 0.6185814524634572 -0.03508810195238473 1.1468984149127022
Ni 9.080957799845608 8.26188852794808 0.4737949038562113 -0.03587254552689306 1.2657674560374848 -0.7736991915076288
Ni 3.4304932647357114 4.470658788693475 8.878741273941442 0.9461297107986351 -1.8850518481052374 -1.1890454805943973
Ni 4.07845150291866 4.81845726302938 11.090167574920233 0.7948385445894053 -1.1938470157480987 -0.05200004721637496
Ni 0.056524153573280986 6.7875178285745585 4.691848901067987 1.7124464937992638 2.372665676408165 -0.7426235531487468
Ni 4.116538546131601 0.5767053768622329 1.996678502920148 0.06732253650605825 -0.1849764742768169 -0.3681459772518821
Ni 2.1870833524125874 4.532183304499642 6.705281470085695 -0.23584317921969705 0.07489829197078714 0.45810347754863684
Ni 6.514779999681505 4.760926411575573 11.000348775356843 0.9877255319625505 0.4779588217116672 0.7019445873721459
Ni 7.694493726181971 6.98030875448766 12.343463186814187 0.18508754593338447 -0.12705440514905214 -0.2167295983186977
Ni 6.057229371588473 1.2050376073707287 12.604500683393818 0.43118608433250255 -2.0237854893644305 0.6906792988709717
Ni 1.8143382788618283 1.8103170085346827 0.5952878786897788 -0.22463934008407763 0.7794229813652835 1.4351579029505865
Ni 3.1650802211525146 8.486444728848152 9.070566910936195 -0.2148732618362493 0.2388508556977693 -1.4573143844429677
Ni 6.405671985336049 8.229681557364536 0.8556287845056468 0.3568135829581984 -0.3919644198277185 -0.16935702257200513
Ni 0.6876289441494404 1.2717612484282388 9.781746512175484 0.4460923120203737 0.5125609851665688 0.4660062773354813
Ni 7.1822188540717 3.253750612164812 4.607498845109681 0.5961012690830702 -0.0020805366781125457 -0.9692680965883114
Ni 6.000986798958009 8.781699831174903 3.2674689412350824 0.3469192066626219 0.06334221170207156 0.5850020738461151
Ni 2.6878465330371406 5.97097910436574 4.645088060577317 -0.34079355338085826 0.48042605230523716 1.0107294490568914
Ni 1.9147688151329167 4.722066401068628 11.398828138603013 -2.04474537944555 1.0177758143807116 -0.39490473340296506
Ni 7.071058795600493 0.9142482315651774 10.522516037588614 -0.8914068653344583 -1.2401081035981676 -1.6302946055898568
Ni 2.971958023541984 3.8571896150097063 13.173309831268126 -0.16834117971298104 0.6138272256079235 1.5305509724406157
P 6.530938696922849 6.343908217748405 1.9640178741509549 -0.08022741749318442 -0.2097104866883872 0.28477538614402576
Ni 3.325388116734211 2.1710902910199588 6.236203507121233 -0.42363346879622527 0.8260355390174999 -1.5376798701759131
P 4.171216780190865 0.8831215747949205 4.400239627811294 0.2760058674815118 0.6538893837361319 0.5187087499355196
Ni 9.341677827715202 5.927610117977098 10.029343579831023 -1.6836023158740618 -0.26656323401137316 0.9691516256151049
P 8.419187372278115 3.7515599534872734 9.864750316763395 -1.625482271802878 0.8526950505865574 1.5838746235644205
P 2.271852098988478 3.7927664718510203 4.669923315693868 2.284664014286201 0.6078756360101789 -0.3727567365510161
P 1.0830191988170697 8.75590664873328 2.4549956569130673 -0.5629666913126304 3.850675127306639 0.7107907249088662
Ni 6.356717390049061 4.864448817022683 8.61580448629654 -0.4212500561657132 0.08472556247385409 -0.07569276284762448
