# total energy = -340898.3638282393 ev
CRYSTAL
PRIMVEC
9.01137130137531 0.00000000000000 0.00000000000000

0.00000000000000 9.01137130137531 0.00000000000000

0.00000000000000 0.00000000000000 13.18905278293751

PRIMCOORD
 96 1
Ni 6.262515621037895 1.9168989202312963 11.265073010324457 0.8444266399301779 0.07791445308929162 1.0898304662551166
Ni 4.637774372359902 0.3387743968459354 5.894055964587663 -0.38531271883915574 -0.5318010643431036 -0.0012585549974494454
Ni 2.6963915560855996 1.5129371639501357 4.81942469552712 -0.2888924936361928 -0.3385458949972621 0.8798453857491041
Ni 3.5634657103948104 4.269443578520423 4.986055766013116 -0.03663436339358207 0.3521701706489161 -0.9917444233139564
Ni 4.956704828287066 4.4927363499777915 2.6368345014894135 0.639181645212312 0.5201521672502655 -0.1765252581856702
Ni 7.198445664071661 6.161065602027158 2.5534135332012546 1.0307087203922958 -1.2847285705210196 0.009240030541029249
Ni 5.026200524379693 4.531737565316082 11.436108839141633 0.029511379195555628 0.1484467547818992 -0.12560250319387403
Ni 5.590699861818811 7.834702551820114 12.269064139126947 -0.26211599687329695 0.7269832755083285 0.9801189232598861
Ni 1.8266320131047595 6.508796400888974 0.47149297341266405 -0.2525183258825328 -0.29260619504235413 -0.3969922120596131
Ni 2.7538931168697096 1.5783056519501253 0.3202001581547886 -0.29627464503287687 0.023407837400979042 0.785168368489493
Ni 0.48489288265666525 0.0438655536099187 4.714532332648725 0.3995476314916151 -0.020845990211073778 0.6029262624247036
Ni 8.624540242020155 2.200802175599325 1.3776494454025965 0.029006414534679077 0.9344023950593779 0.4929848628068542
Ni 6.967457181454659 0.7666000668190694 4.8411736403559 -0.2722697974778472 -0.45900182099319015 -0.20009070421043604
Ni 0.9097249750569296 7.646076526066628 2.7220090826483747 -0.1772143138328948 -1.5152518801897001 0.05313338948986978
Ni 7.553529741980621 3.8329868170382753 3.8514538204099846 1.0337814457803487 -0.2375604190211199 -0.21646786001687882
Ni 7.7538795619011855 3.8223984556652417 12.66629169757486 -1.0694881551533388 -0.29994823722972214 -0.5858551658750297
Ni 7.784950770423927 8.74412114025008 6.9719971103565594 -0.6404725961095937 0.9291753423324836 0.4556714710683765
Ni 6.877154228842596 0.7335842043522426 0.413619242990506 -1.4062260504075845 -0.701542723948037 0.08099334912493147
Ni 1.984826637703577 6.385304567479563 9.174634902306257 -0.3080749801019146 0.5911956042513367 0.02417351192240998
Ni 0.13934824249195504 4.674711983651874 1.4244436947114398 -0.06465553119685638 0.477222714876591 0.8434699324438636
Ni 6.172924566764957 2.0069135089591565 7.031914619807998 1.2972809532647336 0.28672196834743524 -0.2072442845360818
Ni 3.442551129200454 4.500531186222621 0.5908170475582202 0.13467721180163256 -0.3493121323748307 -0.8418221124277955
Ni 5.968780959492863 5.537145281699712 4.6871647977637 -0.03897406727035223 0.5492146318338605 0.6884653219387885
Ni 5.237922694983466 2.859335173402365 9.301592509148916 -0.6330755323145743 -1.232475012532942 -0.7919673936891973
P 0.15700332130220868 5.523637235999136 12.494279937237087 0.38051658300209307 0.7338895157098587 -0.6240669010580606
P 4.040969268518805 6.249737496419204 12.596600454723257 -0.7150885809532717 -0.3214773695507496 -0.25951198359154665
P 2.349985428816837 8.460776589907692 1.3800230406244327 0.9037548453768501 0.7750765314711296 -0.09399644625281876
P 6.253666454341453 7.79367377792103 5.7393748736904175 0.6662108814159624 -1.0497209998287405 0.1560101689514539
P 4.743396656320185 1.2027567496342204 12.65125622442515 0.013927151604053433 -1.3016883383038098 0.32389780606678414
P 4.017936203268189 6.070492308273658 8.15343295530261 -1.0767949732273971 0.054488360855867446 -0.1975615100306791
P 4.791247038354916 1.0209793661305266 3.774364241654331 -0.16232325565367525 -0.4435811155627457 -0.024225191095951826
P 0.3163622150834906 5.594340455856859 3.5272535144990345 0.1069298664850352 0.19308136277213844 -0.15439911571059214
Ni 1.5289774050088591 1.1875906115994832 2.6557079177104197 -0.2183393660079788 0.13486104567766452 -0.4574154503426768
Ni 1.9928647809757016 6.4856822332959245 4.852410820468388 -0.15282354369335616 0.11411969936525508 -0.7900375236563362
Ni 5.754003933990828 5.241914732505383 9.056078597002388 0.8586715798849663 1.3789667004709991 0.70465195900098
Ni 8.495533449325386 2.2649631398342196 10.210753372357376 0.8053394441207291 0.548283635379159 0.10061318023838801
Ni 2.373414994408231 5.237391024071968 6.980266845873184 -0.7355802731487203 -0.1421902323492261 0.06173501511595174
Ni 0.4222980947678413 8.968540333130111 9.1552072867453 -0.0636671991416581 0.00708158943712974 0.04945414086606967
Ni 1.4403055106168134 0.9924043074804072 11.304166141650837 -0.715573233899174 0.9177280197274904 0.6169986813573697
Ni 4.104553504985296 6.850696842467084 1.691179386460943 0.3171661437699054 0.28190937745014033 -0.8059058581471603
Ni 5.622329775367193 7.588259567284173 7.927055591421423 -0.04150737521516722 0.6183297414639674 0.4257523149114409
Ni 5.519618164363074 2.719559791906936 4.840184191778234 -0.864539351519653 1.1734903064686177 -0.04413478553568528
Ni 0.5985361882834465 7.500948389970704 6.90886073904772 1.2181076880676762 -1.324490680910306 -0.0500092420385913
Ni 4.969131509421885 4.392926400558452 6.936426524103132 0.8385341857051428 0.8780155316292169 -0.1025718466266556
Ni 7.949570502817615 7.004151485719334 9.111683264110733 -0.05376768063975901 0.3976565851164893 -0.002435091804053871
Ni 4.511470991079526 0.39734740968728277 10.399884936045353 -0.03130138121644287 -0.4473269557584232 0.0005435312082958381
Ni 8.12051621792098 7.119388902943468 4.591716352092913 -0.3410740607357545 0.1830615166422912 0.7174372836911064
Ni 7.233671114801184 6.007980425001542 6.893258450638127 0.1303143068472465 0.014757617925148776 0.18304480447174284
Ni 2.4356475251675267 5.267416913514477 2.6026750959942992 -0.7828489763276969 0.1229882054994785 0.8059685930642958
Ni 2.477856788717561 5.172184740756841 11.331454376467706 -0.6159471001644038 0.18772626910781215 0.5619073968101806
Ni 1.2054962065341372 3.4427764134849865 3.809064329432324 -0.6396398157956532 0.04185164592846341 -0.05354245200283037
Ni 3.604927030120197 2.648108628224565 2.942966106643708 0.09783921703767666 0.26672701328274706 -0.7589562288704993
Ni 1.1851214958410055 3.2212408594469735 8.047366410733233 -0.7287318827683192 0.8516722657489977 0.5632250871803397
Ni 3.702222806924152 2.5115683290550246 7.016747580636123 -1.2067128159671734 -0.030692801098166494 -0.20236227385343214
Ni 4.113997422192905 6.840730265719359 5.98380742127119 0.5230567424915702 0.3703177880922203 0.20563811639122648
Ni 0.7824582781758908 7.353765661199842 11.256922224910067 -0.04470197089306495 -0.5747814245593714 0.008562287747714286
P 0.23883648595298165 5.587311586179441 8.020790975392625 0.2282049459481489 -0.4607265169937807 -0.3212989349913563
P 8.456694438671962 1.6846939024778176 7.99432007196004 -0.17090534089573148 -0.7201621388214371 -0.08680712759323114
P 1.7858195121188272 3.2499510886678125 10.400135452169755 -1.0256138223678917 -0.5214040373794956 -0.4109173067811374
P 4.078465584836417 6.2589561293422795 3.8138259380702055 -0.8862744292038994 -0.9756323482434422 0.012981756971648611
P 6.827195185904639 3.8460623169125494 10.342631187974229 1.000568963584122 0.7510765690121064 1.0157747247902826
P 6.139969981623523 7.736676853934274 10.176158717624546 1.1958308789473469 0.3355906690236801 -0.44355411897955227
P 2.316508184135287 8.413025332958155 5.819339981053845 0.5862919963021322 0.511511460856132 -0.08503255219131162
P 6.914190965219762 4.02802893921525 1.709037221127276 -0.1725145943643803 -0.13199092321872105 -1.12798692272018
Ni 5.345590560247302 3.1329294199101794 0.23902482361485095 0.5339309662019127 -0.4578149997739406 0.7287817621696481
Ni 1.3236262739716704 0.9872768371644444 7.057238375663743 0.6487546336127279 -0.2605180562585578 -0.4871302037982901
Ni 6.769468340835997 0.774521062263237 9.075400779518182 -0.6669295047495417 -0.9842565995773436 0.3816530105993814
Ni 2.6267697007936337 1.5137571987458343 9.17580908399724 0.2671023943442948 0.25749675293373075 -0.22538804532464407
Ni 6.327974222751698 1.9910625066994403 2.5267587977924912 0.4390359193942245 0.4158216860612903 -0.003933530726451291
Ni 4.136372657332686 6.8079739307483145 10.402707297561978 0.04942020230434069 0.49586346990622987 -0.38789873439877715
Ni 8.012451852316364 7.36645367210472 -0.011356130214721134 -0.03011764532098684 -0.6036446286479669 0.8663167551350499
Ni 7.587736907744057 3.735880279033328 8.250069099721456 0.6625555440515621 0.1754417953135043 -0.7463642511381018
Ni 2.893371123109555 8.331598581156678 12.382594802611461 1.118873904675318 -0.30157703108239675 -0.269956061743006
Ni 0.05321034573233245 4.78506523758734 10.171318710055646 0.3476900233903754 -0.05962413942053602 0.22694690517133176
Ni 8.802478781315413 2.389464246838336 5.811044112560216 -0.7293620601531503 0.7443122537050795 0.3176068308517498
Ni 3.5477949355627203 2.6044124883966147 11.428459085976046 0.4499651647122186 0.35816675455198316 -0.21221114162305388
Ni 1.165927274798825 3.424942909521383 12.655648366836399 0.15044193083505703 -0.31659458753715153 -0.33328901747369694
Ni 3.1764092868249785 8.363255528819204 7.976356804248545 -0.4394881764402947 -0.9679576053070038 -0.4220730662876409
Ni 5.655419531079347 7.894366841735737 3.553434251773141 -0.20490329510773095 0.31213269511105596 0.4066891276324028
Ni 3.1462302040689867 8.468598460266666 3.4841656422393226 0.18216651563184755 -0.71286586227034 1.0838264261528818
Ni 3.3369739020970792 4.160892598861218 9.130464764343651 -0.16263050248144895 0.26251451786329627 -0.10973416870304974
Ni 7.212097891714339 6.036339210738509 11.277788055343478 -0.2730907507172458 -0.6072829967315024 -0.017792805207046777
Ni 0.5035959839585646 9.125635570420409 0.42796084054385364 0.3075509892776445 -0.16943544121842433 -0.18653687678540135
Ni 4.523149728389698 0.34734421102955687 1.6775154440354696 0.47915438468166505 -0.04761760187796315 -1.1711356901935122
Ni 6.013828805028008 5.654401246113259 0.3206759585637215 -0.007418918171890449 0.12438560006763741 0.50815642834097
Ni 7.896700786923495 8.851419539287283 11.268159405022555 -0.38199291043730343 0.056350867985902955 -0.6454687637726045
Ni 0.17391045628781399 5.003969471182012 5.711057540261803 -0.2464772618947755 -0.6695116636544212 0.2945769456154798
Ni 8.0082885987382 8.92324918056767 2.6120658461107573 -0.8952028420417808 0.15651410517106593 -0.5305707914804282
P 8.573950403085508 1.7475842633479481 3.7029320018518606 -0.11269916486864462 0.11966042667782617 -0.9018558285819243
P 1.943347295235428 3.23799299884482 1.6527071386227357 -0.5110795155250359 -0.3749977100663929 -0.5778070987595727
P 4.6125966007205355 0.9023446618956404 8.104567892850346 1.1644359095758332 0.7295687768473177 0.9812826045506843
P 8.412818071416384 1.6434128101800571 12.395704545696985 0.7296677643190272 0.24842898630450766 -0.4364241928029903
P 6.308338444511834 7.687582902648922 1.4222286996259148 0.018921776605167414 1.1528988554705113 -1.049448205783328
P 1.8689854585968955 3.2683072521715313 5.94451694091156 0.13423112540314946 -0.004370361153553764 0.1720350836248005
P 6.979667589676327 3.997597538060582 6.029982589366137 -0.1615616948973024 -0.0742837983152398 -0.06927220403326134
P 2.422653127635684 8.48235882436592 10.05612544855128 -0.5918630626320065 -0.7489854908110326 0.9485005250236569
