# total energy = -340894.56978389923 ev
CRYSTAL
PRIMVEC
9.05295943006683 0.00000000000000 0.00000000000000

0.00000000000000 9.05295943006683 0.00000000000000

0.00000000000000 0.00000000000000 13.24992121307029

PRIMCOORD
 96 1
Ni 6.503655098929613 1.9290951224050514 11.562013374421447 -1.1237829119411615 0.8408697758168551 -0.2763614510487176
Ni 4.4705686316887325 0.17358778095443306 5.849548906205089 0.5546504581374513 0.08797929352446139 0.7473453841044484
Ni 2.8772930388984705 1.6179630131234484 4.655638281073156 -1.1396666730509535 -0.4177458996671966 1.3610764504541397
Ni 3.320344872820772 4.140425307629099 4.871015427997525 -0.2153273186545324 0.763342530863653 -0.245884365505783
Ni 5.1940630424652445 4.422615105651005 2.9054957233737086 0.2816982898805987 0.4934265783299631 -0.878119918417565
Ni 7.376170274687633 5.96735778300078 2.613533255659953 0.6335840965198766 0.4337217062701627 0.3475154454857241
Ni 4.966643648922905 4.499329883760069 11.702290791196946 1.1586175031218433 0.0746910610559875 -0.7856077700197567
Ni 5.762027610438628 7.818832831354957 12.309044574389103 -1.410781788099067 0.4909552339713351 -0.2640468953474227
Ni 1.9998258943387446 6.518836911873784 0.41797966281384596 -0.06364097388941298 -0.08877067907750517 -0.0511595535929506
Ni 2.7294491586413168 1.801131541030067 0.3239275621231597 0.56719255646852 -0.935254458647028 0.36630686716061434
Ni 0.6878103606381477 -0.07780384912706242 4.523139167029697 1.192050328858992 0.3691620772212223 0.9602877474665719
Ni 8.492572177169535 2.2245294000556517 1.5281268756337758 1.467360712935376 0.7382066550279739 -0.6548466054430787
Ni 6.714860642154119 0.7398965626502435 4.810939989298948 0.19124328112213515 0.14194520621795556 -0.5601752446104225
Ni 0.9306894929787944 7.237460830483353 2.7840738104742506 0.16898292706203802 0.39569200519095077 -1.102575681735927
Ni 7.3800721001968395 3.586003966945209 3.813990075747123 1.1785019007505961 0.43256419562695175 0.7834866099116959
Ni 7.708106084712053 3.7989114665403187 12.62235210981888 0.042544815340746084 0.08466668421146063 0.5644692440000859
Ni 8.116865308358554 9.05956807848518 6.534662390232582 0.40801710241520694 -0.1627631714045713 0.7899115396014332
Ni 6.65387990751373 0.6269952951551105 0.3723744744491752 1.7803562702673597 0.5063407152884699 -0.487103978546045
Ni 1.8350620329291432 6.476559591391211 9.291865206561999 0.08566041558329764 0.0741873819466916 -0.7241545478102819
Ni 9.203962781204035 4.9408970323378 1.2249514123847496 0.17202299943994248 -0.8153780593036538 0.7257440037845889
Ni 6.334826458741281 1.941823583346914 7.000039727375885 -0.691237485367287 -0.6573899406902227 0.7529262206263355
Ni 3.3921529469252203 4.350625972358194 0.4158015207778487 0.020321485166171452 0.4399995688590745 0.01736523075132493
Ni 6.18864832301706 5.65999170483711 4.7375621320314 -0.29656389413852147 -0.388454349791931 0.9818593029897607
Ni 5.342604000597593 2.9799988634969283 9.36182466635327 -0.6693854224892021 -0.4166356973221535 -0.028590667153499144
P 0.19283708856516027 5.707954283834257 12.373995031734335 0.5048096233559242 -0.8167068054174064 0.10049053861759467
P 4.085030248949685 6.263072702393342 12.55040462013939 -0.4029422589954609 0.530928431930163 0.5902849195116091
P 2.4767448494441955 8.358787542888706 1.4680251833528857 0.14099286960701524 0.48071555852119785 0.024756381009073493
P 6.418919398776104 7.788822270883921 5.7622050484432235 0.06848236114211431 -0.7650715977396179 0.5894511107564041
P 4.67923029331675 1.133186089243078 12.691423474291232 0.0428579757057907 0.15196350968590605 -0.728745509615074
P 3.920918200618187 6.122534560386602 8.2569272646999 0.39025797865957307 0.5274379022784013 1.1172227422251404
P 4.7934695882138785 0.9104380227604826 3.808716726886074 0.15131096370357167 0.2534328672770022 -1.4462396146860448
P 0.27239178004368514 5.527320584564709 3.8740383555674462 -0.6236223573214743 -1.3309665184426367 -1.3931105960715493
Ni 1.6343126578325549 0.9444590442537397 2.642326193089252 -0.4796032992936256 1.2021521931796846 -1.46051000856213
Ni 2.021000766417704 6.346387087918208 4.941902816129152 0.6812626335427622 0.9353400763822988 -0.5130415243474131
Ni 6.0519214769253455 5.662970128485669 9.297575813362942 -1.1461828769029163 -0.17671166316486342 0.012675024364507202
Ni 8.570409522246445 2.2996599102665463 10.198013937150181 0.02440439698629345 0.025968913259935923 0.1881173338986438
Ni 2.4810087933301253 5.17200098036331 6.951716840593897 -0.022457814782883903 -0.28734288976088573 0.6453384088423273
Ni 0.5756378563761727 0.016583211062093824 9.026482227699814 -0.6223267784385024 0.2928645909100634 0.4103784035585319
Ni 1.5325573939729988 1.2571120507175855 11.482898656770644 -0.713383682447023 -0.0546102311457124 -0.9184330162143151
Ni 4.230429830163948 6.809690392058822 1.7978815285989656 -0.127823936325225 -0.04765231177064051 -0.6955355985220086
Ni 5.608362677275629 8.025846854368877 7.834228294141393 -0.9095848217950658 0.20112865855664716 0.6856432791089612
Ni 5.152772494559246 2.7588169589936657 4.83251138100042 0.897916384318202 0.2059960139512775 0.7382012557113351
Ni 0.9162228638286548 7.438336947011795 7.188559459594549 -0.267492687804178 -0.2613891460096015 -0.8965346734793269
Ni 5.066208096603278 4.390105928380572 7.216145637533413 -1.3288307030465567 0.21745542074112872 0.5006719470384667
Ni 7.824662937220219 7.629797985745402 8.419132759777945 0.3186396429916383 -0.3859225845090128 1.5513617385383798
Ni 4.602424985613505 0.5324552399517882 10.496031024122766 -0.6375513086977408 0.19261804998247473 0.19628521442141678
Ni 8.448982177571336 7.223265790115756 4.921882196376001 -1.5244803407665037 -1.1588386179937138 0.17454370897926713
Ni 6.89107649722763 5.9250985684370425 7.065586774746768 0.7269074279650708 0.2000667929510361 -0.9749810878126886
Ni 2.377832214841926 5.146770382465038 2.600257090673295 -0.08710074757425 -0.021941794378413825 0.4655748462250175
Ni 2.4259758530274347 5.359469663993532 11.459618066331032 -0.3201727918067131 -0.17018003269393273 -0.47101015830797593
Ni 0.9763526202837411 3.2628676334751923 3.815234857667113 -0.28490111308861255 0.28029446755453663 -0.01934446596488281
Ni 3.71982481306371 2.758807906034247 2.7867362858391167 -0.7862469462656524 -0.8849564817234242 -1.579042749393416
Ni 1.008535891015122 3.675981330601804 8.14476652928517 -0.5785779154873262 -0.52746721285444 -0.22200241668186282
Ni 3.5651368954864657 2.6176270039088227 7.0379471843473365 0.5822463654778488 -0.25635544024043594 -0.26080139182693146
Ni 4.1889763289884225 6.755942971993502 6.2287484067595775 0.5036171457097197 0.09418259412169587 -1.3590388511988207
Ni 0.9376512187713211 7.489558591399461 11.390626367901557 -0.6354211497286153 0.2774505703478383 0.004554452139901834
P -0.16106663278324518 5.7196959721995455 8.062258762444458 0.701445022027908 -0.021799355263278586 1.0021928723407902
P 8.33185498861983 1.6365940036059186 8.06819478793491 0.5929187575900305 -0.13266249536444893 -0.4325251148589002
P 1.5627671195512318 3.2094551729083434 10.24165915980083 0.8903776527389957 -0.09568411836788682 0.78045193685043
P 4.101099251916829 6.010857253004797 3.8639551693675553 -0.2515179096424765 0.7450686722551297 0.7677961957596325
P 6.8575714944212045 3.960452474397073 10.55790800174555 0.35620346017802523 0.2194878777901252 -0.03726762610220678
P 6.341670496061372 7.617196266235394 10.157733699515243 0.07689218247236436 1.2473449876662388 -0.4207204089144883
P 2.402927018348927 8.393007729489161 5.823393095854286 -0.00903177118496509 -0.043855049511737375 -1.062326347297577
P 6.9319234501221425 4.067096336342408 1.6253285009060225 0.9900528945441466 -1.1563184226750216 -0.325239150586027
Ni 5.304174187867717 2.9663107888567457 0.545235302762334 0.2768710436952845 -0.18888223708912633 -0.07900588638125748
Ni 1.5400894562088665 1.0358305636607237 6.964423574433157 -1.4961079602713976 1.0207289834717646 -1.233782932711088
Ni 6.723651065749103 0.8116466978144157 9.298622335471675 -0.5012926113416011 -0.36347891079351596 -1.1185851697903058
Ni 2.592269664578697 1.6117164711249525 9.002897457823755 0.08101083262642822 0.2138957284143284 1.6320696952124085
Ni 6.465686987130061 1.8379318210646842 2.518704411051193 -1.2778482984614186 -0.3582372027786024 0.7186955815782398
Ni 4.068354697701525 7.177928569349861 10.345406074732372 0.19728588777178924 -0.646551455313822 -0.30314617534172955
Ni 8.201546690755555 7.100489554487349 0.48558806904423296 0.8533720220489239 0.31689437816575744 -0.7313137845628824
Ni 7.582532484623449 3.848711796299342 8.358460731053713 -0.117122747857637 -0.34512611931794107 -0.23124321855384047
Ni 3.041549934580658 8.511809715933019 12.428054778899579 0.9315839517739761 -0.13003585637487927 0.07267994416322966
Ni 9.109178296096424 4.779247388968028 10.284151940717555 -0.41724402033011365 0.65635275767496 0.09336215510292954
Ni 8.525715061599236 2.3055533868477363 5.872126986993855 0.6867732789483463 1.2347568665885833 -0.1397713384950883
Ni 3.4036049405891298 2.9050041476773054 11.360986073470723 0.12809107394368263 -1.0056769742346487 -0.003022331766091569
Ni 1.1432167682783438 3.5218728024273176 12.58571568834973 -0.28335356609583456 -0.004494802546560001 0.023613782764198045
Ni 3.065368270809705 8.552937310569494 7.8420853576203715 0.8366598515005657 -1.2777318274882123 1.712939631385598
Ni 5.872555191974332 7.7239034988966555 3.605118385460606 -0.7902938626415165 0.795023921127334 -0.6938654099084373
Ni 3.2618174901826915 8.382922732697388 3.6277353939748704 -0.1575021801159481 -0.8159953811726787 0.344961825825935
Ni 3.232911390760666 4.2533971882076935 9.19630669342414 0.4063924223275905 -0.044437404377768636 0.15311279279900084
Ni 7.189778893228167 6.075241900386396 11.501541416100357 0.8692763519840061 -0.5853440305665661 -0.29334101632584964
Ni 0.7403836118669377 8.980191730307192 0.13554362429576775 -0.3641774795224373 0.08546372619145927 0.8736425993725019
Ni 4.7138669160504385 0.36055130944912356 1.599212523576659 -1.7217490021471122 -0.6904903227886173 0.5905793108235765
Ni 6.092469682159059 5.679935374435206 0.39843613402203015 -0.7860700543681559 -0.2679850540595643 0.0674498061125419
Ni 7.772898115267466 8.990131879748278 11.16146880615094 1.4956081378168435 -0.9177547592003679 1.0624235349970736
Ni 0.2373305735132871 5.024464900726373 6.000902618828644 -0.7261605224967171 -1.285519184743115 0.15113278625449456
Ni 8.091770504851553 8.656340213043144 2.3648593239957743 -0.3232887117278755 0.7422713120156507 0.44099972798881465
P 8.503055504175707 1.427425376250488 3.716152027427783 -0.17113365485645368 1.2089962126847114 -0.9608096814083131
P 1.8499541511719342 3.2329204437200842 1.6247319108803693 -0.9281168191609822 0.010434307959446545 0.3384422795398623
P 4.615108181758276 1.0472825573246327 8.2438493595245 1.1653548218456768 0.35970350291148373 -0.1905593676812331
P 8.563556431966935 1.6230145644787537 12.555744960900135 -0.13641450620771345 -0.04817167460922026 0.033866056619825544
P 6.303258789250332 7.723369374290987 1.2171323713353281 -0.18849400051177215 -0.027545513718436433 2.0442116184292662
P 1.7362851927181455 3.131219497617037 6.043567405974313 -0.9611431534883318 -0.028094958464003224 -0.4477689283918482
P 6.753589202544794 3.851862226176844 6.154389208691106 1.2909205582643444 0.650222476407506 -2.0445314636625307
P 2.3353828881304084 8.676428729991931 10.149439378096371 0.9535512000736869 -0.43401429780991707 0.4473549807828811
