# total energy = -381167.8570864663 ev
CRYSTAL
PRIMVEC
9.26004502083875 0.00000000000000 0.00000000000000

0.00000000000000 9.26004502083875 0.00000000000000

0.00000000000000 0.00000000000000 13.55301190768975

PRIMCOORD
 96 1
Ni 6.959581266370803 2.5759593127981653 7.049572235504584 -0.4004236063386652 -1.6231585087657079 1.6809540796179374
Ni 6.934986586901424 3.563191228306247 5.119311229204944 0.7552096173438735 -0.2307020013383898 -1.710737481527957
Ni 7.138550155717449 -0.06618154147878527 6.88577037383222 -0.46800196760927143 -0.0007600180944761104 -0.960811481180526
Ni 0.36236593220317914 4.530282545980781 13.016990612414954 0.20124975751554375 -0.4200310961569476 0.29294712332154066
Ni 0.9618686523052837 3.038072597527045 11.041299825438818 2.005032891347276 0.24019657109238635 1.2325678293570643
Ni 0.7185850465480097 5.55714745400729 10.801154448925585 -0.2904415832908675 -0.17103338183316352 0.7806797365905199
Ni 0.6879148515666349 5.8411252534378075 1.624220223697533 -0.195825758286495 -0.14565119431463303 0.36429934981228224
Ni 3.3224022786668383 3.169074453872417 4.421331634748523 1.518514867211688 0.04250856278617195 1.5275047294151243
Ni 1.6079419906255368 4.0816981869690565 6.095806122557623 2.640263265221324 -1.603180265871568 0.7307167744088319
Ni 7.527120163207696 5.873915072715319 1.5515084984981882 0.28031092261476886 -0.49874156278497334 -1.1754448590918272
Ni 3.369647028159599 5.084023975796071 7.666762567524784 0.7430711822091267 -0.0031303180988655767 0.10906413921921862
Ni 5.4281457673778 1.9573420078464026 9.61462877134219 -0.24362899381270303 -0.034909410282675364 0.938783297735893
Ni 1.364662088886255 6.742748053097089 12.77965010352645 -0.20392807567865526 -1.0188201964848262 -1.0985642465836887
Ni 5.172985227927971 6.1406506683913245 1.8443750151059108 0.2908254489928475 -1.4249894470580167 0.7314821918199467
Ni 4.8580047979012635 7.056237615881866 6.64963644880473 -0.02279128686290268 -0.6489734344917533 0.5646188822040727
Ni 7.311861157580742 0.9455617130938466 9.017997591188674 0.6228006327511274 0.325087198389195 0.39545880613422213
Ni 2.9191643599267816 8.253876273446888 4.947486464561092 -0.43049780001622634 0.9192215735538813 0.7884393259312809
Ni 4.396715657175688 2.8640763523351636 13.108202055477223 -0.334750689620888 -0.41278084235243745 -0.14261060771609632
Ni 1.85271275960675 0.10970282688470985 9.021142302464202 1.5104675714271794 0.9005972735844748 -0.52183675404154
Ni 4.4129577760722585 8.921988518821781 10.278035061857768 -1.794049708594052 1.7142295538416155 0.43311106926935733
Ni 5.59955846002 5.955190487513038 8.780807095028859 -1.076728895876152 0.3235717901859331 -0.4136645305089715
Ni 2.964066318039364 4.0798832181527915 9.758032605930536 0.5431655974263032 2.067950099696787 1.2988580679438662
Ni 6.454714353964919 3.4164380354482935 0.4058140632537543 1.6484213970975548 -0.03335029332567159 -0.23756170457270057
Ni 6.103388247388017 7.283645800523814 13.74532926434139 -0.6447650528373605 3.093927990272317 -0.3227400383132571
P 6.804206971635594 6.092535474670355 5.600917834623202 0.050829423947041485 -0.11388135810220387 -0.0741632135769755
Ni 2.0781578147127395 1.3826080560593188 3.738882987734138 -1.3566533816857798 0.6576048849145062 0.9472458266809491
P 9.01812630581391 1.417712886582066 3.6906751935633593 0.03358040705860669 0.2541818296278848 -0.7004875432106452
Ni 4.153056093592188 6.4516122388963035 10.632175296104379 1.6543156510948027 -1.3420412881995598 3.3681407704091484
P 7.73814732827836 7.221103456722538 9.60214623070788 -0.28387318604473044 0.12194485183662869 -0.01865798142081948
P 6.507283629321721 1.2140659773612117 11.679917901544915 -0.07285452206788097 -0.17968257286772923 -1.2863938740385845
P 4.896285823852473 3.841983402547437 8.803033980996613 0.5895722097153008 0.536398968126431 -0.7047596882234378
Ni 7.570290492908843 8.939665944690397 12.830026600231765 0.641894930378417 1.0937359719571098 1.1725814215011032
Ni 4.54847853436833 1.214658620239992 3.424832266223517 0.26908754309512367 0.17057598258077072 0.09977962859349912
Ni 4.417911900137062 3.4061316053845068 1.8542415930331035 -0.45863749567523593 0.24286151951905918 0.5226733910102225
Ni 7.864343221278623 5.182504554168379 3.669220595347017 0.6684803941764293 0.5289617951220955 0.8567990454526019
Ni 9.1136992300622 3.5050381458259374 1.7914371899588672 0.07958695569570809 -0.2599148754569201 0.20837968369210563
Ni 8.560504142900788 3.16595381871384 9.692666874414572 -1.569314980582691 0.6601307366601534 -1.4824700577729888
Ni 0.3808721320975897 3.49355569004957 4.265905483761421 -0.5812680607249796 -0.8028567869081914 -0.6890983275370971
Ni 4.146925943814805 0.8424316661366087 7.880967780032907 0.0635962366944066 -1.8590464251804115 0.008159652992656913
Ni 3.3223004181720475 5.7319585831574935 0.7617053720062594 -0.5124123754038465 0.6059838183041047 -0.8007996472688467
Ni 3.7835154785377756 2.826897271736686 6.920492764497254 0.37389264992767224 1.233796559557843 0.3406513713760391
Ni 0.5817715859725989 8.10925289093455 3.3518084775083143 0.4229881219027425 0.777544533395648 -0.4541452642318372
Ni 2.178175560551883 1.3722090255457222 6.376217878665981 -0.6189930860795791 -0.5499448251316659 -0.23983404554664503
Ni 8.914200820992809 2.0377006781910083 13.264102320767352 -1.1378347620485372 0.5895698957224556 -0.24065448456541133
Ni 6.207767474413185 7.955313903171388 11.158574591104443 0.9951123113449251 -0.8149617977018416 0.15928421171703536
Ni 0.7062154784624686 8.836518303647695 6.048315981872867 0.7406900835714598 -3.5820295568449407 -1.0305457124518702
Ni 2.895569765315344 6.889714226989603 3.246529174111 -0.21461640863043685 -0.5613612944987235 -3.2108977574918574
Ni 9.199317605955983 8.016504280405446 11.150130356086324 -1.4890906484133 -0.6150580126912311 -0.9226444831925014
Ni 5.473797789133839 4.80964884301079 3.55773335779448 -0.7996272242273003 -0.5397128629910125 1.3758242981872757
Ni 1.929626693218446 7.754852449423978 1.0835771275077837 0.936147916995575 1.7482627321669248 0.8908034274225046
Ni 6.730608134127076 7.946850222058808 2.4532850149041536 1.4198161303871935 1.2713351799332493 -2.2724363618717573
Ni 5.883656640035269 8.338753845742193 8.784628715592495 0.951399958058639 -0.5741612744768693 -1.4726055062740833
Ni 3.677960225800029 0.3533447963827464 12.445771773702637 -0.2990987447452333 0.10802387088016234 0.7511431605839838
Ni 3.42742044879569 5.851265002691937 5.01389580314641 0.3224711009225866 -1.8518283101654174 1.4682906809488132
Ni 6.976036366301935 5.327655759244629 10.596951011001375 1.284805189395226 2.284720835666065 -2.045505911760658
Ni 5.226461987692906 4.180289885881135 11.154020500982815 -1.7576457160437213 -2.656113087769387 -1.9069576470393932
P 5.186699354544745 1.8963090513770202 5.512484405055215 0.38000030548730684 0.6842083464346476 -0.4307196862190453
Ni 3.360562924033296 1.0258185229436623 1.2080913963395086 0.7465768813695399 0.6442999402754839 -0.2842691359315685
P 2.601905958834762 8.971251958120387 2.705262876894033 -0.32245670274488336 0.01645608867349424 0.6843505284394665
Ni 7.5987188310003315 1.213890036506574 1.732725726766207 0.017475016856311837 -0.5697245788617543 -0.6887525141619041
P 2.677273464934641 8.492646533280451 7.066133825952996 0.3928007996860848 -0.03150038460112639 0.5182953165471847
P 9.24042294562638 3.0201173703090003 7.54036758355743 -0.4890155937464611 0.5557174659493849 -0.38916088894065237
P 8.944536728350371 7.694301015293605 0.6412645969616504 0.10122330301856115 -0.6635047953387089 0.4171748576550751
Ni 8.749881322806011 1.1844523535121625 10.934908390639293 -0.4759759869536835 -0.8498650373369299 0.1697149201320561
Ni 2.3736458500545665 4.595288061746987 3.015341965112329 -0.021336556694247125 -0.31933024130075977 -1.2809418497850777
Ni 6.67997420817129 2.928517005357532 2.766833841976808 -0.33198495395029276 1.1547454217609467 0.48590944401731156
Ni 4.474722276095135 8.270840675851971 2.055639237328087 0.31641306765396476 0.7517190876921118 -0.7856969872994533
Ni 8.926072198658375 5.001016932586916 6.252397187203328 -2.1037820217937315 0.11796838368738394 -0.5502587568276588
Ni 0.7903818793032376 7.250605960031817 9.115606799328276 -0.7727057172461078 -0.3847894993458341 -1.4074756065439697
Ni 1.762047659198357 6.304886826173294 6.743978713075056 -1.0721996405472307 2.66612393503817 -0.5807679811601094
Ni 9.130969213951657 9.137756826922686 8.103088478990738 -0.9449966256354564 0.2546924507157162 0.08788699092097121
Ni 5.121925339903063 4.500983763661084 6.15030241327496 0.8671788460250293 1.2643731467931192 0.04259340919049439
Ni 1.0305781860638659 5.07417128793635 8.631886125640868 -0.40900209203629556 -2.0276316025833983 -1.4516970382561902
Ni 8.89374538162991 1.365023230640512 5.943347815986913 -1.166745017324984 2.889157621198024 -0.23206879977892939
Ni 3.4450700945293633 2.244421922345535 11.035891959169948 -0.4109026514931181 -0.30128675353548756 -0.5478614602400759
Ni 3.2655178223489174 7.240845872621905 8.931353202311005 -0.12749097846583848 0.44802063939133807 -4.917820236149098
Ni 5.09385814356583 8.988660842684556 5.460901324488883 0.4266807402629813 1.6426662397813323 0.7007693361171221
Ni 0.9055481327267025 5.955838690661704 4.174016205406548 -0.4372631437645179 -0.36258725221718197 1.4643095848138783
Ni 5.428590249536886 7.251809765879338 4.0839557859354105 -0.8365621495804366 -1.4807301922637466 0.8452828172828861
Ni 7.750315027383317 7.9570547916278045 4.363337825041887 0.5653544748185166 -0.9382932454733518 2.523272672066177
Ni 8.134060551438491 6.814559701924286 7.4763973408200926 -0.5565240210110802 0.9891504373345351 -0.1632182566641189
Ni 3.0404524290871464 4.712362810441024 12.039940116363416 -0.8967293059886363 -0.2996119369362259 0.8986720315373039
Ni 0.6660028071282343 0.8557420547922133 1.6851679877530905 0.6675023465338762 -0.13082904170013596 -0.2206749561196909
Ni 0.9193428217348103 9.198234180693213 12.844229657223531 0.3954521212660028 0.6251940726839684 0.8281854954809671
Ni 7.904189194831613 6.42854546684878 12.543854170140763 0.9525019328735661 -0.21889498140113267 0.2803440898455495
Ni 2.264664380673872 7.790114700711401 10.772611286276332 -0.046611529210951984 0.9538381351864862 2.988094442175254
Ni 2.0081148344769018 2.1478489132393013 13.24793335622613 0.10227565554247549 1.001694849658449 -0.3318209175686027
Ni 7.332270296718735 4.625003546090826 8.182725791831329 0.6664718483868329 -0.49180035558044977 -0.26264847233799926
P 2.066045675877669 4.049834372189639 0.8160090537879918 -0.34759694945593683 -1.0660179372165512 0.5447239430523586
Ni 5.559777306781877 5.385901442174748 12.91820260054928 -0.5337026522411905 -0.5612615356960657 0.624235565425441
P 3.6141770359713075 7.509229756304517 12.742121919232188 -0.10291637445026791 -1.7572538799219413 -0.1062320690870622
Ni 1.8592503513632943 2.6396128619971537 8.591430841128133 -1.1159312771072265 -1.4676327356498402 -1.1042607827478337
P 1.733313739622497 0.7982695856180031 10.993782830623617 0.2109898676214431 0.9402650244877419 0.9864970588720882
P 7.717432607655995 4.20444934323641 12.06550061852431 0.31133873845485094 -1.6797803710248103 1.996965026737477
P 5.867571941903375 0.2782912058077216 0.8685811071582881 -0.6351604398680609 -0.28589741556361087 0.2745825047714239
Ni 6.962525960674743 0.9066547081019249 4.233310125428509 0.037509824019999916 0.34781497900401387 0.4722735984014318
