# total energy = -340852.2017231673 ev
CRYSTAL
PRIMVEC
9.38034920287237 0.00000000000000 0.00000000000000

0.00000000000000 9.38034920287237 0.00000000000000

0.00000000000000 0.00000000000000 13.72908923863267

PRIMCOORD
 96 1
Ni 1.935747618688831 5.300009854191245 11.646235380022308 0.1722315159063227 0.4784175065156406 0.36598702192735033
Ni -0.061521958170266657 3.9281900678568937 11.433722631182127 1.978086701775735 -0.2664251657716121 -0.17010187115782963
Ni 6.835272844739716 1.3724013679838734 13.613682950749775 -0.35240928324291565 -0.6080926371169915 0.0525309800191805
Ni 3.5258293698793657 8.850359456842403 10.434368369970024 -0.22787970139824626 1.237092199589979 -1.582327590792275
Ni 5.346573907549768 5.489108313428645 11.079292703439497 -0.7356671764355717 1.0235219728358693 -0.19411391780171086
Ni 9.539908925493686 7.534606017591832 6.079392112890586 0.6332755641405222 1.174844506503667 -1.0300024383538906
Ni 2.628964803871778 0.6578007387968801 12.516769305865234 2.7514750469111644 3.1580564453211095 0.41289037134710826
Ni 0.29732705207381266 8.981524879508038 8.313553966123868 0.43136811843632156 -0.2878774221081172 -0.9948042931862029
Ni 0.5117224369955918 1.4240401902519364 12.334378734330631 -1.8689318026149233 1.266808238597173 -1.0153564063059417
Ni 4.815955695154215 6.519830462318205 0.8466965824918649 -1.9374182775220958 -1.2825307915387525 0.17234567288668384
Ni 3.1256542932621385 0.7511155144627226 2.1016353419007814 0.9117170376467202 0.42365326629056715 -0.6772666250094916
Ni 5.722463260124849 6.71405997256026 7.848206099433245 -0.06641776530360174 -3.0728328601649144 -3.2271931522177706
Ni 7.458231214520703 3.6484117730399555 12.749436672966118 -0.769992432080003 -0.7110830593383044 1.7612429464766766
Ni 0.4203053059700451 3.3055600102974116 1.9314082691554604 -0.6876227714328351 -1.0719034494630506 -0.7613550681199791
Ni 4.216926596146312 5.340964458736634 3.016734368690728 1.0957823129631774 -0.9702222329714645 0.22379601824717585
Ni 0.9921501530373759 1.1741758289886497 2.4565455435217256 -0.9516575825953997 0.5172046545861673 2.1324583066825014
Ni 5.149370826615801 7.461852029306438 5.541211462981407 -0.970419179473619 -0.6482720375493545 0.29839194848619577
Ni 7.370365483696916 4.501460728000473 10.713370909909294 -0.9462852625398929 0.9929016768468514 -2.815436894475106
Ni 2.0069444690093756 2.378040463150491 0.4133432108043128 1.6163702821992807 0.04794927418576904 -0.4454860458949424
Ni 8.493662298701556 5.001151929130303 0.8701315088628552 -2.076388717382444 0.9885907081763233 0.8353835558913032
Ni 2.6662141704887583 3.3238141698130614 2.7404221128979582 0.08269721918991564 -0.8061503700577988 1.0631362447933819
Ni 2.5946983882958956 1.9182063657113055 6.407379774313243 -1.0434727049261834 2.0952361891062496 -0.5897290470081391
Ni 0.998866483054439 5.5775274848543965 6.580681725521683 0.6493035641376624 -0.42483803062728775 -0.19232854376651393
Ni 4.128563706815676 9.072139052643278 4.3025185303274505 -1.217348955524781 -1.6640336497135146 -2.0437002260104866
P 4.5947576810028625 0.5507127964214648 8.709802428571901 -1.7228597187127876 -1.879118256229622 -0.6320362924167825
P 3.295260386891357 7.237952474589563 6.889298027840657 0.12166974379837109 0.5564093498100869 -0.7952015843557789
P 6.1499163921745055 2.641093595369072 11.004647636758238 -0.10339665652079612 3.9211544642741245 2.1014549163224516
P 5.3058725724323965 4.528129060735823 8.616636800458114 -0.6858623370983026 -0.053377130069559686 0.5761268828436723
P 1.9841314597894066 4.034103590514242 5.649465382760622 -0.4605475682137552 -1.1031107283037904 -3.0265938838020325
P 8.602540011701631 4.269475312285402 3.306115326969214 -0.2170525288757552 0.9436437111519878 1.2987228279175826
P 1.4503145483214814 0.3979312970919736 10.142941557534106 -0.6137804315303881 0.5156290825689314 -0.20071856760242204
P 1.997883051695852 3.1190036256893765 11.709594948598081 -0.29432317773346084 -0.5493804679877635 0.3167018025389772
Ni 6.527231557825835 4.477540837576575 6.844252653015324 0.6224003119889152 -1.708152237299284 3.564968487597596
Ni 1.0629530286921152 5.428079761625553 2.591379620753944 -0.046224835295494586 2.257077877137816 0.8305599092504148
Ni 1.3291391975387676 8.485707762591963 12.07182369865382 -2.4813076404883008 -2.7814276274091965 -1.2128407832417822
Ni 4.911203760787259 0.34493607633163775 12.204776077839357 0.40922989177638547 -0.22486765404479986 0.33991089366558874
Ni 8.913704954894397 2.044259498070657 10.124859996443474 1.2240263675449563 -1.4138118331746425 2.386889019096399
Ni 6.5900517563234216 -0.03094483392917584 4.799072004654617 -0.6393767919422537 1.249778536808396 -2.350795101587319
Ni 4.341450731588371 0.18613333085975423 6.504004875206769 0.9482544704511219 0.16422047267638817 1.379499690156334
Ni 6.936120978836708 6.1325815068790686 5.451821425414921 0.4056182631657273 -0.08492019498316343 -0.5142856811671594
Ni 7.2532330634133 7.031265860628709 1.6734524186844657 2.011897222567277 0.2766036489665107 1.543422171976329
Ni 6.973576713135778 0.9052899956463115 10.979564583035295 0.6671169381699995 -3.229717975522154 0.8637399955468092
Ni 8.547374178139691 6.622714132188525 3.973088171200011 1.192793891893236 -0.007269537078219739 -0.7629311543578474
Ni 4.863176372955746 8.607661682357099 1.9597725690236107 -0.9257040959544316 0.15753766133957384 -0.42943130642492494
Ni 0.36219216669391363 1.9432049962915758 8.081078896181296 0.7078614670772132 0.3196418590039075 -1.8959080740934506
Ni 0.4532284555425151 4.392189040334594 9.096139614070175 -0.2915029346758463 0.25353339741060854 -0.6611854031769129
Ni 0.9166092630088676 4.388399379263513 13.469650503105917 -0.052540235990561124 -0.45634561431726567 -0.05662803290668957
Ni 8.486439429828456 4.096210882473705 6.035376700405857 1.3955659995905774 -0.8516087595009141 -0.8058742335782766
Ni 2.6706416953044765 4.080254908508587 7.540907736174882 0.7584561493056293 -0.4094222102928497 -0.6981308700530106
Ni 7.188874487649235 0.3755948096106454 8.20173082347944 -0.5587742504978377 -1.0237541434513335 1.734349464519942
Ni 5.945603006557669 1.990594520378452 9.053688843829644 -1.073627374132693 1.5882719813011679 0.7664671925355638
Ni 2.6132433386363054 1.7424373826669886 8.793756553785192 0.9802143111871701 -0.3562147730319349 0.7963732360663769
Ni 8.10161060447927 8.37267455490256 12.439996775988625 0.5501448569576138 -1.149331449834227 1.7434023187508298
Ni 6.776157884170536 5.202716872435687 2.978485056850537 -1.3365946632626917 -0.6326520716239104 0.7073127936625948
Ni 4.06258233064246 1.828661552383253 4.547198372595722 0.1127773264047477 1.3821921493868325 0.31448911115837447
Ni 1.9597613126045879 6.4137949951214415 8.491427899525489 1.5500491903745433 -0.09333258741657474 -0.9794090416770552
P 5.722697768854494 7.267078458811604 3.303960660761226 -0.1872542145674001 -1.6442153294360071 1.67928029145994
P 4.651771443354414 1.883818005596007 -0.012315460446092625 -1.0235104028716437 1.3898674065439032 0.40419284357311036
P 3.2816213591751415 8.610288180129137 0.2315192123605346 0.16864225589316761 -0.02844462849393811 1.3942256835125988
P 7.729848605545958 7.773373425768267 8.578196129494533 -0.02922110164864645 -1.141907389456014 0.1111657589432537
P 2.3956567589215028 6.921140561186919 10.465423892019592 -1.09267204946897 0.35764096395550016 -3.380586195261352
P 8.691128029412727 2.27303683436417 0.38300059529286806 1.196694512499223 0.34769773669985926 -0.2235857020085827
P 0.2868332554396107 7.418036418259368 0.9811648261058357 -1.6408818941874002 0.4512656286911971 0.6096293854764919
P 8.954612657693856 6.182175413024617 11.646894818570072 0.3123262991791008 -0.0059230503526543155 -0.313190446951609
Ni 2.2008831884266695 6.646005539216972 13.920609852180378 -1.2795688806969512 -0.583664328871298 0.9310712738036159
Ni 4.929589245191511 4.717255661020779 5.5987223838398075 -3.209590094424027 -0.05353833823777231 -2.7341388696255624
Ni 2.7888528557444636 6.210485306867491 4.76759061475201 0.6557120387671675 -0.8249641603301923 1.5746091391020947
Ni 2.7531793877907047 4.258434641293666 9.621222482411161 0.7757486178374898 0.46672515777937684 2.3001819074161416
Ni 6.498143095000537 2.546183222306718 5.162205958406789 0.159133545071784 -0.24514388779533264 0.3626474160311561
Ni 8.359232514519247 5.92534145231625 7.48207887625587 -1.1156705672466722 0.6815135732113037 1.008005108147193
Ni 2.015977745275342 9.226567741289802 6.451258233699859 -0.9763342594064732 -2.472274840862071 -0.08746095912714615
Ni 4.650645801452112 2.5856651120299285 7.3192378904594815 0.10869158637114829 0.7609732593005282 -0.8123978936294073
Ni 0.8894268871381332 0.16665034560075936 0.49769318675324575 -0.5923644277484572 -1.7079876866969614 0.12454655112553388
Ni 4.228595750533501 4.4875027684119395 12.95560642968683 -1.2115655160737844 0.4889505448364805 1.3561232202139226
Ni 9.391511801373657 6.878122279820645 9.471135957402764 -0.20509818472735644 -1.0274174512355339 2.277871673954716
Ni 7.778945353184659 3.07389352645466 8.706164729157631 -0.18314507749503295 4.100514877915745 -1.2188949598556622
Ni 5.70750160317343 7.996297424169815 9.402325467915098 -0.23998779751568994 3.0481181310270538 3.3263711426715292
Ni 3.040077367639697 7.098710571274917 2.338860620671064 -1.3677266087808058 1.4251216017605068 1.0552000206654408
Ni 8.820998963890716 9.011898450171797 10.577947746748205 1.294674368879822 -0.026764669688353906 -2.403381103214151
Ni 7.397474692844002 8.287444702199995 6.427410571964691 0.5762868054603043 -1.2731547496404914 0.9401956047023873
Ni 3.307332896293536 7.276402525902332 12.13464764929108 4.385529633764086 -0.22863226329355463 2.1164040814331164
Ni 9.047693862664971 0.6691875446735741 5.496455002910996 -0.8814906346620109 -0.8215170823218562 0.9581020526691627
Ni 4.109615401460275 3.1190505274353053 11.15099984475575 -0.11896211505922093 -1.2413998258263976 -0.4652565436536503
Ni 5.571608484518129 3.9170180719765555 1.2047979789058327 0.25730700552042785 -1.1888238515018943 0.036739007292246405
Ni 0.16652558695658765 2.683352068451293 4.493751019004629 1.154925913202869 0.6127576466928285 -0.7920172730905264
Ni 6.307478117449102 7.987048399872574 13.80212759964892 -1.1877167344806447 2.454628845645534 -2.218774867792559
Ni 7.53668845511109 1.6924588822048199 2.896452965185426 1.3250982325873177 1.745534534602484 0.973600148304762
Ni 8.691718991411435 8.880123304809082 2.752709432296494 0.00252276642185372 -0.7291178053528281 -0.18123731894935882
P 1.6547873998744764 0.9354337477550163 4.513246198717566 0.8715206679334926 -0.0014976675914490335 0.018822532023141776
P 2.4409169437431935 4.709122898276655 1.152625414769095 1.9773495664993945 -0.40411776736080085 -0.35158498756940737
P 1.4224924326362725 7.4757912281965995 3.8462733544867684 -2.167005191419436 0.36959170855947315 -0.05802645591611296
P 6.222435871730254 5.459063054986391 13.511483108335103 1.2903765128354163 -0.5671617032305845 -1.0600321519467615
P 7.757436212501521 1.8865289265107152 7.04770398454198 0.741810056108516 1.6378569913181469 -4.262161419217369
P 6.046047785639671 7.987508036982681 11.584179679983366 0.40695883635402175 -0.6738892238968265 -0.2610592734740085
P 6.5556164944621935 0.3395086062927093 1.8367736783591695 1.0799124358104564 -1.2379800015115712 -1.0710950946291424
P 4.793696126536211 3.2307798665878757 3.1630312326280463 1.343547440431441 0.6228849649348176 0.51451476645883
