# total energy = -340895.2219468912 ev
CRYSTAL
PRIMVEC
9.03921058336996 0.00000000000000 0.00000000000000

0.00000000000000 9.03921058336996 0.00000000000000

0.00000000000000 0.00000000000000 13.22979838617615

PRIMCOORD
 96 1
Ni 6.377334636961499 1.9466662595149875 11.360797730340973 0.26760581634327457 0.10280093191832618 0.08932423758813005
Ni 4.7555375969181295 0.3944286547693345 5.799890898363618 -1.0374246989598908 -0.4296789036593568 0.1143752670194869
Ni 2.6542827622388785 1.6660349354271788 4.852160427961478 0.2507373227227101 -0.9361659147177039 -0.4896550271026728
Ni 3.41711076169434 4.391148949858033 4.847636303188369 -0.6901707346656694 -0.06558395654839673 0.3063428279021563
Ni 5.0723980760321545 4.6509087372802895 2.8145732712830163 0.6092696881442281 0.0015681158180682671 -0.9037677008926563
Ni 7.253631843763294 6.166034056149909 2.5598465161757797 0.06882997428952017 -0.754380950794991 0.18322940967872317
Ni 5.279902188502675 4.372338353149062 11.633239529864472 -0.7058310669107457 -0.2620224087182262 -0.7164103850884888
Ni 5.751215654625924 7.714378473003898 12.473410628637879 -0.9658014781959495 0.7321589061719972 -0.46526142874965676
Ni 1.9708190295324657 6.489773374329541 0.29085828666182617 0.3812380345491499 0.1546135457142434 -0.2946229683620668
Ni 2.848137667102215 1.479221575415495 0.35349187900018975 -0.609159387818609 0.37221320534272023 0.6729458861469507
Ni 0.4641381409586269 -0.12075661871912174 4.7109724821201615 0.6672773750072637 -0.030488655507160393 0.6558904733265607
Ni 8.574251434625394 2.378207200160355 1.3685165585898744 0.07494251494516126 0.9508669683733044 0.9672708636526245
Ni 7.044039673705186 0.6162083921233128 4.7531883061518325 -1.0312787339631528 -0.04520385023014795 0.8273964239207685
Ni 0.7738160635397605 7.601198520388313 2.458533238889141 0.36284770496742025 -0.48860601701286815 0.2655419918357104
Ni 7.620072391569636 3.996515105014074 3.612078393350024 0.02804842149678395 -0.6140637670987618 0.45132322140200976
Ni 7.6351859512512315 3.94265045062255 12.628252301691546 0.5003423316131899 -1.3184413893924327 0.3865257653106504
Ni 8.051929704576757 8.824619482508668 6.9433419666424205 -0.8922352747730247 0.49784656177452963 -0.022103773877574836
Ni 6.891900724541947 0.6489701060646854 0.3377157452009739 -0.02343123443974674 -0.2745058858972175 0.13243341007277837
Ni 1.8881192941694764 6.437635209112171 9.1821546002921 -0.2819898529790886 0.0774529400718408 -0.046060027582856156
Ni 0.1906297146154936 5.181085541110806 1.3038428164787024 -0.12369114510377408 -1.3147199746767875 1.0840382850533716
Ni 6.271006405780513 1.9725364794962832 6.887843023022169 0.6505968290277893 0.1271024847781682 -0.14868920981000847
Ni 3.539411277538831 4.397819887085914 0.5452406478552656 0.5342996623952411 -0.4534001585356966 -1.1152820735590017
Ni 5.769330232139033 5.495903158688923 4.961002463536873 0.7354699728231011 0.5301786982483321 0.4533376807288773
Ni 5.245996110532778 2.833991302926559 9.341401984463475 0.057507607298165474 0.15963465307791863 -0.2915294170384076
P 0.15845193366181903 5.702783565646265 12.423084825092854 1.1420791391471878 0.13224623376263675 0.2968194617927533
P 4.160956419444449 6.125520315424483 12.467325432239763 -0.774451239182305 -0.19003177731253723 0.6650901375479578
P 2.3587728979382074 8.548616234112831 1.190384456184772 0.6944883882044167 -0.7854339634460538 1.1718306593780077
P 6.173708345725074 7.797385541518307 5.9347550126539526 0.8966735130500363 -0.49704772002231823 -0.4057694440316109
P 4.906474331106696 0.7494680465790273 12.513748104761754 -0.19911805588452158 0.5533759623004019 0.19493949902679975
P 3.942984901404978 6.0186678100440165 8.432805871289505 0.7160596866172894 0.27590945111296356 -1.2419808951408482
P 4.511469878638965 0.9501385160356192 3.692317655659586 0.12027980542937994 0.2371595840382754 0.14648166063572837
P 0.27667034211862496 5.710114365228666 3.553708596527096 0.09028120218476066 -0.43590997217073313 -0.4071858647631632
Ni 1.4574461177163538 1.0698538177240473 2.8134623523327362 0.18920748163902898 0.9035866952301018 -1.5677934017318418
Ni 1.9444245353516887 6.525134765163514 4.836761229233269 -0.6894024890410771 -0.20776493292624218 -0.5947540110265563
Ni 6.174982874382433 5.794866001337901 9.3087505488882 -1.387156178260327 -1.2438950814444254 -0.030303021858915553
Ni 8.565881125854366 2.3929139953768357 10.409852916743391 0.7392548937868301 0.36047946184555985 -0.7065088097040607
Ni 2.4448804155978245 5.318092852171778 6.889589398459061 -1.1319788174883922 -0.8428029882838259 1.0501958825826299
Ni 0.5404616173506845 8.961599675938631 9.07148754814989 0.39249509552020795 -0.07881228231321265 0.28800006372891046
Ni 1.418505199589372 0.9875066115641575 11.464466625841142 -0.22823219964165856 1.1000308038268862 -0.0018748484252096745
Ni 4.1191319932203205 6.8100054788988515 1.6435381487432343 -0.3153933681401987 0.3370088895274454 -0.5200698919491042
Ni 5.450869812795556 7.971236673908336 8.098369551598388 0.0742683716962721 -0.5415481164275383 0.14213881028600037
Ni 5.181230168476181 2.9796762559099776 4.659455310652866 1.1540838769175479 -1.1016076613957027 0.9348898762187577
Ni 0.6596228154455229 7.239377009063607 6.886704986440883 0.6299213029563087 -0.01015097239107284 0.01668208864137127
Ni 5.257060103983899 4.4953168097687435 7.2392793855919795 -0.5155547776875702 0.17695231842075976 0.12054437194467627
Ni 8.076615788004053 7.1643063672241025 9.227757416436626 1.1697210692341726 0.15301586220982036 -0.24712543700173564
Ni 4.639772430146482 0.4447065504995802 10.237984987101058 -0.09536247336240997 -0.8250685471185403 0.16780047671816262
Ni 7.9522091361513025 7.1219395883798216 4.661175472379784 -0.08288182439689597 -0.02392951423240395 0.6099289189947819
Ni 7.192969703199187 6.279702126123631 7.04080634816804 0.3519215449732197 -0.8042022451924924 -0.06423669849188292
Ni 2.5712124192521184 4.904006626684999 2.541020552809237 -1.5316722305292525 0.8331094151451459 1.0122489710252114
Ni 2.6846364305467723 4.882023267148133 11.391054679098271 1.0057623348596034 1.9291573230648842 -0.45547915255191235
Ni 0.9958046066524977 3.421539974758923 4.027825121775504 0.3551181975336465 -0.15742864656553532 -1.3130464436291063
Ni 3.825240147569772 2.6864623510346206 2.5608128077606858 -0.8175221022298501 -0.6138945885107492 -0.27602335098300845
Ni 0.9673220548841318 3.235458790784445 8.535534688914742 -0.22660983354688716 0.91050501961649 -1.1823289878061702
Ni 3.7022978477914337 2.5775489056975722 6.829102618575471 0.5376318120922676 0.393579072613006 0.7168130198435462
Ni 4.0047407864197275 6.903082227727434 6.166078348280555 1.0644572775976509 0.5156915603757505 -0.36440862169663696
Ni 0.7906199555541661 7.521743861535905 11.255383363324945 -0.6195235046617524 -0.6377441414348373 0.49147896768528904
P 0.11528518470281206 5.42273979023029 7.958464269703733 0.8007708509134402 0.9440216633166968 0.954349527605266
P 8.593197619489404 1.6252771360226845 8.065255308453917 -1.1619493957085536 0.21014166068853485 0.12975920567472493
P 1.9641752099355918 3.1414058072395874 10.535298173863737 -0.9186183927522438 -1.2091422513442722 -0.6819228928345804
P 3.942641411412214 6.243961088455553 3.776048764921899 -0.2940069320446227 0.12083619215348222 0.8340594377632411
P 7.003245717459348 3.937525218362105 10.390842553486 -0.5125797542196463 0.5899136522151196 -0.3831655905891659
P 6.303628915882713 7.733008285506152 10.297572365556228 -0.11411301449703573 0.7809491882018228 -0.3523516905321029
P 2.353738057781121 8.59445406972609 5.888728257544671 -0.31224685209141706 -0.4229793801519941 -0.9559045307972118
P 6.681169613981518 3.776600156752388 1.5996012590636102 0.856947398105008 0.58734743414984 -0.3259516032720193
Ni 5.352703988547872 2.662671149430578 0.2817205489332825 -0.47744768640320356 0.37289609034235777 0.635916344197479
Ni 1.392806724604458 1.2102598718713105 6.988733265265089 0.6136166522590143 -0.17912335793014958 0.11133210931778889
Ni 6.75596004030061 0.8857585482603632 8.973983394098791 0.6516149858796585 -0.6597766957548443 0.9780648689443349
Ni 2.5780279838453737 1.503347227801965 9.126113304051694 0.9075320530310952 -0.4306240411814455 0.40778313202752997
Ni 6.209051658138374 1.8863476089436435 2.704514557996412 1.513358262711413 -0.0527783201432962 -0.6248482593087755
Ni 4.0365588068020335 7.014734553796255 10.391146270953284 0.8817593149423654 -0.4088503969497797 -0.03667447260289813
Ni 8.179174668474976 7.325267585675163 0.5065971197483342 0.09078770950753395 -0.18248970329922118 -0.8375756784466157
Ni 7.563495974077346 3.9535336598669524 8.134843669224708 0.22566572446606298 -0.8429073750721742 0.4011944230664187
Ni 3.1176236448458807 8.381436038950683 12.28544205754527 0.9667952095677866 -0.32524634967487853 0.7534977768590895
Ni 0.3225090816529188 5.005878527170395 10.279037464762501 -0.7135613456754678 -0.6837889995090417 0.33555621624131887
Ni 8.653841681632839 2.386053234731901 5.822381357600327 -0.06929817217519034 -0.10452357103638774 0.06857980595192704
Ni 3.7487051536558544 2.352454489913425 11.571879562262433 -0.0529122746179992 1.0413759702981547 -1.0523779778356135
Ni 1.14628938032427 3.6594519907993504 12.56705142419142 -0.7168256182490365 -1.1808320915456696 1.1591175826867133
Ni 2.9577109747937835 8.277548394560387 7.934412738842017 0.09572268491530611 0.2787152959928748 0.6920939198303113
Ni 5.639400622771058 7.80976022046813 3.709728078687529 -0.9996022287954784 0.4544525110596109 -0.1042417781299108
Ni 2.9944282471781376 8.25760789655943 3.641515485729859 0.8056703450975867 1.1037966986272216 -0.5669375030349204
Ni 3.251575702813324 4.049719897051078 8.924636537033141 0.043026897183487185 -0.06851449993163039 0.28577451683250144
Ni 7.308291948664375 6.092011962709368 11.642659290955494 -0.2405722092642502 0.2261938290553911 -1.7157061383871417
Ni 0.4728492279593169 0.26634485215194637 0.4955105282713744 0.02634815097622559 -0.5485690278300618 0.10322413549867383
Ni 4.671174646853338 0.2945200707688922 1.5069267550949748 -0.3461949269020877 -0.7785812021902786 0.41749187467486165
Ni 6.023431473891026 5.5241687694092265 0.36706244547745015 -0.3215748143605623 0.2918104386139362 1.4070009809003963
Ni 7.884939332831665 9.044362685773972 11.152851600485029 0.2638478919627391 -0.8555086087759525 -0.014294562245801189
Ni 0.1167359779617212 4.984094030260919 5.678506958447187 -0.6025385400679817 -0.31583816898710126 0.6345415753371394
Ni 7.687423547782296 8.759157521256206 2.5299872926732587 0.48212478016389876 0.277046135820568 0.17143498814695635
P 8.514267234836478 1.5630150552291258 3.5959117656642983 0.1798445523668903 1.071188168563581 -0.37783080863981383
P 1.8760429091607373 3.050353841526243 1.5956457006206282 -0.7167973361142623 0.2826598824629196 -0.39856289898084263
P 4.623800145482977 0.9830502808685675 8.037565495432007 -0.16365482998090525 0.8312525644420652 0.6045062053173138
P 8.4897619356159 1.677876300967185 12.471439176863623 -0.08966979385300687 0.7138989315205447 -0.23545777085582031
P 6.189517924602533 7.598938717804342 1.3914173979758326 0.18090153287649488 0.5233192521243375 0.4399604880910229
P 1.8049495198690213 3.3150219201608833 6.157332912280589 -0.6048139663657196 0.20165907713882042 -0.6099916539119172
P 7.0042852266479745 3.78967989410841 5.980066766225663 -1.1366453697261263 1.4477791912590228 -1.3737938980208082
P 2.436582420509484 8.50611386711351 10.2558717765137 -0.5575576044819172 0.365110532859668 -1.621237637593911
