# total energy = -340892.03519193025 ev
CRYSTAL
PRIMVEC
9.09813244949464 0.00000000000000 0.00000000000000

0.00000000000000 9.09813244949464 0.00000000000000

0.00000000000000 0.00000000000000 13.31603649316007

PRIMCOORD
 96 1
Ni 6.4377658642815065 2.0181113875672234 11.508544579336334 -0.5616723979812391 0.015290607610483344 0.018567221479226088
Ni 4.655951177393657 0.37180519789131944 6.016185692581979 0.12256243081596957 -0.232497916896548 -0.4350720496504701
Ni 2.600510151643488 1.5591196944910752 4.784918117244272 0.4457444417626517 -1.2974426756535784 -0.5326271597888246
Ni 3.231747691680282 4.239347684243013 4.768899035121749 0.2765247160994593 0.30739209510227705 -0.06734439088292918
Ni 5.149906994168821 4.765519988662781 2.5477973908088907 0.20185988029571686 -0.40692721178513785 0.5915370467511554
Ni 7.580027317908285 6.137118071506599 2.572085765679276 -0.24139959026155203 0.7326314749330414 0.210947701529598
Ni 5.155420462542904 4.28449261835556 11.908997977254575 0.7953023715997013 1.4274366230469286 -0.9300703433429273
Ni 5.717994395617307 7.981555205290188 12.528552605180542 -0.1587964734473394 -0.2994191041991295 -0.17121567304729868
Ni 1.9410684004521404 6.6143242261090105 0.46783507799299506 1.4605197787541426 -0.21395846333146376 -0.6001862377857212
Ni 2.798030611051666 1.5757601790722617 0.2358672688192139 1.379784054165972 0.14136259424160819 0.5648487388266917
Ni 0.4616938384674068 0.07655987627240338 4.428074798463812 1.3911940957751265 -0.2729097450546913 1.0173646949852222
Ni 8.49636394205446 2.3902068158894556 1.7379953506995673 0.07645689470715865 0.592203990911193 -1.8775313713584763
Ni 7.147483896389003 0.6540119856374643 4.864681446015875 -1.3511165110279504 -0.7109244222732531 0.49571974523951406
Ni 1.1283413107021112 7.398401296205591 2.82594277214878 -0.9739847853376903 0.7118415347708837 -0.6671981850298961
Ni 7.706418576411205 3.999348043583026 3.7699167937866283 0.5132883502508967 0.022073434860271662 -0.09563655295940303
Ni 7.791813649281089 3.8113715253042435 12.651952397674554 0.002895833490556303 0.2310467862723182 0.07996413652946874
Ni 7.821209715810237 8.707977408907285 7.102893948366917 -0.22392611606713692 0.9547048540621559 0.0018157130525000987
Ni 6.771831098208245 0.8413161519148528 0.4124083441947195 1.2760048174947767 -0.5653878991596133 0.07253210573145573
Ni 2.0340331196706 6.315368686003375 9.453307351757088 -0.4013291488720701 0.9659223200445299 -0.2595664909785659
Ni 0.13468147695583332 4.840907115639113 1.4021250472589382 0.18664820555228498 -0.5365010409219341 -0.3006555477093919
Ni 6.249288948708047 2.1284262457120486 7.021213643050068 0.5401676911402439 -1.5237624887638725 0.5187740559558162
Ni 3.4192420089296474 4.206039420682749 0.3474886188097792 0.5127386483950137 0.5199037986848852 0.7336773996990527
Ni 6.153139883068912 5.84696952378729 4.628814177196661 -0.7176475999296996 -0.3333388968750259 0.19504182893261893
Ni 5.3662605881221355 3.056199222574764 8.989762953112637 1.1608150249937943 -1.1598719443542347 1.7170197149922428
P 0.37743057329675817 5.584106275826853 12.31937106917985 -0.17392407311739724 -0.8728275596703742 0.2783244883123594
P 4.10055567096472 6.326841431250438 12.718120386856398 -0.300161895902425 -0.42471847433028787 -0.12923984283614515
P 2.7097332338726527 8.44571463770046 1.3978107127655546 -0.8751793477320026 1.1102046590360946 0.37130637725773474
P 6.224642107412019 7.7428838919942535 5.7243512608862375 0.07099432893069063 0.9381901442365843 0.4334514833279116
P 4.831972749395961 0.9289193415741582 12.58089871127013 -0.2039260187961262 1.4996895069750689 0.3679474880878308
P 4.02394029608327 6.3013484636197745 8.238112537524424 -0.07877988641338045 -0.8794563778408014 0.1873012657552516
P 4.447722215879379 1.0206467147548701 3.6817640769164406 0.7838036269314823 1.2332985368755018 0.611738718510011
P 0.30155942566448374 5.683840005722406 3.878242800138426 -0.40564345997670787 -0.5854458462517531 -1.1473329313469596
Ni 1.6196495708817988 1.2508567647044384 2.510978157866516 0.17913389945311084 -0.2546243164819421 -0.09262759092975015
Ni 1.8844689173577933 6.277911673963604 5.2065974585894725 -0.5408001825179203 0.8312962731958069 -0.9017462995872535
Ni 5.966837421194142 5.4532296379370955 9.081311093080528 -0.12604807537172483 1.4027578893533261 0.9074184102713663
Ni 8.491951347728667 2.2671909645924506 10.2842015927437 0.8148041890780547 0.5301085071320291 0.04977090077554009
Ni 2.4376899700880403 5.209581646092277 7.238277801161825 -0.8562087201667706 -1.1378152216645112 -0.4199763316596121
Ni 0.5930799717844726 0.2958494376255813 9.212473412334884 -3.009315299227243 -1.0721291923206115 -0.20465106988760887
Ni 1.5898258921190165 1.2363907338219415 11.442297436400603 -0.9373668770043405 -0.39187417410675734 0.1418135657360977
Ni 4.218039857622379 6.829331296433011 1.7387413975752686 -0.03209302387980279 0.6368110880976064 -0.57431065557054
Ni 5.694148189992764 7.8793740777170305 8.00990225712704 -0.8719448999551048 0.3203903071341579 0.27474397004995266
Ni 5.062146406815008 2.8040717711183185 5.171349473152386 -0.3647228105029461 -0.46495880990757343 -1.1413224634868215
Ni 0.7289942457117388 7.570374199187323 7.390333982002127 0.5784357334825071 -1.0125168799746174 0.11512680047353076
Ni 5.222628368284416 4.38599138598143 7.077833142036202 -1.8289853441289727 0.9632630280448119 -0.5106408853257205
Ni 8.320906454275246 7.1975145277241275 9.293675155875368 -0.4124342576462961 -0.38428839133969944 0.1735044690814754
Ni 4.372435168361983 0.36400263934740174 10.440518429094865 1.1909133870410715 0.050501094073345285 -1.5242008618528717
Ni 8.237340106064094 7.31139585386011 4.971462589447015 0.38285191600348906 -0.4248663127620619 -0.10080292765169091
Ni 7.076482069340573 6.146552835044428 7.036966149886517 0.8169554310931028 -0.1364600147336682 -0.37273333951224835
Ni 2.325937606987596 5.3359638064625665 2.540114017802433 0.5624293307519217 -0.5433661434728835 0.8236366997680202
Ni 2.557748928280133 5.118982441357747 11.720722130412248 -0.7121770637334315 0.2944651026279639 -1.668936486331771
Ni 1.0556381328517772 3.4040299311714497 3.7028435404080486 -0.43841551220140623 0.261186285970176 0.4096798348296105
Ni 3.7354203141048203 2.8359971185187467 2.425009902640911 -0.20607546103896118 -0.6578211146903703 0.8066586771527848
Ni 0.9615270489218741 3.0020016464948687 8.267407614781375 -0.265457145431388 1.6676758744517923 -0.26360415138304927
Ni 3.334711258659662 2.4987748325692247 6.9864587764015535 0.8544603700170962 1.020686046048971 0.3311922828456683
Ni 4.011939859143639 6.895611192646212 6.068025032684048 0.8184667255313065 0.5832745496320471 -0.06102436220217232
Ni 0.9179742880196655 7.571465975102983 11.548426243722133 0.38024096074320324 -0.16936319321959217 -0.370527075889549
P 0.22610133325363405 5.439909971766042 8.008930576562102 0.5535081170028918 0.9796167868124871 0.43453263220723226
P 8.27193120632526 1.6672873933351025 7.996572583010092 -0.2873943118241115 -0.7526765665093746 0.7081224340480837
P 1.7766651438189862 3.138437243421863 10.35325823903573 0.12301880162709783 0.8309185781414141 0.054316096944061296
P 3.995199295103517 6.2064822346815385 3.93649996299805 0.1804546751470634 -1.3329015306818206 -0.3170537865617572
P 6.883610755706581 4.009492461466034 10.408533034019078 0.4825834649678721 -0.3822376794582578 0.6918041565040344
P 6.268995503985712 7.802995254283974 10.166634613079104 1.4218200481910996 0.23763009591679074 0.729981181794388
P 2.036626087470293 8.380553811800812 5.880974704307051 0.9457718132385841 0.5251439640379021 -0.5107650696084107
P 7.043546829218158 4.168209385205126 1.570519654677093 -0.12486768191037852 -0.4692880334105466 -0.2446301813837077
Ni 5.424661501477321 2.9493325566968984 0.5756279337726455 0.4149002026882854 -0.5816722381419337 0.04517479676442543
Ni 1.1376396022504833 1.0235308227987387 6.919624803911156 0.1470637583914435 -0.44027416267669983 -0.8897302489629837
Ni 6.742243970893855 0.7825476740013942 9.330480741618798 -0.6656177279166536 -0.5246657388499029 -0.3506228807664542
Ni 2.513559298093789 1.4337565249754012 9.06186929346241 1.592693250297315 1.297379426515811 0.637787850188579
Ni 6.1913702363822765 2.3491560414606347 3.0839012168081132 0.017648566319698637 -0.9818888706761154 -1.1766576484530058
Ni 4.342747961588658 6.804884614054855 10.408785962106203 -0.31454413276602605 0.20166216246261398 0.6547640730316013
Ni 8.764431321879544 7.028462125316788 0.3905136880194187 -2.064512791880464 1.0471280422905838 0.39077605594657217
Ni 7.707610431785801 3.958788568316252 8.125059141457818 -0.014446000222000927 -0.40849764159605134 0.32929043783726514
Ni 3.208784004920897 8.547295288520004 12.186090704649114 -0.8343599997227953 -1.2745652568347727 1.4567389715554717
Ni 0.08586453651361682 4.790849189906096 10.241656904936951 -0.08635229944399966 -0.22994198324391366 0.10977427791236577
Ni 8.385011896789758 2.4997028420975362 6.032497734575204 1.4809132548088302 -0.6346937846442876 -1.4556853334799769
Ni 3.7156500718987417 2.676925367607066 11.3009079062563 -0.38047698801340923 -0.7935769042681623 0.1261401208648989
Ni 1.224699633391748 3.2972451484872587 12.839735125728307 -1.1112112459237378 0.46617699858539063 -0.8332631671141907
Ni 3.2314292570382146 8.498338236835279 7.923881232732178 -0.6951787294032221 -0.6923826547153237 0.2656692614421941
Ni 5.72187929825053 8.155320440400127 3.393591643604476 0.6491744947589658 -0.06642702127498237 0.7060786641451775
Ni 3.2851628283539536 8.225976538408599 3.6575020866306835 -1.052035249784214 0.7564594305905746 0.7791049359042325
Ni 3.561573195801206 4.240484950821826 9.278161929927101 -1.7180995783199828 0.9764157633766862 0.5625877107066569
Ni 7.22459966856513 6.147435353909587 11.488636955327534 0.3308287288586625 -0.33334995261861944 -0.5297616653155715
Ni 0.8942927585957343 0.12991314564418768 0.42062668739985115 -1.094464108372386 -0.5029365747029274 -0.42415977361334045
Ni 4.696265003079407 0.4170847843667971 1.5839821615304455 -0.20899597711986584 -0.20880314438276945 -0.4728081307486631
Ni 5.996215291458029 5.7749669021495045 0.3463085910076032 0.8849947911605274 0.209722056652613 0.6928729640881809
Ni 8.008722229324864 8.77165523918816 11.377900853641917 -0.5049998849898593 0.8281122190408705 0.0288716887290277
Ni -0.28185469001334457 4.790348792611418 5.843529519839697 2.0161295154810697 1.2786574246262754 0.4262104854947821
Ni 8.27412385628921 8.984715309129236 2.413691825648568 -0.38476764496896315 -0.27021162939723786 -0.3985438728174491
P 8.486883687853478 1.762863276618516 3.6963984232526017 0.15476318391823024 0.42778091530569556 0.4547245337740749
P 1.8088179445351769 3.38478738065794 1.5925844459325844 0.027279918761875598 -1.0957941400377191 0.0686512826198108
P 4.526630320183714 1.2119531495764158 8.258991842098162 1.4669701623651767 -1.1926221422020622 -0.2399823981990512
P 8.61927971389253 1.604528474449906 12.561470558850958 -0.23700968872397243 -0.16555590365836 0.0013387734160815654
P 6.6736167564619855 7.735669072818266 1.4399960243333987 -0.43628175368785505 0.8892561375400427 -1.270258916149935
P 1.6510745209875495 3.1204502352113623 5.873211267733444 -1.4382033746451295 0.8313533516859876 0.8091847860087483
P 6.839575793774955 4.010193017678583 5.809880076305789 -0.9746345031065473 0.18750412579467707 -0.07573518604978569
P 2.2681644647839145 8.59606127941949 10.084541252540829 1.231473567851621 -1.6360898721153954 0.9445155722339797
