# total energy = -340874.78484697116 ev
CRYSTAL
PRIMVEC
9.19791188474538 0.00000000000000 0.00000000000000
0.00000000000000 9.19791188474538 0.00000000000000
0.00000000000000 0.00000000000000 13.46207378250421
PRIMCOORD
 96 1
Ni 1.6107290883139218 0.17596616735729687 2.251868599320798 -0.5112124415584745 0.4592681872806994 1.5100045157478317
Ni 8.7048391897891 6.51851398901681 11.485665890602604 0.7193090467925225 -0.38272387506605704 -0.3438084289477821
Ni 7.477414673208148 1.7909253752340049 13.24147087982533 -0.6777543632791876 -0.7916884289961978 -0.4726824038040762
Ni 0.6516619219219172 3.8883067704569503 5.126020990788476 -0.036058693395770156 -0.4564404880239172 -1.2771103918541296
Ni 5.996596888883776 6.899647853602972 11.997332838005113 0.3728814350543384 0.13806952531263317 0.18657981420819478
Ni 5.343489975043368 6.408589747018857 7.963328387812559 -0.39995000913635637 0.09961045000548652 -0.36767777936621193
Ni 5.416558185103761 2.6665849590921926 7.127320081239032 0.21330694579039391 -1.3386955116557782 0.7968586603432276
Ni 0.4265402751833581 8.318296953159193 4.525882090703705 0.8689331097119745 1.072305569997476 -1.5674732993882619
Ni 4.511437690265785 4.64457746124063 6.579790476355976 -0.25108082210505794 0.6062213882362075 -0.6577581226629188
Ni 6.81029933994151 6.047774069243295 6.133818693044019 -0.42021724402582467 -2.2853114180622125 -1.1062204775773659
Ni 5.461545170930218 9.23497922292742 3.7756673049431573 1.387807952911713 1.0484531888599107 0.16688850642685452
Ni 8.1242854029573 6.8829076544199514 8.080286272840873 -0.5155722611890668 -0.957106264414797 -0.054368547448551525
Ni 0.714828580102902 -0.03683119757613643 13.466246685086261 0.7003628447073229 -0.36856301018464266 0.2676739505770486
Ni 2.763898864233047 0.3894772902339183 11.148495284277477 -0.528932998766689 -1.0778488684132081 0.6405057633403743
Ni 0.941378662519001 4.665484314396128 2.39482254201448 -0.5863002238322482 1.5886730733943284 -0.14610627957418065
Ni 2.4815413727383446 2.3470219150176455 6.890992618750652 -0.33657154487971064 -0.5811976124983603 -2.1732781689123413
Ni 4.830540838758381 1.0868988225599707 10.119427411356694 0.3949700394232617 -0.2976195890965455 0.008847165977984763
Ni 7.8173786852980465 6.178899497569195 0.23488614973454502 -0.6696011380444339 -0.25007423521741445 1.0331088451933563
Ni 2.758361721426356 7.75884317562731 1.0831460746112498 -0.024642995359660785 -0.36819508532226264 -0.41944282775364533
Ni 4.9573708423488565 2.190703406712464 0.6064606247542705 0.1389951224506961 0.33742463690862534 -0.3537357153638231
Ni 3.8985164523762648 1.6002710627803536 2.6419317965261215 -1.1456468018937882 1.0566771194315996 1.1803045011769737
Ni 4.82451620663482 9.029948574581978 1.562906386329154 0.27734926888328365 0.109234860469128 -1.2711253779152882
Ni 8.45782927272316 9.389320180230213 6.387471341895661 0.3631680644213165 -2.630126691007954 0.20820819111124783
Ni 8.955620250627039 1.4848188758873473 4.140233891085112 0.5154683886213509 -0.30446669392536596 -0.2799656234602082
P 5.20669863314783 4.5219601011808255 8.896235773712021 -0.5617986391464582 -1.272728717846666 0.043388137177647855
P 7.045655502960809 1.1255208535322248 4.974370422640098 -1.5035572174605911 -0.2459941516107699 0.2699226374019093
P 8.544905902209782 0.04056922886623505 2.385977830182396 0.31038537340264616 -1.140963537485506 0.2258045640367724
P -0.3652168784948334 4.787163487468752 9.09484260056877 -0.08054803405739676 0.9248636023310072 0.5546028927289675
P 2.2888819155473867 7.345608599420961 8.021403082110181 0.6148888341032185 0.06994763283373115 -0.5521040375665137
P 7.999727283541661 5.461839504102667 2.5706902917172396 -0.6994331338042019 -0.0798191263111722 -2.882984659618093
P 5.669417973972118 2.2776052758779457 11.871636936919726 1.3498535851551268 0.9732455931788206 -0.6466229319817057
P 1.843629408925602 1.2104727654302334 4.53768761029239 1.6837198152885324 -0.5942025093984605 0.6365591199878005
Ni 5.63648025239278 0.2531274480970538 12.784607849341606 -1.2534009640523318 -1.0921364886804739 -0.6925690596945169
Ni 1.9436291042650509 3.1384286282623903 0.6382918375634345 0.9790524296685849 0.2647876301681891 -0.5168297877452519
Ni 3.6759913760934015 6.6668303141960426 12.570736168328736 -0.732966232564641 0.20850052554068604 0.10413019225271097
Ni 1.645699548365484 2.70093915906394 2.975427837151459 0.3975640254026831 -0.9161074534049319 0.721285710902919
Ni 3.1981874601811175 5.3385966860514085 1.7005825673243653 -0.21776523867206365 -0.5472688209613995 -0.627418591139113
Ni 6.324907146927033 5.189949236053171 3.872069697040584 -1.2709500286796884 0.19722161019275714 -0.42827379578171404
Ni 0.5505741136355718 3.7148249590333533 7.529256862579169 0.7477372202262283 0.08414603582130024 1.0887112650490087
Ni 0.08248411220525903 1.8470786257902352 1.4914091795767068 -1.0638692663046645 1.2728220488914208 -1.240710770179173
Ni 3.415911226588411 5.692651898772288 4.233243173578904 1.3388610906993652 -0.5855389201861916 -0.1644079060968459
Ni 6.8915628892722705 1.4642615433741328 2.1239789963095057 -0.6698690469938399 -1.1952307834695028 0.7199662207605471
Ni 1.9056601250191674 6.686900157392389 5.671369770821919 -0.6981676368282169 -0.3037362435172446 1.2321824209931875
Ni 7.263756383745303 7.656470419084993 3.3979219510048115 0.5273466281161756 -0.40239949911811346 -0.4251954139667064
Ni 1.9272660194592304 7.498615859536095 10.199378418696567 0.6668446583452193 -0.7528082069912325 0.7833822231233477
Ni 3.3332955842467142 3.21876318851761 8.754938374904526 1.1218941795588806 0.37714509542669883 1.475458402341846
Ni 6.7093246659683246 5.714975230320196 9.952592010883455 0.9691693662269182 0.8552622970931013 0.2515179096424765
Ni 3.9503374865505156 8.091485650052546 6.6588796393752725 0.9196262651914677 -1.21472771585185 0.7093761039495267
Ni 3.2785772079061712 3.2322381290687776 4.664594876340634 -0.4512208914961907 -0.3728868343709772 -0.10376021050780194
Ni 5.476059475496594 2.742191792764955 4.279794724175159 1.7927603003586674 -0.25149271283149593 -0.18480318192374623
Ni 8.526160558289455 2.3733831297750836 6.518605048342036 -3.3324854830993833 0.3830989990172886 -2.287401467822022
Ni 0.3442014899819956 6.940146258549586 1.6445672854427205 -0.2825534387920424 1.293184671708173 0.17439329944433193
Ni 0.7725519141759133 2.0869601613359334 12.23313417994774 -0.26844013931911187 0.00333214969702652 -0.10035144193656911
Ni 3.146964290263403 8.620751881585159 3.9225524350713576 -1.0001575870783164 -0.5077573931303384 0.47747622564829373
Ni 6.379699106560688 3.7306361691408325 1.7632626559796458 0.3864452897817022 1.186089483289867 -1.022057729585517
Ni 6.824399738484131 4.472870846763365 12.44217327818547 1.4758299267486517 -1.220620684297517 -0.13737147080434406
P 2.0128525872603316 2.1730434163655414 10.304813160023512 0.7404918515177247 1.4438659722475455 -0.15508148648959744
P 4.469789546364292 3.8248595759709754 2.6199487877088585 -0.8764533293484196 -0.07656051016455848 0.43058881706813584
P 7.8838243989783425 7.958437858194091 10.130129181548696 1.8526531200595575 0.2474069727978965 0.9057086266691112
P 4.359267440109802 8.148227566953674 11.186417354174 0.9593377248484768 0.14475490775260877 -1.592787352673018
P 2.9624357869613407 0.9035890425500787 0.6367530269462262 0.27633522579647246 0.5507966316089998 -0.2824523944378039
P 6.442953144902243 7.811335657351209 0.733716491653634 -0.3328033360865301 -0.6560807349604958 -0.3952286924012871
P 3.3933855409844456 4.58964753293239 12.860304822548432 -1.190378597583524 -1.4001147953035242 1.255784890903476
P 8.60221808963253 3.504726261374809 -0.0798590282234821 1.8305822563024472 1.5375189191180167 0.028730792275789233
Ni 9.05193158339924 6.020814990229321 4.2246946345015965 1.320753582465377 -0.894379574809537 0.1170273599303533
Ni 2.00092289586452 5.155650223551258 8.26765141209241 1.2472442004223163 2.5699191682801223 1.1256546750425773
Ni 2.850368431551494 0.7130257894216535 8.509363332054273 -0.18909049644519046 -0.7140375139809381 1.3936898656137868
Ni 6.430425589249896 8.1393239884871 6.596779019153249 -0.9588893244571485 2.3489904442784124 -0.39363846509603173
Ni 0.5323199381967686 8.495715470764292 8.657324617844239 -0.43306067564739614 1.0464459286218943 -0.17413104692188075
Ni 7.821591328828719 8.540012613217822 12.451717951093281 -0.06626684154803425 -1.328419840761383 2.223832227710809
Ni 3.4959514536711818 2.4120971398637274 12.091445869895587 -0.684597611453266 0.4668501133930153 0.40319114178147336
Ni 4.8698987026617555 6.977517373538933 2.5413029640305638 0.4196937674221869 -0.4784414177750405 -0.17469643250704753
Ni 6.220014162595624 8.197767519041447 9.033131971800243 -1.756193042757595 0.6100523319465235 0.3656553496195445
Ni 1.9545010358223749 9.092862290192889 6.428355139339952 -1.677661782019911 0.6852861528798584 -0.8657397995856575
Ni 3.9068037707630237 6.126121880584486 10.054243651153271 1.5222481090018751 1.9307380372884426 -1.0571471170894824
Ni 7.227728163855253 4.134350906800793 7.812822039872075 -0.4522668162622017 0.5707131680272687 -0.8202618697585162
Ni 4.889720202243849 4.40152264617947 11.311251410938809 0.022435703295696847 -0.6948090047686292 -0.7510588284002937
Ni 7.396279894640334 1.1299818406771505 8.485212375463693 -0.947715053007884 0.0734661875099509 -0.8924646171750114
Ni 0.9771033513249632 5.241613905729559 13.034558338758542 0.5418805600662925 0.0011492831130947949 0.7397146070320679
Ni 4.4687869739956385 1.0331830185880813 5.628008055982077 -0.8877422719986775 0.018666723171567853 0.7877294443484498
Ni 2.5283495450693287 4.576025425794998 10.757004571185776 -1.937993176188959 -1.6434612248788016 0.7572114782652508
Ni 0.40065275287533025 0.005460800140087456 11.097769721379434 -0.03382980406525141 -0.5585616202663993 -0.9107965827149799
Ni 9.165203865233797 2.0538108877888974 9.685773471311716 -0.026961359080192277 0.2845198184897939 0.5753177566788156
Ni 8.158437248872989 3.3313548248908806 3.0724621257784874 0.7099774849789515 0.7731615738366039 1.2300694884152428
Ni 7.275962012490285 0.8074487909343634 10.893563205916847 -0.7187986828150073 1.4238681889693798 -0.9760506667277836
Ni 9.141427263646927 4.095738073740178 11.06393980237111 0.1847659009279076 0.28776326512775596 0.6122850779317842
Ni 5.2434074984991685 5.424164858029232 0.5095302725287634 0.005812492916719022 0.3469323192887444 -0.04856659605479378
Ni 7.007962461064097 3.357651654266845 10.067840923929237 -0.871127289149816 -1.280620204779601 0.4905744535931486
P 1.608245652171386 7.401320350218518 12.456241484037353 -1.5096185931633226 0.10677740006757093 -0.024103320806106877
P 4.99543180071113 0.5103185335562275 7.955991213698111 0.6596720518561799 0.7858669372184143 -1.222049960544876
P 4.83223325449996 7.46630359594821 4.690684752704721 1.2840503135070724 -1.5928598577821664 1.3228665150433216
P 0.6502546414411469 1.2765045730867735 7.806400977756875 0.4865159672530588 0.43877289554082494 -0.7139562671210414
P 6.836531783936001 3.9008067323743814 5.531363758808543 0.8218299855765847 -0.3038714835435283 1.4327523788328873
P 2.370035089938479 4.452764211920462 6.229453059519589 -0.03126230044839132 0.9596393152492958 -0.024137002257519722
P 1.9904740682425905 6.6978916618010205 2.9859419699460257 -0.37151900748917305 0.6821036413868188 0.4670915399798601
P 8.63561570679382 7.080874306626626 5.930676375958068 0.024142401574158423 1.4630834257162608 1.8453506728608735
