# total energy = -340889.9333185168 ev
CRYSTAL
PRIMVEC
9.08237944589475 0.00000000000000 0.00000000000000

0.00000000000000 9.08237944589475 0.00000000000000

0.00000000000000 0.00000000000000 13.29298038004966

PRIMCOORD
 96 1
Ni 6.2844889558618355 1.9215227127608274 11.408075423011313 1.548176913052495 -0.032142903281131736 1.3243508128983321
Ni 4.806440671972783 0.43005339660455366 5.9621543972458335 -0.9688880875410735 -0.9171623770320075 -0.0013454582843009087
Ni 2.928958417670201 1.7593023315435186 4.732128642460435 -1.4268974627140072 -0.625447326345355 0.26945315396465847
Ni 3.526424591883191 4.535140912309704 4.819077894884476 0.041975058880205134 -1.0851651995689635 0.677561273431775
Ni 5.1244511096830365 5.004663605742882 2.4438612597775053 -0.1795365342081682 -0.44668392285778563 -0.4947936338808188
Ni 7.338026819388255 6.254535268092131 2.836429859486024 -0.2510718232439934 -0.7174388263530032 -1.024760216118345
Ni 4.809846564305602 4.631341476547638 11.569798089829053 0.9539479212914731 0.45079563103331394 -1.52635673185361
Ni 5.6030289355317375 7.907700912165438 12.629208619975207 -0.4468842117940497 -1.5160846605036407 -0.45228121443990493
Ni 1.8441408389591663 6.675467230910416 0.507311750044278 0.6413159179464956 -1.7711630338038655 -1.7329189027210026
Ni 2.7673828854012394 1.396443103594696 0.3453093459362696 -0.4906626424315807 1.4187105560278406 2.087306392736212
Ni 0.5984924831026132 0.07764889576055424 4.622301784177357 -0.07504227374781915 0.46669430454144145 0.4349869461358315
Ni 8.633955228456779 1.9154920127368482 1.1891859268820473 0.08614532563951616 0.5639246843505256 0.36514344298013246
Ni 6.91943811049495 0.7847975184217112 4.765001407018855 0.8004654038578795 -0.39951806380526034 0.2681766012450801
Ni 0.560572640225933 7.543061537823995 2.3350579856701836 0.19636568995036502 -0.7457374161873802 1.7709601737644403
Ni 7.754808134750277 4.026618481070853 4.067425612407809 0.06900532352511987 -0.21549418324969985 -2.553431969258377
Ni 7.783363136068637 3.6621153424227235 12.732907596773078 0.047873426642511104 0.07900922881536715 -0.215174595126752
Ni 8.012420748425198 8.774750276305765 7.0412518933136425 0.3286111523820534 0.023190579183850382 0.051117644611421646
Ni 6.815617429811055 0.4978361034553961 0.25311138636786557 1.1812046443937398 1.2600914886986299 0.6623321151868464
Ni 2.0108842451944593 6.666257698042473 9.077643093248076 -0.6740776857585488 -0.20387048296784244 0.42408109785660514
Ni 0.11925255178441214 5.048885711792212 1.462998780967768 -0.2127644430233626 -1.3497250299970627 0.1352809068239025
Ni 6.518641783148294 1.887491036571294 6.877761795434658 0.6532820891694362 0.2815903035478247 0.5830169250952862
Ni 3.45629045696577 4.174679432563187 0.275783730448979 -0.5574226215659497 0.6321720466636984 0.8912448858352974
Ni 6.009011301603833 5.577643684677788 4.660692094314944 -1.298753166934886 0.5943655173388861 1.2227004496446812
Ni 5.2930291565882746 2.8939095149705985 9.581553492149313 -0.11901610822560793 0.5292276471889724 -1.452942223517201
P 0.2739336497337914 5.7613075640225295 12.552615096718851 0.11925907747434945 -1.2324313037792 -0.6572464731338229
P 3.911717297330852 6.269094322517491 12.849726070836969 0.2389740115391949 -0.5630854762786819 -0.8782996385285389
P 2.239369667639106 8.497038356677432 1.4343520476159115 1.3038074415293417 2.354166846273029 0.6655776187073376
P 6.297840053806488 7.815687324901983 5.923299069275073 -0.23243003977309004 0.4061168000687006 0.37264746466666143
P 4.782227048081323 1.1332720736326145 12.737267138959087 -0.012726189317416791 -1.1607075528816524 -0.2982309974282993
P 3.9675557668299843 6.211657354216821 8.275730738794458 0.27757629729242517 0.15639017799869195 -0.9067951748650707
P 4.548155962210852 0.9446855445695052 3.494379232102158 0.47142770546136875 1.0998171451541834 2.380016974566914
P 0.158436661895035 5.799816853332276 3.69716333688437 0.9773999816668265 -0.6926827024542458 0.5665682926209596
Ni 1.5316343232587486 1.1889288955406638 2.7662693856678957 -0.33154272420655156 0.5219902489002688 -1.2415774890548423
Ni 2.0196214943255857 6.4782342765117225 4.697127876372471 -2.1260133223881064 -0.08363850005726241 1.1277575803181932
Ni 5.875345921704883 5.655052805618112 9.194967455853135 0.3800753816996164 0.6799817099478096 1.3041694528544505
Ni 8.649903886953929 2.3021743222562994 10.258047267339181 0.28952498501386914 -0.7501895384214627 0.13134917586966413
Ni 2.3951052298547264 5.003119601218671 7.135698650059663 0.4614520823058956 0.9258725032114957 -0.10342982375157671
Ni 0.7516368424314244 9.403623319017127 9.183495502238243 0.6565777292015724 -1.5517378909308759 0.7003800710985034
Ni 1.6439288640666991 1.1707096421549676 11.602206744792253 -0.0984753079597788 -0.2817751658651212 -1.6409736825702579
Ni 4.032049744044256 7.095472791014175 1.6168651894711368 0.7245782656112618 0.0812201204237569 -0.14917206298369792
Ni 5.606761793528507 8.099148390788114 8.229803870102806 0.586779477461512 -1.1107209365508808 -0.5909040411528469
Ni 5.155748989626759 2.6396301345920645 4.777178153287152 -0.06858366260666898 0.3082955807531529 -0.0016406209272165294
Ni 0.8566273336018988 6.99861829544834 6.8576361505805385 -1.073795524279441 -0.0154988669665475 0.552870226308577
Ni 5.136140132169272 4.505169059780892 7.169742133342616 -1.5131448611490264 0.917705136909355 -0.6461382790358032
Ni 8.375706848213067 7.085300525913487 9.23790349695759 -0.6099883114778075 0.49866777212424446 -0.6972656938392379
Ni 4.641168611225267 0.3909982562836002 10.368631596077078 -0.10358588971346674 -0.7075722179715684 0.43324990884006676
Ni 8.154977777907694 7.473181709534091 4.800308249297796 0.05832393255187375 -0.6507708927118083 0.26070394701711874
Ni 7.291970072668979 6.137200006631608 6.805049172961804 -0.6509138460475757 0.3973948468146704 0.9067059575853739
Ni 2.444032008513124 5.400455541955182 2.5373770726192215 -1.2362913009552388 -1.520386373202788 -0.7629049291056021
Ni 2.33646030507335 5.24128684026808 11.442185207665013 -0.9423422187317448 0.795369734502527 0.9695905129247365
Ni 1.063165185853856 3.5497481425783395 3.7922876391451332 0.34543773702108893 0.6395040615487373 0.3326562689857045
Ni 3.772248276896778 3.0353766589065927 2.808275391106004 -0.4872132504303996 -0.4016492512156502 -1.0293084976106595
Ni 1.0625657488032798 3.308365741166749 8.168749390025706 -0.9635551053639341 0.07519525438591566 0.6636377213721474
Ni 3.649754223849477 2.7029797319825093 6.891573370022709 1.0817813706983948 -0.08857373257535069 0.7031609762777502
Ni 4.127678118370277 6.943215780167808 6.034747132308572 0.1107780365865318 0.06281076467863377 -0.0434308174901252
Ni 0.6848831691840711 7.3559826837668805 11.062059467945728 1.5462778962575692 -0.13286638384513894 0.8459788149086463
P -0.16844816887761377 5.347487104395171 8.132153758088025 1.1641158072322533 0.14498682125775678 -0.16277345581721642
P 8.626098970142408 1.6112413800511851 8.038744209087094 -0.9884842645054461 0.37627220590344235 -0.9127439362493377
P 1.916327591655833 3.313043166637155 10.490354555100229 -1.5606904721384733 -1.081255580101912 0.24548327341262238
P 3.8772224197840552 6.335886141758972 3.7269662571534745 2.3523503618895814 0.5092506898464133 0.6749045525352183
P 7.0650468195076535 3.874025422180982 10.498370663294754 -1.0961309545518476 0.7922844107089838 0.33772442753723125
P 6.493065802323708 7.766887699557344 10.261409564250142 -2.5570680233490672 -0.9999662970031166 -1.396331674112008
P 2.1417704169498277 8.394362055817364 5.902455916436171 1.3585030333000088 0.6890273650898456 0.32777837206811294
P 6.974758884359494 3.9466027171984783 1.9050036808276745 0.1434529011117336 0.4591056935609061 -1.7278743983185598
Ni 5.31202949461563 2.791850815920215 0.6899429628337079 0.6373170811997476 0.45589695681562126 -0.22403538795149158
Ni 1.7157159920629819 1.2114622792145984 6.990871933926575 -0.7553016628370476 -0.4995720291060687 -0.2057468740549489
Ni 6.753748260287942 0.9225427032164006 9.206930766201907 1.245843720530364 -0.39418842406223076 -0.025031746157647212
Ni 2.9656966429668814 1.8105905288860045 9.231523125320775 -0.6243746621064666 -0.6981401260243912 -0.17569427764394258
Ni 6.427073232482995 1.9012326768367767 2.661999127196068 0.18630907704531138 0.6582456038222987 -0.3300453137254187
Ni 4.11748768851048 6.909193186357828 10.500099040123915 0.8757910131740723 -0.03759467042432235 0.4996453055461654
Ni 8.06257364832341 6.9958572520638675 0.5340166706474498 -0.9309488892931387 0.00819333444406976 -0.4834231872603481
Ni 7.114863671362361 4.015247341869013 8.083887268423217 2.2763081861223373 -1.509969034524206 0.6791746406654819
Ni 3.260619671850396 8.553467180847587 12.532010810462225 -0.0731568837996482 -1.5516252766124115 -0.5826708546097772
Ni 9.170024516883474 4.597273470839888 10.258671226814553 0.314338187402807 1.6421587040172945 0.3057468461893702
Ni 8.888979363958756 2.3336447674115526 5.645648909827708 -0.34716217591136345 -1.0781417170632788 1.0716077725995028
Ni 3.7010696683306255 2.641546516677998 11.576178461465869 -0.18009549203543176 -0.3838657019799841 0.06704922824001357
Ni 1.191235819947427 3.262308994447474 12.960921643718862 -0.37217875256035904 0.48926396231184127 -0.6206133952918215
Ni 3.2921264465238655 8.533604016762583 7.934925344879108 -1.2337646778786429 -0.04282815090911979 0.17015457877263598
Ni 5.712135561116168 7.9469458742190735 3.81403539698763 -1.4145415122518155 0.2602162087474228 -0.8841599539640579
Ni 2.990355303456495 8.469863877051308 3.7595874397982434 0.5741990696933402 0.07988597499336565 -0.43536849784496634
Ni 3.4438475969765356 4.2968283551874284 9.45448646099648 0.48800180776996605 1.1245326456229925 -1.3526236917010963
Ni 7.389678311912909 6.095239413091271 11.583449814536948 -0.14919417447088498 -0.8101332659649467 -0.9498290140270932
Ni 0.4551225806500167 -0.36954840049048016 0.19348556459463717 0.3695366869518216 1.3142980566480202 -0.7859818655297237
Ni 4.683256358079364 0.3019028375709059 1.5934026783688093 0.25177990505461156 -0.4331614628913185 -1.5859998974375393
Ni 5.975924192887935 5.290440678415331 0.08333264888556356 0.2670813112983723 0.6234374950041779 2.013955647758203
Ni 7.837530447729799 8.579233891642811 11.478754500701987 0.843196881288135 1.1714928164226146 1.173990643143804
Ni -0.1601041867811835 4.648370938211736 5.9912261859608265 1.5202889283929755 0.8574816733419233 0.377385236461963
Ni 7.856712433348239 8.923129111082494 2.644146801944361 0.028886858237679284 0.6705079661294194 -0.06047671722881843
P 8.486820679678972 1.9347557397712756 3.5476837177056733 0.4121550358429805 -1.6106320941639227 -0.3359030580577763
P 1.7778031386953945 3.2037548934616398 1.7607482463685449 0.8489749214224926 0.16619533701457184 -1.146684756239999
P 4.7979213999509565 1.129475638978965 8.128125722755744 0.02703334996870828 0.5052819350066524 0.07671400502328725
P 8.69824939332086 1.303893655937545 12.27483142629204 -0.8448074203083645 1.3731639777462932 1.0901950486833871
P 6.3516440702854835 7.746815640742594 1.5753777879055726 -1.0377100914107935 0.3203039180679387 -0.5193319853418153
P 1.8090101948435762 3.290873078145388 5.985922076301183 -0.22006251934667262 -0.16929994408182453 -0.9005700198909651
P 6.596940977284929 3.7721847002398983 5.749546790737814 0.8854041107838042 0.6606439288511461 2.2105959315261927
P 2.6337901645387234 8.491298292799186 10.350087193503343 -1.7119767532516967 0.6978956141137529 -0.5016014008312716
