# total energy = -340864.32427930314 ev
CRYSTAL
PRIMVEC
9.29547958221528 0.00000000000000 0.00000000000000
0.00000000000000 9.29547958221528 0.00000000000000
0.00000000000000 0.00000000000000 13.60487397005082
PRIMCOORD
 96 1
Ni 6.347660026460498 5.503267941889295 10.492092430049926 0.2955004858710137 0.12120977344281705 -0.030271140179715605
Ni 5.4484432023523 6.985302050539702 8.000890844673592 -0.22258117200346828 -0.6267753011281593 2.239289185695827
Ni 2.097924710125922 1.748712127059497 12.23159831396981 0.2725197087051242 -0.3429769341854222 1.4063978000987585
Ni 4.321096714338221 2.7237707704085095 3.664962262853982 2.107561286330506 1.1327450062304556 0.1788161111023759
Ni 2.0740818045795693 4.1778254850259655 2.3338077336872485 3.497618697398028 0.4293842552370734 -1.054004714805759
Ni 7.48240571635173 6.606436887086195 1.1173045812453761 -1.124969733160411 -0.36483979569678454 1.3154632806007152
Ni 3.5566736420146876 3.945838197025839 -0.00546481254218354 -0.1693595936751664 -0.33050914073571463 1.413292984556695
Ni 0.5409997098126291 4.5342141784556595 6.90847305134995 0.09693470294553629 0.2443460744843856 0.35216040045690317
Ni 7.180042351200946 8.39906086046186 3.034962052673279 -0.27599121219349243 0.603397031413535 0.277178033412742
Ni 1.9368433416219273 6.251358856300571 5.534857700255269 -1.068251197422444 1.1071134217052803 -0.7483272884017435
Ni 8.211849898394203 1.024129480923748 1.541173809885108 -0.6494591158789202 0.7030182800522989 1.3828567795540248
Ni 0.4162952717433699 9.24936487015099 8.29255139444579 -2.759165730687203 -1.1167044078278252 -1.0110073853086263
Ni 2.1522939711554026 4.182278019823901 9.0901509635278 -0.2863992949006939 0.13036804290331744 -1.4257808326110606
Ni 6.631729887472794 7.1520350707287585 12.231774928084969 -0.2346221623284024 -0.386798816466379 -0.12546160674063556
Ni 4.596540370147003 1.8483410789681944 7.2479560557671086 0.6198333225926873 0.9963644385844712 0.022377853474567912
Ni 0.5797497762263059 5.606810290770707 1.2448432110889365 -1.4173203605485334 -0.25329711303008634 -0.6570808940902361
Ni 2.2553064776913407 6.106739782425266 13.24989581090144 0.17339442586617235 -0.213804968472735 -0.4886882923140294
Ni 0.14382616945304177 2.0776605642814583 5.351531319173116 -0.3256006476905038 0.2889122911305347 -0.023371584846404912
Ni 4.128773238410721 5.558399432257879 9.589150907207841 -1.0402611399674213 4.111327395150217 0.4109556162182406
Ni 1.9157333071206535 3.9640294508871303 4.6929744656672865 -0.4367396671608801 -0.24779238116177324 0.951524142341329
Ni 3.2684487015563017 4.362814827434529 11.38264028974778 -1.1102763928142945 -0.9365379533451419 -0.5845608725436384
Ni 0.24495727088855807 7.930438544589023 1.9208448914325207 -0.7976479890137425 -1.5005089175525705 -0.5278667622857038
Ni 4.545192140034701 3.6646313437750537 8.934619925979643 1.9283654232912077 -3.414417284878184 -1.2414165379969457
Ni 2.578222148558689 6.8146463378981865 2.174875480100336 -0.9187258648643855 -1.3547741623851959 0.18587070395631214
P 5.774853973603832 5.030118727380561 7.639817229452333 -0.07335460163275109 -2.4161193767164257 -0.05635960973665133
P 2.4963940403619858 1.7941949094525982 3.2064106697370587 -2.1855826973113066 0.7901246840535038 0.7954229563379657
P 6.434266011246216 4.823322189489836 2.1180336214586415 0.10485190091008395 -0.29445764642879607 -1.3303615378687863
P 4.04765158667465 0.48416528755473054 11.099115143848552 -0.6922682406246465 -1.7555428107681055 -0.9974982950785982
P 3.2709956630064774 9.111726701564306 5.519293348969962 2.5948347005748795 -1.666329387726227 -1.4149305201601179
P 5.522974358949049 8.14402078269372 1.4367428131400573 0.6167780807061314 1.085040501065641 0.35769624267346783
P 7.81820492214588 1.1703194908759855 7.636307256300559 -1.2791562186395646 0.16000000683713736 0.5408420914994492
P 8.57238437579024 7.438856393745625 13.125002674593356 1.8513004626864051 0.9198129272809772 -0.41367712891446173
Ni 0.8938607686790321 3.201642088627788 10.754924908488439 -0.8248484606879343 0.24226605202690535 -0.07038754858462716
Ni 5.769927369338894 3.0981276261856108 0.771934749505603 0.2191736889838161 0.5325729095121214 0.02435014670959032
Ni 2.943766889537372 1.9241828982090101 5.449936056399375 -0.6410217837448444 -0.06608660721642812 -0.14670277550759897
Ni 2.572682042630569 7.946352405912749 7.280566457809103 1.4222118843128797 -1.2045456331125255 -0.026880369330611772
Ni 1.3336968428770366 9.236797381535524 5.901903661212797 -3.029348306618718 0.8790678841531312 0.36136417844335833
Ni 3.40157856246658 5.060821696978847 6.968402868362989 -0.7801436615813919 -0.16251865949393304 3.5310610362168733
Ni 0.1465646177859679 0.2820257850163341 13.023673579439267 -0.381416211998227 0.8378780401783829 0.33685925132345856
Ni 3.2029341603123664 2.3051767265241603 10.317392254171288 0.14625540355753522 -1.036257675234983 -1.61448489225111
Ni 4.476628681434351 7.358571335186619 11.240061573676542 -0.801784122669303 0.6481704789744837 -0.530596502512041
Ni 3.5750786919101176 9.337681223209819 2.5240174175206977 1.221044144988181 -0.8907939143408079 -0.9762897793217831
Ni 3.718303443823647 2.0545148197159935 1.5216096136654553 -0.7202328441583725 0.9700664241198906 -2.78841665713252
Ni 5.2881426541469 0.8385647483189586 5.208775988986717 -0.0943484302755988 -0.5487960562392032 -1.407120537197396
Ni 5.911804276689374 8.991145738310003 7.2817228154894025 2.7576310392102314 1.5822887671345394 -2.249057063715868
Ni 1.7115673899978108 8.106931818510505 12.123807001296882 0.5685768384105563 0.1841856029444054 -0.003116177031478504
Ni 7.319530320256919 3.6639899556726374 6.583153569420502 0.5833509113959372 0.49875493252141195 -0.1654980538372311
Ni 6.545951200384395 8.171804971652023 9.99853498976068 -0.6967357894776969 -1.6057701380859313 -1.832791091028308
Ni 8.274984796823375 9.025390285691197 5.9592344620890865 -1.5673910240871005 0.7221184912168596 -0.5298969053418551
Ni 0.4274386928618758 2.071330342575 7.83352294321794 0.6977300350701661 3.130126551680061 -0.1556054773138675
Ni 5.78701246111051 0.994867310685963 9.269640170571147 0.011315682123135351 1.1934968314975316 -0.18364232884642565
Ni 8.200648845301275 3.4692961324101197 1.1586750433992155 -0.49993352621054554 1.2419448996965903 -0.504477436827486
Ni 6.156275393987259 0.402951610569183 11.597543415524267 1.5106997420426433 -0.3810125488019051 0.4117703988100521
Ni 1.5635368750560301 5.890331718478039 10.69445130591031 -0.1835857645768774 0.8577105015232778 -0.5164793463843687
Ni 7.82295491229566 3.556757301332394 11.058708622944286 0.12179701340485476 0.2941784246254805 1.295818252676278
Ni 2.6229148151734507 0.8522848764228246 7.97842924741737 0.14943277284425233 1.0320796325978936 0.5884992883660962
P 8.63565870641559 0.9608458548186527 3.6134950506009424 0.14523107605807892 -0.2565811830979968 1.0697938593192156
P 0.9548037929842944 0.7828615859460467 10.661174417970585 1.604543721877998 -0.8575940305500713 0.6247536427124402
P 6.159249947505712 2.9447708013498497 5.045027747343835 -1.8489399328740288 -0.17920537612099458 0.46900495495248906
P 7.707030984393685 1.94033844200611 13.316695916994133 -0.7738943382375705 0.4804777314787789 -1.3753686987070959
P 6.333363578612431 8.0104912161544 5.117921969957457 -0.07386342294836956 0.12630235747437601 -0.6066271083150585
P 4.316997407770603 8.748440762163698 8.542201023509708 -1.524357442035394 0.39340937980436114 1.2609633497806219
P 4.709071447941992 5.4728066547643826 12.352477662123935 2.015460771548819 0.4134297887903461 -0.21937140681691897
P 0.9121626387492908 5.631759358406734 3.443325491550098 -0.06742743751503873 0.5369676961457075 0.11581817011360054
Ni 1.8765621554745209 8.490426130877104 3.7246197223104875 -0.7784328495378723 -0.45356805157212854 1.1590335076133393
Ni 7.000621001159738 6.220042385039104 6.206788890018445 1.6777875089644976 0.5215989269991211 1.3907392676258952
Ni 4.562528209759438 6.806512793121165 5.867292871929642 0.05203835665347812 2.2404590376342126 -0.32948224213309707
Ni 1.0139044532040646 2.6628760825979225 0.6674907390889094 0.7957320029379521 1.0330178281414466 -1.5837365553246596
Ni 5.831231058258267 1.1200960138128497 1.8463992532494293 -0.16225820674369476 -1.3737003098657374 0.6279220131380928
Ni 0.39660744564310674 2.88068776398667 2.882083945044394 -1.1038326940714795 -1.3403006513593692 1.9502629946952477
Ni 8.894937522947528 7.199070198239302 4.279304237403951 0.3096055578138281 -0.40357603592471786 0.7541356675534044
Ni 4.744468634811587 1.8976443035365589 12.469207508119814 -0.7352840820645401 3.255345189171955 1.598169442920538
Ni 8.81481048754419 6.90295339547727 8.51693683911032 -0.19382801113017586 0.14368764283035898 1.7846348430380554
Ni 6.511920449037341 5.578105849317632 4.151173485500624 -0.6079540546565981 -0.01546595684608304 -1.0889105255440086
Ni 7.273378263322166 3.1853006352357847 8.811400905573661 -0.1474792486623073 -0.28091436052672264 0.17071790747527374
Ni 4.399559858867174 6.452587401823941 0.6393681946678819 0.8040181542061444 0.10321976462329965 0.3701776629699302
Ni 8.582665176388394 8.248362542833217 10.877423529214171 1.4860922279066082 -0.4414015914129236 0.7431961378227653
Ni 8.39684853628251 1.347314720703706 10.25670113736712 -2.412646073455845 0.10843884693039389 -1.1228267186754792
Ni 7.1602522748234865 9.007914783770284 0.11036430146639045 -1.513306326427555 -0.5666279422143016 -0.4114179005666398
Ni 4.089787996359491 8.992196127521206 13.109112981516967 0.40758592841505936 -0.6381064098702622 1.3486377104701548
Ni 1.8025701367029934 8.331250335720869 9.626277982858012 1.9130501330903764 -1.0798854392272628 1.533690546510862
Ni 1.0180781236096443 0.6960055527551829 1.8544398432289986 3.5016468447208142 0.27604212003608586 0.7793530473592964
Ni 4.132119611118981 4.827309950300513 4.9949753071080085 1.1720396900650203 -2.0823796448585554 -1.2503323524293368
Ni 6.990972293184254 4.746290548841639 13.100160504974395 -1.1826912562415952 0.48465808810871375 -0.13708170747806717
Ni 4.539289510396521 7.327226977485917 3.3774642289116685 1.6644152014226496 1.6572744766128102 1.216313315171415
Ni 8.750838995937952 4.488378167832242 4.599576273831774 -0.3752892731648827 0.023746451687320393 0.34644740923252587
Ni 8.92158766337692 5.624062701177737 12.036068827078203 0.2956953754906391 -0.2001909772337262 -0.08957774835983282
Ni 7.067418318608505 2.9916757921439614 3.214219802270973 0.6117865410288109 -0.6801120648780867 -0.6352432293898543
P 2.507660161813128 3.0496238128753306 7.270608210358106 -0.36125876321374556 -0.2307876190736606 0.2705343028439792
P 1.3657476570383718 4.175641047285851 12.650845830080247 -0.0654209486079712 -0.15499175498926857 0.6238187896029966
P 5.8854051142131 2.686886306779688 10.690451460975964 -0.2091399588968979 0.3494085487433789 -0.46159580697261143
P 9.253045880130076 7.250780952061665 6.595724776227866 1.4383278160381356 -0.5163160813336269 -2.525362978936302
P 2.0723063679482423 6.368277400535278 8.553220814747604 0.08000681684194608 -1.9106929457121096 1.0493145084189415
P 4.2611315745021505 5.331664090313771 3.0540493907820045 -0.36019689760813445 -1.5123894710402404 -2.5943737017780606
P 2.447620658139096 8.421825490357774 0.7946250155635551 -1.4726219613343154 0.2482883469615853 -0.7795769904446445
P 8.716343470603638 5.107996256685568 9.609761774446799 -0.2851289128287025 -1.773087504520088 1.4056953747150953
