# total energy = -340867.76416802645 ev
CRYSTAL
PRIMVEC
9.24536605427337 0.00000000000000 0.00000000000000

0.00000000000000 9.24536605427337 0.00000000000000

0.00000000000000 0.00000000000000 13.53152775634818

PRIMCOORD
 96 1
Ni 1.1491065568394145 3.9739264801651686 11.947622087914263 0.64547570575114 0.2458465702893121 -0.14315028226965026
Ni 7.778163510300321 8.79381320699027 1.791804655425638 -1.3841718988210225 -0.32348128735465576 -0.15175216500604832
Ni 6.244606893495878 8.530061401909293 10.694886995684664 -0.6812366654008333 1.0443458515597563 1.5039698795179777
Ni 4.061480097457543 0.6126802438211882 7.012931027115765 -0.5647800903722854 0.48104800215995214 -1.3503022426567712
Ni 8.320025174068936 8.194981597101737 7.328350560838605 -0.006867673654110752 -1.1241122702561221 -1.2557720353876693
Ni 2.1571658079330565 7.686902501188069 0.5107214215548695 -0.15637552271067262 -2.030599684072787 1.9805760438564919
Ni 9.256830388365078 6.947347173368466 1.9681470709259377 0.5029322038275532 -1.9926082924306778 -0.2503084627154076
Ni 3.0741027304064614 8.0906199041771 3.118259523600771 -0.05648559379155434 -0.8807660977911606 -0.28006975313824023
Ni 1.5243112506700844 0.6222344051844343 0.11957864104517905 0.10755721565638895 0.9599463049667534 1.5850275062219412
Ni 5.862347985304693 8.365493884717713 13.608386621897957 0.7638557230546458 -1.5054382365333878 -0.10737723843509894
Ni 9.010561570644171 8.17190516323038 13.196852261842325 -0.06018772523348989 -1.2657219475115298 -0.397381991298864
Ni 5.746688454963868 4.059261209585297 3.678437182218164 0.22450924226411656 0.8780420139917781 0.44624837798226374
Ni 3.7599887078161136 9.255258676122237 -0.26746289504731 0.1469593716030953 0.6139457534636589 -0.6059992449230724
Ni 4.492267932487976 6.310609562329064 8.638080561676682 -0.9546097232451882 1.957065876549694 0.9391224262428665
Ni 3.4129823806952366 4.736928056501504 10.993297829330126 -0.06450435033097279 0.3102640173334334 -1.0202605284757784
Ni 7.813092503555928 4.358903525999855 10.345137568431726 1.0193542146114252 0.05455006733173831 0.5332331688039397
Ni 7.85550099801423 2.9258625298081578 8.250185678289993 0.8108922556181584 -1.0615550163491911 0.9053653843970795
Ni 1.5439576537055963 0.2685122441035597 4.200551668460403 0.5733986852792319 0.5260885873393585 -0.1276537292959479
Ni 2.1536063419713285 6.61077886461328 9.730047982195922 0.5983787522633371 -0.9548781464152264 1.8043999414801246
Ni 2.126896479209167 5.017959450887599 7.909868373567324 0.1886464669292364 -1.0730208508969454 0.4905407721417358
Ni 3.360755307402246 2.4825009968349967 3.965116570775738 -1.0939344611211612 0.6073503596343283 -0.21630562340740167
Ni 8.134239541599003 0.8912468235958627 3.8626695931775252 1.0196712316312115 -2.0982891169999602 -0.5015463792236201
Ni 5.165321341703138 5.04698065518335 6.881634809031899 -0.782187174373982 -0.11340904645147565 -1.5829814223261898
Ni 0.2943465706927976 6.164800893024096 11.301248031753019 -1.098844753938585 0.9600663754843852 -0.51543059340488
P 7.557513602137722 1.7174931760475047 1.4651529263861651 0.9036879966946565 0.9571538298232806 -0.23728453965191393
P 3.416477129094024 3.40450437995003 8.613386188731813 -0.47350232860221037 1.1555306366664035 -0.29616691581041893
P 4.140675903764458 3.2223059495402278 2.06208276446086 0.7224619905992073 0.047829203668136984 -1.4853244965026484
P 0.4094828133104174 1.3751465134583452 8.342444262408144 -0.337070081782684 1.1513004006351397 0.44106837644322106
P 4.018165557118073 0.4644150807343217 4.151702851952907 0.3653347330553321 -0.12965867554111865 0.5681754892070795
P 0.5793497743702125 8.91684129414018 2.3542418815262685 1.6384514303690363 1.0508535707712867 -0.23392642181295842
P 5.2114002465167815 1.0394842505843263 11.82862590493555 0.39792655094842433 -0.5195255894098602 0.5503392323566071
P 5.436506421156142 5.4304137248736 11.112361503481623 0.3165089698018807 1.1297185606993059 -1.9558595149464189
Ni 0.23290279190046462 3.4880270176078247 6.470398149765794 0.6209147285823242 -1.0322531820612804 0.2003591273804743
Ni 1.6936586221531287 0.5443126103308342 6.730297410778585 -0.14107797312165382 -0.497615162490014 0.4572588701601545
Ni 9.065673198171082 8.046121956972433 4.818347373363732 0.1961278629079461 -0.9650882541790089 0.16130432747085768
Ni 6.135400628716836 1.8495909673752189 3.0547022541101234 -1.2698724793447937 -0.07581823268189523 -0.7845811285274552
Ni 2.714781575594619 4.449582077045643 0.6694819242774598 0.0920758321913382 0.039106993303790714 -0.48621360552129167
Ni 2.724840533948801 2.8298216664044418 6.255191913183105 1.0454686523102898 -2.455769129897564 2.1849543196986887
Ni -0.0030657634101532694 5.869531634791089 6.309832951573777 0.360185841864541 -0.2854310174501536 -1.1638892930437439
Ni 3.557875758752903 8.438458314250068 10.145601302910158 -0.4853774827732415 1.0247563594636029 -0.662975148087484
Ni 8.034158453194573 4.770960249242078 12.96366378812831 2.046382915048972 -1.927025878544178 1.8000367794154226
Ni 1.310539894911448 3.9751468684949036 3.656326889107846 -1.4537202393338062 0.33491806843668775 -1.6917516844540736
Ni 4.45986292418705 7.323245269659212 11.855526222240078 -0.8632589421453327 -0.32217542405903865 -0.5451049805408613
Ni 3.630091313628377 1.1599051444843453 1.9323425414974076 -1.7371992752639114 0.42546280869548014 -0.2374416340550685
Ni 0.3705311612497517 2.6072394767197613 0.042304946357597496 -2.1137476176468755 -0.5197958123521113 -0.5050914162624011
Ni 6.101784477452308 3.6120628496663776 11.915998313051691 -2.1270890719507882 -0.24734526632202564 1.3202149363530877
Ni 6.91061533371666 6.320751728978455 2.9080873888782395 0.13697577802782215 -0.01780128984747902 -0.38843840895233106
Ni 7.3788653923235135 4.378716345625785 6.572831259314805 -0.8631612402252038 0.6397660569608724 -0.5196006656221697
Ni 4.908725450010154 6.639014212787611 4.384878382154335 -0.5552454114089728 -0.3672936565539158 0.12438020075099869
Ni 4.9729622539116765 0.6053394231105076 9.044216552446462 -0.03091931528667578 0.19205189306635956 0.38990265220268333
Ni 5.167632683236728 7.847226395323979 6.527554852281625 -0.09164337263960991 -1.3783671192137876 0.48249039103343355
Ni 1.9193195187605505 8.339985919553017 11.94326474685514 -0.4394292981779013 -0.5355355916848713 -2.5339445499577264
Ni 5.116838641694563 5.687545847802377 13.210884878561055 0.13120056610694178 -1.3635282544287421 2.7622471978260044
Ni 2.6303528920556576 1.4800721737171794 9.203116660197683 -1.514145791609715 -1.1665151607023652 -0.5610026256077242
Ni 2.018217200299783 4.698920356323156 5.564935651201742 0.5205753708306131 1.271576606520094 0.6488700761446696
Ni 1.1165721134126072 3.45062026622821 9.53574921658947 -0.6788301128418696 -0.00018409098634807007 -0.44430539532328
P 7.977484358790956 2.7375621577496783 11.931329903712296 2.291436557123344 -0.6638274687854503 -0.20959581548739387
P 1.8002669390484163 6.505954903381923 4.7405134094884085 -1.3082374522762372 2.9993854417080406 -2.480101793105658
P 8.551224044990839 8.279687641624731 10.8969121137696 -0.30288289437801386 0.9750631060035336 2.448754132032312
P 0.9535115909009269 2.162509629558716 4.8045985893853285 -0.7164558936144435 0.6772555692658981 0.7785740031014268
P -0.11359504008302225 5.563768885995586 9.107665651153338 2.1591432721728556 -1.1722777742177553 -0.5607442297400148
P 0.5893551096008153 4.515899088327396 0.8895031475429227 0.8068479103454557 1.3439007100058016 0.8904802397551308
P 2.3332622966941825 1.5791547625790991 11.484166676184689 0.3328665852242977 0.007890201381354153 0.17328001177549512
P 4.107096733964467 4.265238721692669 5.129680455255187 0.5543604377008582 0.6668613705157677 0.09619191124224079
Ni 5.338191197683373 8.926465720286046 2.379559392148596 0.7369162183513244 -1.3739355658049952 0.9142729712993544
Ni 3.076108974857617 6.696982658450039 6.450533556089511 0.7685904095261537 0.14102963638222163 0.23636357049954126
Ni 7.573443367987221 6.980029542653423 9.588603125706372 0.23475534547215698 -1.2180302978625217 -0.08280983350837996
Ni 7.105905202572714 6.46443396407252 12.046131464075852 -0.47897260768816224 2.7516509103673967 -1.4124028686422578
Ni 6.295706032120477 3.7506601333865452 0.9091846829697451 -1.508953705885814 0.04230698829832714 0.44779721052662236
Ni 0.8268815091050725 8.859353607516738 9.544111650258 0.548653617124068 0.26191159417197474 -0.3739484428662721
Ni 5.285742235603157 2.303834296288519 5.432569744256131 -0.21221602671906034 0.09112118158755275 1.0479497668609306
Ni 7.120337219108446 0.12805479271715892 8.73308594407335 1.1793927879959818 1.231019511033338 0.13071642738167163
Ni 4.486165990839299 5.318803664899623 2.24954920449402 0.7316961076029657 1.009394532295552 -0.9330116853594383
Ni 6.428108920530625 0.41193930709231646 6.324717066513481 0.90320694329318 0.4151107760371948 -0.8083754027335754
Ni 5.817507959553054 4.463782959428017 9.083403036806942 -0.052612741099709384 -1.407129021837828 0.3852301864276785
Ni 8.186549823187203 4.094976058962324 2.1618920391009406 0.519061248178932 -0.5453170965516673 1.114106822303978
Ni 0.782192182821424 2.195866910571481 2.2650962121855573 -0.16788403757090442 -1.6640210513080247 0.6086693355560678
Ni 7.570207489840196 0.7175698471520986 12.956031738384398 -0.6227432971506307 1.013495441837803 -0.1735494633867979
Ni 7.146575568197756 6.596263639782337 5.548941167789302 -0.4284167491174815 0.12716933346036166 -0.435563644574908
Ni 0.9775310521179902 7.105646332320951 7.904685421312404 -0.06990263852840864 0.6253203138491876 -0.871477473400383
Ni 5.560847350297128 1.5082335589624352 0.47511474296161477 -0.507656605886416 0.4048307342674254 -0.10415950282874964
Ni 0.26213848869053297 0.964763201486441 11.642282776887713 -0.2419490350071188 0.6343759962935527 -1.017508162541622
Ni 7.557208505055288 2.827565797067658 4.620611180628527 0.6274818402768806 0.9595495837489669 1.8146097921335909
Ni 6.641066684069438 1.956495135986806 10.344257409575734 1.2837425524586663 -0.4593736025103121 -0.5694731249725805
Ni 4.365800569136087 2.4943535562192443 10.357491226660454 -0.23197983960954888 0.5845459601453029 0.5685894368160466
Ni 3.6390315826803015 3.0006113150044453 12.607540605462342 0.17354740650426886 -1.1218584412249388 0.4719182719445421
Ni 2.3035107084738167 5.91590639132103 2.4973379604074153 -1.5506287170270971 0.3381946823054305 0.4310942959496447
Ni 8.636420093918954 1.1614213845303802 6.436095067797483 0.12044358470075388 0.3518030171174844 -0.9713967128955399
P 5.945232692699216 2.0981341451651776 7.738342793823026 0.2383320070798218 -0.24024850737624429 -0.4455968604411939
P 8.025865359772054 4.837563866873996 4.26831742861541 -0.07535594833349603 1.1599560194276086 0.6888594720534137
P 7.374473843409693 6.689983916286329 0.6909524380512805 0.09037659011204435 0.35205421389634206 0.005763384846338461
P 6.5550847790199045 8.232933825083279 4.1427450167053275 0.8602314681729184 0.5125684413657366 0.608149715607172
P 4.177241326825845 7.31074553464556 1.262714540435025 -0.0966300272209239 0.00015915128568359688 -0.11447348316024801
P 2.912512221110144 8.175030096983793 8.084803644341976 0.6522988993205604 0.40222517832377824 -0.08796489534675819
P 2.247271146278514 6.073382712687559 12.185844663488437 0.20931170858807177 0.6004929703928626 0.6352141759241319
P 6.654962469369379 6.654102650318883 7.76639323467467 -1.4656506722228047 -0.6426009553065062 -1.8853236137093854
