# total energy = -340862.31929174985 ev
CRYSTAL
PRIMVEC
9.36409591121229 0.00000000000000 0.00000000000000

0.00000000000000 9.36409591121229 0.00000000000000

0.00000000000000 0.00000000000000 13.70530090338180

PRIMCOORD
 96 1
Ni 7.954425019645348 6.999792885050706 12.562168936123804 0.7550862043921318 0.3986904256976424 -0.7458428314169929
Ni 3.1337509233800693 7.149655878027897 11.100924223370276 -0.06863148512546889 0.5670022948345848 1.1185324621754995
Ni 4.837904032973478 2.854625948707232 9.698309988724024 -0.5974780948259388 0.2829653295184804 -0.36557873074533814
Ni 4.398016257536307 5.78781666316544 9.446365239208372 3.9564593102230057 1.1658862688691147 -2.206926710204722
Ni 2.432932611870078 5.250027263660752 5.433891289348526 0.3559566342745418 1.9468459985938986 -1.819820389800253
Ni 3.664376789416402 4.558432586747269 3.258476000545758 -0.08329037268922429 0.18717836702414214 -0.03993077475666671
Ni 9.507085783551117 7.882040557278835 0.8778652752827821 -0.7041020000347809 0.040178629101414676 0.6426449211705642
Ni 1.2945581848361436 4.024482466617779 6.892751903251015 -1.8091811649188518 -0.10729547735457004 1.6384683996499005
Ni 5.186913256370934 8.41916510596489 1.1867118907772645 -0.29369891388590064 1.1036108078686606 0.22940282291099204
Ni 5.417738223684589 3.3153675660189474 4.6166988015187 0.8821758336544935 -0.618101170392929 -0.759403343710247
Ni 5.571309398692456 3.8713982246038383 1.8284511839798083 0.5953924159415036 -1.1392632669649476 0.6578959337923637
Ni 1.4176866836275128 6.553509432020219 12.748492909840515 0.8733834321738442 1.0905678586417733 1.208311270802545
Ni 0.8885815467875995 6.590956452072442 10.656474260343847 -1.708911998283444 -0.19985107739580418 -2.0004301024679414
Ni 1.3847812501532661 2.2250215875591204 8.777162925148325 -0.563693542176326 -0.8651936972742004 0.06693481414933634
Ni 8.789749206631743 3.5230913084091635 8.711267781335497 -0.5905021777287378 0.7434378215199261 0.6290864657598392
Ni 8.415868944159843 2.629709725992964 6.474973694966957 0.5231958391725957 1.7060282489777456 -0.627034725437133
Ni 7.035020614342145 5.6177553150363 3.380659662046988 -0.1633812646045444 -0.8098756414281858 0.9972992916939147
Ni 4.986437324313406 0.8649315858363877 5.21403074208467 3.768427336949316 1.5735236193473996 0.027500005192481674
Ni 4.586758977259391 7.2989663893389 7.109295687698542 -0.10799456030412367 0.5211656961164444 1.485949788791473
Ni 3.192089241690985 0.3434310313881749 6.216916063558309 -1.399752269757783 -1.2586724968639162 2.0171708122613903
Ni 3.7420332378517833 1.512001858912833 12.01853446787278 1.4817156961054674 0.6262559382895796 0.3192590217431921
Ni 1.4854359184556791 0.5771757238461873 4.713170528121356 -1.013569232498532 0.5377631954638092 -0.7691262274249657
Ni 6.231206610520474 3.750526472957401 7.630837444169318 0.304874727997062 0.08091493047851225 -0.6059421664328919
Ni 2.633090164662345 6.7889696268722215 8.781424525254792 -3.890126648434042 0.14497473707289868 -2.2537878935326345
P 0.7645643952823125 0.14308526026556265 7.856098265617749 1.854704860382264 -0.6953728476918991 0.42628581881740785
P 9.723209120086581 2.570622279999083 11.519894481079854 -1.4592301134084418 0.918325029881541 -0.07097376010540035
P 0.32038505463135386 5.658873060735052 8.585329117323404 1.346330916713849 -2.712142310749813 0.5687395892406656
P 6.899203765420552 2.111641112742336 9.607375252108085 -0.42291690234517487 0.8581457892884834 0.39860557929331997
P 4.905016509271125 8.076401734624158 5.209069644004233 -0.837400586321332 -0.27553715537520934 -0.6411675652940894
P 5.746474179161797 1.2604728752612264 13.154183942959929 0.11560939653690411 0.8046938401169302 -1.3834566179215528
P 4.0482485423598495 8.136659692622674 9.347727597192344 3.230771870707965 -0.5116513288681058 0.6892636494703678
P 8.477765618964845 7.5771736826001055 5.359622770859355 -0.05244227696011613 0.6446182428468511 1.045104841212968
Ni 6.549979167814246 2.948088991253179 11.669543036257794 -0.7043966484570643 -0.6902995469340498 -0.6612599651685902
Ni 8.86968113040413 2.729025328562077 3.3453954127810044 -0.06350136298775515 0.16042989528570437 0.8408458645574552
Ni 8.957179243774467 7.539492560146955 8.396895412769542 -1.4065698069002488 2.3121017987821797 1.1329841188244552
Ni 8.556583215308821 4.560614421123906 11.901340933149703 0.22855153065429024 -1.0021702466329707 -0.4220476123663441
Ni 2.153198970954831 8.955081686262165 0.5708999066821463 0.2754661929279579 0.03827806964459214 -0.8775504190673403
Ni 3.166506531317723 0.5148258267929928 9.005725526859425 -1.2258744764972889 2.0850052554068603 -0.23730536558752033
Ni 6.0352722650409225 5.157247800125511 11.129334890746735 0.17413284669409365 0.39786818690666315 0.08685417878108267
Ni 9.424681738424944 9.447998337557237 12.626460946695085 0.8477780729009141 -0.4667912351306219 0.4155499204571424
Ni 0.5115025091094384 3.1736232443058925 1.1641668931584264 0.20802615700742882 0.34074213131763254 -0.5383895161938986
Ni 5.269982152315738 0.6463380007663467 10.704525182748444 -0.47367202141085524 -0.887923020550916 -1.7217775413922025
Ni 0.6837475644344219 0.5506566038692189 10.453102013382056 0.16181571988963744 0.16403381058687877 -1.280642573377104
Ni 7.241798583032617 7.117658761869245 1.4684129282698986 2.2684838049819125 -0.5884386103314898 0.5934244935818555
Ni 6.892986005651941 8.316412880150175 9.45290231465185 -1.1557188414178097 -0.36217587571137627 0.20092785539975072
Ni 2.343411853755735 4.319245481672515 9.229766206594228 -1.5579869571643814 2.261281116585886 -4.513737692901606
Ni 2.3132875568044966 2.825194594862736 10.716119806461537 0.6601147958205535 -2.5630980315932312 1.4777921926813453
Ni 5.510770517812831 0.6710732604482543 8.077547899979095 -1.2998703112584644 -0.7279410114359076 2.559254232367109
Ni 1.2549855149835063 1.7706381914565719 6.605173959085517 0.0873030933930432 -0.419604035921858 -0.9617383638701695
Ni 5.440764535839731 7.55450320609437 11.539219166071545 0.7193087896822065 0.15327965739416827 -0.1322608890506561
Ni 4.938081132378001 6.113977492232455 1.4951109024811748 -0.4460534883626383 -1.18282443938535 0.3637355068890123
Ni 7.084341308169367 6.47731378256662 6.809656787837306 -0.12042481564767649 -2.331500515023765 -0.8578177165251032
Ni 8.643229195939785 0.34504914718337976 2.80817535031537 0.4817000339216542 -0.48373480496349597 -1.1996710786290437
Ni 2.110395687969406 6.429051231591585 3.226255082491821 1.8254781023066624 1.7884570449976231 -0.6489248406420051
Ni 0.9498189892315906 6.831491986976534 6.746229083330245 1.3509151936504218 0.7013282939443857 -0.2488750727029907
Ni 1.5491866842760187 1.100393653507598 2.3064377205533835 0.9952542362394278 2.1534580488626203 -0.5670956258793395
P 2.397789159442972 5.203899726582169 1.132937632874814 -1.4155473278085104 2.737641740572498 -0.022227958160264943
P 6.76137363585099 1.489865135881211 6.743049036316058 -0.09363443492770972 0.45545112752745437 -1.3931213947048264
P 9.29955868717768 1.0566352327263926 0.8338643244142168 -0.22687414295186734 0.1916564574001538 -0.3012443303333263
P 1.5600771279671253 8.57684711913303 3.093080781471888 -0.07669754996305501 -2.162886541265372 -0.2217036544945214
P 6.906329842504759 6.1969433831208525 8.934595853361877 -1.0068450264008209 -1.0958882424134222 0.6886591831171495
P 8.060351674016628 4.428608759289399 1.860179550582196 -0.39953451886549257 -0.7157881781234576 -1.1158101781483298
P 6.7277471669818905 1.164097598847752 3.6102916435255215 0.47582686297032895 0.6369851517816255 1.3830182448325536
P 5.013405920900154 6.464793986165064 3.580249750619409 -0.34145998332026356 0.0038751666846901004 0.5842721376586261
Ni 1.9980452637166988 4.205209520133136 12.549683786877585 0.002726654902543691 1.934555868372636 0.6219552540316966
Ni 1.7856394733079501 1.9891025520013015 13.026669301584796 -1.0475137077647767 -1.391210550835359 1.7868038256649161
Ni 4.787019535108067 5.418262613062665 5.659836626217267 0.9961227548873103 -0.1335574963748926 -0.16988615560259776
Ni 3.480035194830738 7.1464346289911465 13.70434144051037 -0.01343015736297687 -0.7837151809827341 -0.7042081865953421
Ni 9.107510441553512 5.385544461509159 5.5048168255524645 -0.5353586997873747 -0.6144967408711224 -1.309704266629751
Ni 6.72021843376809 4.761427460638767 13.721747422224068 0.8880335779868513 0.6502728700294671 -0.9477574762100452
Ni 7.050827208452711 8.707579263906498 6.938706204552911 0.13770031489867252 -0.11047181820002264 -0.5461994991566206
Ni 0.5453134506704695 5.051367966234416 2.9133631775093267 -1.2683740404223962 -1.73430112778051 -0.8233754756868334
Ni 7.757273341680978 2.4847066988590107 13.523376538955672 0.6812456642618977 -0.12960493948504775 0.7315032748658692
Ni 8.22115193116511 0.5116139418522795 5.079842309463923 0.18467796919979163 -0.16837151873028422 0.6333601534345286
Ni 4.546521456588123 3.9478092482662897 13.058493181966762 0.7432794415651908 0.46399104667766544 -1.8681465877094665
Ni 2.443691958216665 7.829891906448419 5.153001182572702 0.5679181217806348 -1.1024795224776949 -0.32327148533669486
Ni 8.921520766065322 7.193030370871582 3.325413368247511 0.8874931321023489 0.6651814117101834 -0.2517577935674245
Ni 7.326749662280871 0.3981988198801577 11.438868830890335 0.5271954472502921 0.8924409630259275 0.5931272740564107
Ni 3.8325372260500177 9.29630934585282 3.5255924584606633 -1.0412808394811872 -0.05654344361268327 -1.7102188900203257
Ni 3.073670883206259 2.635000440253906 4.958413394103281 -0.10206893884830807 -0.32130510563894343 -0.4971179111386213
Ni 8.288395504807276 0.7599375954303986 8.635792230867148 -0.6833858505333521 0.5794641747470214 0.04321793014837073
Ni 5.85418001178012 1.348261275608712 1.7564852967061517 0.76850299201867 0.4874361650744831 0.32250606792558
Ni 3.2046933149568746 3.3760656365312034 0.9933863824536399 -1.040140812339473 -1.460178336254324 0.4170249623407721
Ni 3.941563396209567 1.1478040717432587 0.6560260945262942 -1.3682482856122307 -0.302363274429118 -0.12900792933099717
Ni 4.098515009886816 2.1704008153749195 7.127017239448688 -0.26855378207884073 2.5051867610987433 0.6251534492540202
Ni 9.211423815276824 5.558761510002789 0.22504919287799377 -0.17278558863757987 -1.4100546801250553 2.176166031983097
Ni 6.726876306050443 8.290474334127504 3.3113381954941983 -1.252951792330055 0.6050831608667063 1.433411352573125
Ni 7.302983586538801 9.434888603105346 0.20641838740264898 1.001252362804392 -1.3541221306234936 0.6519263464724903
P 3.64208087675215 4.5622531379303926 10.72867425001843 1.0197815319568309 -1.5512676361626767 5.652498052088207
P 3.400992860181871 4.31096762077575 7.098043789900404 1.5764665040258077 -0.3292112478598975 0.8393757077698317
P 1.2692283050558821 3.709605373275427 4.4688050779381046 -0.9427083438219119 -0.4946977317329028 0.2860712221373138
P 6.117545212822578 6.936622693184664 13.554584261818398 -2.942668191521655 -0.0610421028139852 -2.5752588353254806
P 8.584675503420018 8.173750877025489 10.823008153495826 1.0353225650152234 -0.6168552138009699 -0.5316496263669037
P 7.16486316999209 4.449322139723387 5.407180205402798 -0.9529104811658944 -0.37735721143750495 1.1670854313835384
P 2.3668314579444347 -0.017563298527119364 11.722842534491164 -0.24053492826841158 -1.6017653878019125 0.7622001897290938
P 4.048997670042815 2.3281109208311705 2.6638034632543146 -0.16807969852147825 -0.32926626946754906 1.363024575319446
