# total energy = -340853.62786308804 ev
CRYSTAL
PRIMVEC
9.44339223853685 0.00000000000000 0.00000000000000
0.00000000000000 9.44339223853685 0.00000000000000
0.00000000000000 0.00000000000000 13.82135909380935
PRIMCOORD
 96 1
Ni 1.897961291192764 1.1783370332502843 12.27770641614402 0.5790443136007835 -1.0535468013327338 0.011646325989676716
Ni 5.296647581384307 5.120207241829989 1.363948795293104 0.6717302685722948 2.4624617114263914 2.467127749443493
Ni 0.4463608183319404 8.499468474300313 8.680573849593223 -0.6652276915670866 -0.7092174668844754 0.8287771063183792
Ni 5.505422095774526 4.678804204394324 10.109370419009615 0.1750538158464663 0.9498760652149447 1.7073598233049756
Ni 2.599605330418083 5.234264532620883 13.142039327226216 1.6974261091310314 0.8263001055327963 -1.436157290749378
Ni 6.669471276651354 6.530606194594714 3.930048025905328 -1.372291859553985 0.009865322829853978 0.3194814221666433
Ni 6.924726167368183 2.685861274621099 10.026179799909324 -1.8659009862083993 -3.1112682813229773 0.3086889595368297
Ni 2.74304101429148 2.398593284402603 10.625846535624735 0.6203585989685381 1.4751372715570015 -1.3740813473542401
Ni 3.345774963788051 4.553990889906557 4.7037819767193705 1.0072065235052978 -0.1139201817599393 0.40371256150258217
Ni 6.065764657759894 7.608918817838611 1.4907716636374941 -0.03239718538378292 0.37917729536537925 -0.03771088428721247
Ni 2.5010824197688533 6.992321968616835 5.339550800751851 -0.869116172257058 1.0725907053380626 -1.8467005020205485
Ni 1.8297705562365587 5.795466443294937 3.1519890014712955 -1.2638504415204297 0.02603627616276161 0.6331346676872839
Ni 8.056894456233909 2.2780200530051755 13.37691915496818 -0.4471662618108428 1.4487932343458338 0.8758123533303109
Ni 2.689714178631919 0.14126936970652876 4.239203910526467 -0.5229215024652866 -1.3067179303079173 1.9518797043630642
Ni 9.302289017378394 7.058916770294048 4.787027367494324 0.5728543827399876 0.23187339593867165 -0.27771102309807655
Ni 6.517876501931514 8.954979939657951 13.058834543037651 -0.37594284758848157 -1.0066696771652213 0.4191875172097297
Ni 3.484838357080542 0.3191205520530446 8.950490551013973 -0.6090899680332542 -0.15606544766942154 0.682457939402444
Ni 7.990658503459665 4.391498440607095 9.949485290291983 2.395566492265739 3.6146553132997616 -0.6701482687971556
Ni 1.5307833163184856 7.3148326984637135 11.722709758473666 -1.8213435113129988 0.08022536061065538 0.21717414205528401
Ni 0.6537329889829282 3.8596088192702593 13.359877609434047 -0.767760971646323 -1.2738129520497805 0.6284958833636918
Ni 7.393477268566923 9.507323948463993 4.044669087209569 0.15044655882074737 -1.0129429117684428 -2.0137144782816736
Ni 6.033118850981941 0.5420148264358583 10.371603032210746 0.8145216248406295 -0.884192092753574 0.5700459667569151
Ni 4.8273487634389305 8.135557913121486 4.961826445487171 -0.12257220100798245 0.7675668533576459 -1.2545870139406328
Ni 1.3799156827967671 0.7114009520291902 7.456305101102185 1.1339523962749956 0.5082189061477892 -3.584786550764787
P 5.5549999047372856 4.971247173529313 5.14899542290103 0.7754477987676194 -1.2625062687877096 -0.9436000023982459
P 2.4157991449607263 1.8643428150199222 0.3592596905285119 0.006345482602053587 1.6593578415044004 -0.25023107251025295
P 1.3132453339820864 5.4445027727995265 0.8590304463712269 -2.8242773755848716 -0.6952255234807575 2.0725402901706307
P 3.3183324661031413 4.7054817873123795 11.204547052014595 0.8387630138864975 -3.94950499039236 -0.2818543558424888
P 0.13460044614662403 1.6688268232551708 1.3702201520420882 -0.3867651350149662 -1.9182581596538768 -0.7835909967000441
P 9.266498561003374 4.995082295400171 8.152099903209116 -0.31695017110435736 -2.0035125980480077 0.6737627256212912
P 5.268968998894813 8.525834425276317 6.962633832270717 0.7440348316739768 0.43514198365645707 0.4032199381368798
P 4.238817675786167 7.738746573575753 13.570598406953263 0.6260507642573089 0.22483551525528372 -0.19016753155945315
Ni 4.871156659777642 1.222126042804629 3.453418302607991 2.088166426743662 1.5008711859879957 0.6073704142389862
Ni 1.344512405501266 6.226094570249362 9.137867283055865 -0.22762927595033697 -0.13384545992895658 -0.42743227371702514
Ni 0.3442295875294404 -0.37794627498098915 3.161303963520984 -0.24544444975488702 0.501110320127466 -0.2505560599498394
Ni 4.1748670239203 3.4558188129010072 7.480893805669276 -1.402613650465978 -0.7566432644666066 1.773888660265145
Ni 5.724386030330617 6.3288481205967475 12.596247143917005 0.34697011450521537 -0.16897881329697995 -0.11482726695524095
Ni 7.130988739437623 8.425819458662113 8.169445525971554 1.6338293582159926 0.47986298071291544 0.6963699214978459
Ni 8.140591241155228 4.895728366238804 5.644491155102328 -0.5825754666824935 -0.6371147353809544 0.9469360087500143
Ni 8.40576169366461 9.244164938489673 0.8770701584591426 -1.0969297963040592 0.437369330325079 2.680136704377494
Ni 2.0209520309891373 8.241862178929823 0.19023902421267702 0.48359519406183815 0.9669721014652831 0.1978625862108657
Ni 6.42927859646702 3.64581042023848 3.5524067724918615 0.020077230365849293 0.8314585098052841 0.5938911488056288
Ni 0.47225837705564855 3.5368620046187957 2.160554641975299 1.4120323726767166 1.6200467026096035 -0.06368056887809678
Ni 8.655020030344991 5.672305722439262 12.151296224038045 -0.46102939294618017 0.15873476697146857 0.14662204286833458
Ni 0.8341584400386342 1.217413790105121 9.42678881124567 0.8249749589634695 1.3163204863946878 4.389578092801846
Ni 1.035552943437541 4.13709345518677 4.700658102585107 2.5733528765520197 1.970140707455781 1.0125896421940819
Ni 4.505329089985588 8.344530738747558 11.230904503937635 0.6327171205338911 0.7562750824939105 1.7783189281223566
Ni 3.0169088310017558 3.8524223978187053 2.0983859582144375 0.41083528859029245 0.13665284747076464 -0.44529347026816213
Ni 8.363002013858253 7.080948204257879 10.083331209403157 0.9663288114543293 0.18171143037229995 -0.29101802461962784
Ni 0.3850165427086877 3.0724170902556778 6.719792280578944 -0.04964517383095321 1.47169584997562 0.9311180678811513
Ni 3.82005044941407 0.634644116023439 6.585256049499167 -1.2663374696083416 0.12385903814020605 0.027446269136410795
Ni 4.147027903763688 0.8629126248978155 13.52091011030196 -0.37660259265966756 -1.6620492722936344 0.7265934962690777
Ni 7.601156349463871 1.9799677089132575 2.326922659426822 0.14853108696558937 -1.875791248738918 0.5969556466635655
Ni 7.777473924919805 4.117064020365816 1.5498854100270316 -1.381029753647615 0.4889240624739193 -2.2768792281344594
Ni 4.328718769371968 6.561457756857824 3.2716811643780135 0.18378322529966412 -1.9025096385703688 1.0775596193075636
Ni 3.2843834712038817 6.555886155469629 10.600221890935126 0.3534132990273978 1.8763486639042848 -1.3941531784034504
P 9.404806482921193 8.059765247457658 13.221595184675124 1.485753613620267 -4.5979983999239 -0.49003272215706584
P 2.1307881254740595 7.967956588650813 2.6970724698212103 -0.031150457460875386 -0.04070570524947828 0.4911691497543541
P 3.1739524430114066 2.3148398391281844 4.040950279367753 -0.45683309547664547 2.811569698210216 2.901376017641087
P 2.1767963321914987 2.6679282728648555 7.891000497069992 -0.11699033604483076 -0.2786564177304814 0.30795208137080515
P 8.218461453099401 7.454207723698255 2.805238028228892 0.25018453554303366 1.488784944247423 -1.1879514761992702
P 6.489215806654948 3.995706987417168 12.75436352527869 3.1891760495440495 -0.27627017688649197 -1.0814787518563116
P 2.7321622264962233 5.737134609778184 6.932945695924598 -2.272305492720848 -1.1989246873813222 0.6497059417824036
P 7.5604364423691255 2.628143261596265 6.499521380544674 -1.5793592521925703 -0.17544359508571722 -0.161702848460857
Ni 2.462175643973318 1.4722909451346144 2.3784344751087367 -1.8442450985015206 -1.213514412270039 -1.6403478760608008
Ni 5.0460199528373355 7.83410594784355 8.945114427843972 -1.2965366188995413 -1.1604928657676852 0.25410958162905267
Ni 8.951174252608048 6.807297585567821 7.277650286080863 0.10812080146934283 0.7971242552997885 -0.20063140720525446
Ni 8.559500118410076 0.19950015892692025 6.01961668883814 -0.0361427684691442 1.6224923359366186 0.6665896049116197
Ni 8.555005063730786 1.751805910370553 8.12487177052677 -1.5716269165453194 -1.1406609186434227 0.9548285241242136
Ni 7.280033798267948 7.77212896494401 5.875625733504362 -1.5328271700693021 -0.1916546576279409 -0.34210687287564306
Ni 4.7481564765890845 2.5564584715322085 5.658063198348286 0.2531662438791769 1.4506056049642244 -3.1992262346911997
Ni 4.623305388532585 6.328177639751726 6.40614417429617 1.1643400074279173 0.607333904574096 0.6827255912415339
Ni 0.8768775132586015 1.578963503238103 5.006193390643138 0.08078971775455764 0.2114146138636875 -1.0180977164965046
Ni 6.115427457252303 1.1319416474533261 8.153247275359398 -0.7372599748439884 1.1690728941272124 -1.6140115521591167
Ni 2.6720172616802604 8.00502190297059 7.615485752762935 0.15735871255954834 -0.994720475223145 -0.31552963660774697
Ni 3.0600084729267136 6.443896967566896 1.3802093722936704 2.246613230161066 0.8485506894008804 -1.6009295221641784
Ni 1.1507717714669907 4.503185439959959 11.151666888805307 -0.3480895728216392 -0.31532934767148274 -0.5757468737964343
Ni 5.506187010541381 2.8486086955095127 1.2336214841094604 1.6740074730967751 -3.158404829799464 2.5476331031884123
Ni 8.511197167392075 5.31712085563788 3.318370239671875 1.17114777437837 0.13754553448836312 -0.4841765204866048
Ni 6.7207488962071205 6.125645207594722 7.548701138902836 -0.2559414926314689 0.41508532211589805 0.5024179831952961
Ni 9.199762108443409 0.4254361499320014 12.67487754893194 -1.2110523238827917 2.4571829795259554 -2.138547450299375
Ni 3.840117657803758 5.375887085195069 8.607458385613384 0.14061131789788042 0.8544225748006252 1.066501304610873
Ni 5.922432851200515 0.7438918871753359 5.595121100767604 2.3016214680761458 -0.2894838473632885 1.0719967805078054
Ni 6.280809584559881 4.059770959989235 7.968206838543673 1.1343434610658272 -1.966556846759265 -0.3765912798057579
Ni 8.26773707351229 6.787419245021802 0.48626481634204144 -0.9505720628407048 -1.492827746858229 1.4667845287169319
Ni 4.174555391978249 8.748585160097944 2.6941979012405888 -0.01276295609262318 -0.9645760904292807 -2.3961460189182926
Ni 5.930941347557743 1.5991251455496247 12.503050306459205 0.6720210603398362 2.2338055368734366 -1.1024304144073143
Ni 4.70110005333929 3.9527017794140438 13.55887726857525 -4.650814515283668 0.39833792745423013 -4.087740866079528
P 2.423769367963501 9.069433852920548 10.70594161076731 -0.24671148939276863 -0.37795010782649746 0.12857289867610763
P 5.69103196913891 0.6217076130714232 1.5085875673306635 0.8898228086767902 -0.5045306586629247 -0.6976454457761598
P 8.90288074498223 3.2590562933680496 4.067667524532979 -3.745404907912214 -2.5702773229504894 -0.7874934170782437
P 0.05590771474327938 2.2211047283159293 11.546391238678515 0.30638679376621425 2.668713550142217 -1.0951701333004753
P 6.31015020407365 6.904583411841028 10.420019303934946 -0.624283645054557 -0.6928020016409294 0.8259944013669194
P 8.539196825215804 9.553124400553399 10.461193438193712 -0.9145133694449348 -0.6655213115481055 -1.1103568683432425
P 0.7569587089394824 8.400586714748115 6.321972386748026 1.5887406934074704 -0.9565815022595784 -0.2651617256781562
P 4.556021219225984 2.028298990107809 9.491403333582028 2.0872179467874634 1.6556670229163746 0.3020359729966863
