# total energy = -340856.6729007537 ev
CRYSTAL
PRIMVEC
9.45019736559891 0.00000000000000 0.00000000000000
0.00000000000000 9.45019736559891 0.00000000000000
0.00000000000000 0.00000000000000 13.83131908514255
PRIMCOORD
 96 1
Ni 8.350865388671867 4.954275438343699 5.523053524375101 -0.10594024887825625 1.08845415473288 -0.9403213316469742
Ni 8.490898413778881 7.0400001564091355 12.245253937362637 0.3235687048621395 2.1346979946462974 -0.8598123783576288
Ni 2.148511829606197 0.40897524795881446 5.556400435948533 -0.9909080434555902 2.3453042536760775 0.613340515779492
Ni 0.6492436818526116 0.5209903278075425 11.810535406660266 -1.0042613248340446 1.5610601967730662 0.927294580370003
Ni 5.699877112988939 6.529169735828787 4.306975662096737 0.8444145557453199 3.2338566802808755 0.047965986356317394
Ni 1.7015080422808597 5.851760685638413 2.0218763493563987 0.010100835879427764 -0.29493432895489846 0.26281945069822477
Ni 7.712816410662 9.400876822039411 11.82678785615271 0.1397530836626432 0.8530120676063438 0.19532182206688295
Ni 3.92743588900655 8.89984625616523 7.264029371086851 0.03764943492165774 1.3211585312132796 -1.5221169827406495
Ni 6.203582084727967 1.8402652907385653 13.564844536886897 0.4781465122424411 -1.9381003911907848 -1.0174156028278156
Ni 7.104441052495296 3.887811211298782 12.043718082541835 -0.24743525493267066 -1.6375523155935348 -0.20607006172232253
Ni 2.5918583905368506 3.1930043476908083 2.1596498322645266 0.7928937621582086 0.5943457198445441 -0.10920220745897967
Ni 7.105490024406949 8.063617188432106 9.890721189248513 0.03938441533489346 0.4899725583430916 0.36613923123449843
Ni 2.83553173055469 1.0213584348438254 9.123953907481384 0.29935585506136186 0.11435649796640951 -0.3449926790638704
Ni 4.740511973104082 8.602864352601117 9.353485027086707 -0.6874551355067193 1.966725511126645 1.9462860123253705
Ni 2.159360656224017 8.183596894651478 8.607368316683045 -0.4816781795447833 -0.33492269642237804 -0.13026956965224015
Ni 1.908335062627202 4.12493556451684 11.435858705153295 0.4789268420518914 -0.4531597603901163 -0.5659242312790576
Ni 6.191778788172517 3.4167850221768448 1.26281759361031 0.18796126793675372 1.2845506501822588 0.24314845463185866
Ni 4.775137496386043 2.9341917914345137 10.970642497394278 0.11759017441235878 0.07294219668568083 0.4391369637484631
Ni 7.401526908230832 5.709251708812002 10.251994675779828 1.2558800217204436 -0.46770269120129776 0.41351566363593295
Ni 0.2586433977227941 8.228277427969466 10.373945693177316 -0.7247880676292228 -0.42322337784200015 0.32301488924119853
Ni 3.935714261930949 7.975938256933734 12.964496176393691 -1.365979544182712 -2.4567790592193175 -0.839690153686457
Ni 1.7817307680288312 4.742543765545573 7.709480490978994 0.572713229176433 -1.3331509276884652 0.13007570847387923
Ni 1.492583078111211 7.802668887562896 4.527737943532484 -1.1698840771745982 -0.2997363783292322 -1.804080353357177
Ni 8.102400798571072 7.48181578536062 0.6437984781094168 0.3838381911761583 -0.5583675019777222 2.351954926223375
P 5.329060817120798 7.738520947596205 11.208527591503222 0.6156781627737332 0.11216926050710359 0.09650507160728541
P 0.09467207757606029 4.277348348220843 10.326269447282804 -1.1140340600845136 0.8617144804763482 -0.965332508979331
P 0.5625778115157646 3.8486684936585305 2.229359213402459 1.3538395663860683 0.49348211415824694 -1.2271852248889124
P 5.703770594318678 1.3512364755652804 2.043453040065289 1.1804921917077476 0.09328065113271677 -1.0705096544393176
P 6.459852537883048 6.911562523514721 2.298834229644815 -0.45800166186345 0.17843764471703463 -1.4210543736696688
P 3.2638902784053254 6.165252084064312 8.874824023483466 -0.8258205947932163 -0.8270259279552272 -0.7732307365116424
P 8.131214450450628 1.101826865724256 9.99229852606642 2.204917393084177 0.018240691377742778 0.1070792475787059
P 0.756174555498912 6.719780217432812 0.278438726221354 -0.6707475929440512 -1.4172429703433786 -0.3404973622966781
Ni 1.3511041728016484 1.8955016945549032 0.6955420889658711 -0.4196117492313418 -2.933159223589955 0.3373001955156191
Ni 8.268185611599302 5.753091174561187 2.600121643145406 0.3279303242649449 -0.17826949457028654 -0.7347436361800378
Ni 1.1037925067839307 6.244028929609734 9.538976336757917 -0.3004904828864373 -1.7268960935656903 -0.16971466302173996
Ni 5.044099564652389 5.2817909297145835 9.934662717129644 -0.44175100433254244 0.06970029270961545 0.2734234514663162
Ni 3.168216479904623 3.461021396216926 9.210413763514861 -0.14705450242006288 0.7831359114404963 0.38033403467764176
Ni 3.7371750647064084 2.2379673982161976 13.090845315662202 -0.9604047326604106 0.8053067911105808 0.2696930378896065
Ni 2.634837888322429 6.728351546476682 6.454772111759581 2.045592557937193 0.33707856642311623 0.7195026508605674
Ni 9.371335504959879 0.11795547393580247 8.477298634697256 0.20020408985984875 -0.7052145163726693 0.4360765796555844
Ni 0.4849217593822531 6.235722206093127 6.602393645380627 -1.4058822939149207 0.9427569376716601 -1.082535218145284
Ni 5.02728766347373 6.983998286603213 8.0008924481942 0.6774368320387687 -2.0129274636040044 -0.9963191871688325
Ni 5.130559420685866 4.6186327772068525 5.087407929307567 -0.40524468187639234 -1.773684257563823 0.8912410291805555
Ni 8.130307231500009 3.4218975789714787 2.8596807649964817 -1.8232145030834666 0.22927452486324384 1.04588902767716
Ni 7.897804024811668 1.3167054542573424 4.392245738277267 -1.6284596092636472 -0.011885181473360176 -0.43197849832681084
Ni 5.238518475809535 0.3942480603270983 3.9402664220196284 1.3047471797347916 -1.990682793273191 -1.8179658530900173
Ni 6.691136669106496 8.486390669617993 7.477626512852188 -0.7038708578605812 2.9459990556671003 1.4100863046939391
Ni 5.043145094714759 5.1262784812626325 2.579236706886363 -0.41673674167639196 0.2763647934828273 -0.11319230245497926
Ni 7.299956186551106 8.937580894392541 2.875503230507122 -0.8644923003318015 -1.468613868616187 0.136651561919184
Ni 6.912120085161456 5.726895227362062 13.456255153596496 -1.096685541503737 -0.2964685062112378 0.5232955979752536
Ni 8.564723355885507 4.296059739077362 0.5549193715409553 0.13063286652892986 -0.8693678832565479 0.8653114537989871
Ni 6.869036635204453 6.586315079520384 6.436694829148757 -0.19152970201430242 -1.419065625374414 -1.6509323364448665
Ni 3.0871054356008374 2.4433674387547955 6.839048323787791 -0.01656716033006179 -0.18289953714313018 -0.09204934982877695
Ni 8.903928741443014 2.377679116611534 12.794357657422228 -0.2673240234367977 -0.1690186653959799 0.31480612817816106
Ni 2.4747137435381643 9.037308827578821 11.045041066483225 1.524349471615594 -1.0453005021635418 -0.5032425359791204
Ni 8.515487827419618 7.1089960476431955 8.226909984405356 1.5450635642344939 1.1768797917661409 0.6317784107697055
P 0.43966665406220545 0.10789857386029406 3.2337762793632137 -0.21979178218378922 -2.6937357832181674 -0.28458718139261957
P 3.2465302657773334 0.19869229042245784 0.029296556966814186 -1.409098229749057 1.721438669995545 1.5990842414253235
P 3.9839575196695987 1.6490972474878043 4.866742984905063 -2.2059543189891233 1.6575313298186227 1.404878792351071
P 7.055148822844993 3.434211186186652 4.787268714791353 -1.1812432109411592 -0.7034317134406337 0.4724350636799606
P 7.005412433916783 8.636147947851954 5.392042602728046 -0.264799457242731 0.7657220868394232 -1.494687425774787
P 4.7291717362213435 2.1358391148897367 8.492789398279077 0.22841320530421308 -0.3911123562400684 0.51024776365236
P 0.8832022189409051 1.5689973743060628 7.234374651638491 0.6581792693607375 1.3888603054356277 -0.504009496052132
P 3.86796579675399 4.169625548032231 0.5626439628975806 0.07883233691787069 -0.33591359958073763 1.136401114925804
Ni 3.718567626021315 7.363121305987959 2.642044608861409 -0.5275286622199947 0.10409548236003362 0.7647363258873862
Ni 1.5131372574611743 3.8772931415900427 13.739907553724688 0.28604473977475253 2.0373187479641754 -0.04015420362138246
Ni 8.417167973646277 1.2950172512191052 2.179981931975536 0.43076236653152267 -0.030344159509496125 -3.733295269132874
Ni 6.211104441860184 3.301142956565121 7.501139549008806 0.44748173616873255 0.714463288664447 -0.6694304167945245
Ni 8.276983745380827 0.6899834828538489 6.477552757617522 0.35760034052555184 -1.4785239286410472 1.4176641170411972
Ni 5.922448162207481 1.3843499672628763 5.896221974376669 0.24627080231092427 0.6712199045947795 1.2320952605960198
Ni 4.896241776096286 3.009793370652769 3.2174274378572663 -0.3262917602202574 -1.9928900853371552 1.2470387692797296
Ni 3.344972972116904 5.625541860222588 12.818687190634405 -1.1949320212821615 -0.2604198401177967 -0.857289354825459
Ni 0.6213759947330224 1.987102457975222 3.8703491365388456 1.8422820612378787 2.5460906984019567 0.2783291162980497
Ni 2.7285743963556635 3.724937059070453 4.439314336478812 3.8009690183307634 -1.7642524227269616 -1.8364592839085145
Ni 6.132308695919957 1.0113601259922111 10.086531169463274 -1.7965195102907832 0.5708072704029719 -0.7549201111279128
Ni 3.6369084702681973 8.426070059599226 4.899440667916958 2.5712867380516102 -0.5205666290798647 -0.22635735121644887
Ni 6.239492834856638 7.990189154616375 13.185700727067866 0.08445508242128681 0.6236007600549195 -0.15688922912229752
Ni 4.614985001009572 0.36291782087931307 11.886165336470729 0.8281777821714834 1.3639997947485218 -0.682987843763985
Ni 0.7370700364304589 2.4172754437270947 9.503720485309225 1.5694571625875098 -0.3320109220922217 0.73593559960561
Ni 9.110632909223128 4.982030668114201 12.289209640539871 1.1821436112682417 -1.045235196143245 -0.055906581359632744
Ni 4.326999685372432 4.80635149840578 7.338358953734759 -0.5194883084140215 -0.5107370445839526 0.10372755749765361
Ni 8.348861946822584 2.5878137060486743 8.304642583137825 -1.1341295452828082 -0.24204390871377027 -0.6378043052488113
Ni 8.939083475779503 2.825278266373214 5.888005972755125 1.353091118255818 0.06340417528825855 0.8782271334193908
Ni 0.7230922494527438 8.772514296366882 0.30764834137206726 0.1411299094055118 2.007919725976768 -0.5451723434436869
Ni 2.253862630246836 9.15562529905539 2.151807113440373 0.4776366624855581 0.2494502284801704 -0.19014953383732414
Ni 4.997113183168244 8.833798826520681 1.4339068024404427 0.22555208170633415 0.5189992845927449 -0.562023867783387
Ni 4.493238107875974 6.4266728948036365 0.7896745602702612 1.6195039427322562 -0.05746184166189459 -0.9023541083745814
Ni 8.53831005414613 7.2837774485984 4.246547319827585 -0.46550054134365637 0.6777844451861746 1.3054087245781907
P 0.7199906946653147 8.435992766871623 6.430802631068434 -0.650678332998002 -0.4341778199709748 1.5193702732334478
P 7.828288372720482 0.1022719263269754 0.1709219403361122 0.4508380542354752 1.2420276892183835 -0.03400643885243175
P 5.299235994119196 4.941914580141515 12.181879023543454 -0.3242001677985513 -0.19450138304811665 -1.304740237756256
P 1.3539959332067466 4.459009492884909 5.48590196332751 -4.408881678226464 1.2532500402967643 3.719161657944969
P 2.2379484978213933 1.9736926278613838 11.149273908771173 1.090981292030108 -0.5318586570539163 0.2913748937384143
P 7.4013001034931785 5.423902998250099 8.109289047457594 -1.3867175480610119 -2.391659958122481 0.20313848989782432
P 2.043945395349948 6.921069422101418 11.349219295369174 -0.20143770515663373 0.18942936784184797 1.0609392371420632
P 3.3452942788285815 6.331178650053578 4.386990483501858 0.10929656694499887 -1.615443142399321 0.6244217132943182
