# total energy = -340868.04866835097 ev
CRYSTAL
PRIMVEC
9.32952911166246 0.00000000000000 0.00000000000000
0.00000000000000 9.32952911166246 0.00000000000000
0.00000000000000 0.00000000000000 13.65470889817001
PRIMCOORD
 96 1
Ni 5.057901589464057 6.815659512557109 6.28650541382682 -0.7340185850885552 0.7380354195574321 0.04381134075799551
Ni 6.82137851390979 7.560920957997425 4.663738313526951 0.6735012444297885 -0.8848387251986374 0.3226834740437088
Ni 4.297377034377758 8.152497070186968 10.425479172076068 1.88836034365318 -1.1281622719557798 -0.26013856143195196
Ni 0.34102321100278454 3.532206373787976 3.0167890737390706 0.16927808970495364 0.0798234971865464 0.826109586788545
Ni 0.7271397680709059 3.53254223683642 9.19595452318882 1.3064664764187435 0.3563070756354251 1.3989894234498295
Ni 8.924832809143568 3.809153445817917 11.864044049362322 0.3235766752819395 -2.183343009347511 -0.5801755989917492
Ni 4.080698720485375 9.19735768436899 7.327280627205678 -0.39508548195520343 -0.7875443249208373 0.5216950862573531
Ni 4.348344251979226 1.2432530509924211 11.763559422985175 -0.5620230964524384 -1.617156525546002 0.14615024543823862
Ni 8.174477440801843 5.391572198564642 2.4172660686421636 -0.2783345156146884 0.722703160075736 0.8050877331212394
Ni 2.854416082968529 4.511396432469955 7.5194026874921995 -0.9456010919886748 0.7426328091201275 -0.8473396998119149
Ni 9.035453035960446 8.166687283983752 10.285409353628076 -2.8092976143465873 -0.7279896052856559 -1.5580260379324329
Ni 6.786877915211232 5.767486915536258 7.581886275843667 1.2623759138574324 0.8190817334074861 1.039910441496222
Ni 4.719137057462063 8.324841461684663 12.825376456349085 -0.11111125155623444 -0.40369122134634344 0.3619858711877572
Ni 8.055320694836999 3.595451251715918 7.517176661843341 0.7658069332437457 -0.1708076389756026 1.5626766493305668
Ni 0.7418468377811299 7.471506750878175 12.254391547887934 0.17723256866533993 -0.22119046230352876 -0.17135296995611132
Ni 2.8287318892916415 6.493604167215232 11.717597497758442 1.638180693206153 -0.005063016345204184 -0.18565910216613832
Ni 5.968864801666165 3.9547687363768973 8.891523591314074 0.5217177119651725 -0.5185526839736295 -0.6997290677780659
Ni 0.6626559286753677 1.1072844935470998 3.4530303919288112 1.4415411807691108 -0.4865159672530588 -0.4443609311515637
Ni 1.470650993847661 2.2185993436755345 1.1960950801320624 0.9908802755414484 -0.6389260775580803 1.9266798080586691
Ni 8.815108217122543 1.0437504002163298 6.8114061802297226 0.4112847174228852 2.073816842890209 2.0818294287820405
Ni 3.106248062598114 0.2643158225496877 3.2619597695745037 -1.1602308703555502 0.9928276290758061 0.3421485247468559
Ni 1.565121805751828 8.57185007475742 7.493390094390165 -1.0107276492846786 0.41489017538595646 -0.21062040009716632
Ni 6.677955662694823 2.5202043611787834 5.951595843258639 1.591161644144137 0.8697129253007925 -0.6643961968047267
Ni 6.725732181336068 1.4367008373673862 8.025937342862656 -0.6503561737718929 -0.07820781595999433 1.9738724065840718
P 7.95012092444085 4.5638657042603 9.847749014058655 0.10318556895125455 0.6371751563052446 -1.4306649001762393
P 9.095525873986412 0.6230147594297816 8.935873373908272 -0.4668295445677251 -0.47661644875115977 -0.02711125439449524
P 8.425852273504377 1.4327077989025452 4.694174969339331 -1.3440205234131177 1.5542580862495683 -0.25116078341337394
P 7.1748370542812365 7.446727521526262 2.586966471586271 0.732476437412416 -0.8080447588670342 -0.35998992380365097
P 0.9603537393817114 5.769082265016371 3.417186341036474 -0.8270698938192852 -2.7264947228167427 -1.0484339055862009
P 4.5971814527601795 1.5718110781333494 9.173670009924523 0.8754909654351503 -1.5224121453835653 -0.9468100246951113
P 8.044507770582907 8.485794498122615 12.220773522644455 0.042973161127416316 0.5192221992368283 -0.8568054732105052
P 9.259203132928413 2.4872244757273485 13.563400053095421 -2.081994236494679 -1.5973271495249008 -1.1885302315208757
Ni 6.718343194270286 2.818329464318982 3.5293869900868655 0.6585662203865109 -0.13216781511621753 0.5570099595085632
Ni 2.684991834086477 6.943455402490279 5.606309037446433 -0.2405668099476115 -1.7426258455961212 1.1180480663399133
Ni 6.740108985715321 9.376176769078366 10.381115395188187 -0.12211505886590583 0.04173723183778618 -0.10851032359827764
Ni 2.789734457555574 0.3330408658847513 9.764510022266224 0.5700793910980118 3.834761798510492 -1.6049684681202423
Ni 8.209183289141118 7.8665470025528865 7.576342669638507 0.09732551062605174 0.6061545395540141 0.9460883160377384
Ni 3.362791454435046 3.2584500007182577 9.416943079536244 0.38150337239539456 -0.44780363828452563 -0.41840153097332455
Ni 2.0055502166121775 2.0185742392685295 5.303352171173194 -0.34761623272964653 -0.3327786534961817 1.394544243194282
Ni 3.8513042583977146 5.76708574578395 0.5416873881547468 -0.19803382168140732 0.1154582156710205 -2.358562404237564
Ni 6.218448364776996 9.016738000538783 6.406188345234227 0.8255876528468039 0.9933374788326893 -0.6864220662565146
Ni 4.585799427229556 2.277599285852302 6.80916616028718 -1.068510878841734 0.28397345906802063 1.7165669437255404
Ni 6.356198862284899 0.0788774369272139 3.13244444742388 -0.2460034075821505 0.47067617200732487 -0.5909626623049242
Ni 6.743318343733792 4.576619170572071 11.61622470020874 -1.6717485018592695 -1.4112607846180147 0.46033390954105236
Ni 1.780242088280593 7.784456475795553 9.961560872788668 0.5535911636350015 -2.6163774597426617 -0.8690027866076454
Ni 0.4762127527662971 0.8478899976100377 10.999864693902722 0.5627108665480826 0.8217983610077007 1.0147959058167813
Ni 6.917771208813391 6.840830582132207 10.860682113674368 -0.9764589579097958 0.8570924083233045 -0.9820858171782698
Ni 8.65538667852889 3.820731391460132 5.279265192882242 0.5984060059568468 0.2384453927292345 -0.2455411232337513
Ni 0.4420769386564654 5.385162812056824 7.642704543246597 0.0008836881565339619 1.0077233152407161 -0.7585458808059581
Ni 8.87526502091062 4.5253720670968995 0.3828642832156828 0.0438139118611568 -0.5521017235736685 2.3934023947348844
Ni 8.262053730683771 1.667811932813764 1.9140349995343235 -0.5910832470431885 0.9747712857947277 -1.156043828857396
Ni 6.321791558877574 5.181247294005336 5.194633302391678 0.89857201562433 -1.8139888707201404 -0.25599754268038494
Ni 4.421581055598396 6.322388648741476 8.604651766202597 -0.2544307124138973 0.6042598936344625 0.10527253338727031
Ni 5.209898277943485 7.501202642078151 1.5172016123620826 -1.1419958354047623 0.5238432429486076 1.2756160666967904
Ni 1.7642326163047337 4.780432063803202 1.5319627933412228 0.19669093450026773 0.031699130875493794 -0.05210469111503929
Ni 1.1125743365601022 7.7063589875030605 3.7993275857450883 1.0060101892043514 2.4462982142926513 -0.1980801015383105
P 6.590976462676796 3.7710423193485787 1.6597978672967109 0.24794253358639234 -2.7756626999009617 1.8349947835478464
P 2.1700484741170434 8.324095099354787 1.7930813862603003 -0.3861388142848769 0.31198048580390786 -0.6783395463586962
P 4.947169408297698 4.712027956269985 7.190706583320243 0.3494653701232433 -1.0066012858211308 -1.3423122824727594
P 5.541003266535118 1.203891767620539 4.84773528689985 -1.3394611861772092 -1.283472072406099 -0.6996809881489499
P 5.6916191847042725 0.3849746227034096 0.8279714529314484 -0.14776798354731968 0.2860493677604429 -0.733902371225665
P 2.4893422788383748 2.6059334042942672 3.3923623299447683 0.4999168140399971 0.5707800167094622 -1.458287289879198
P 4.382602282920575 5.633179014274913 4.367690896522547 -1.1354657475957284 -0.006099942250150785 -0.48448222465248175
P 1.025119330556778 3.102628205298211 7.183564828776234 -0.7709026025990982 1.0206469652809196 -2.1844480694862316
Ni 4.425303537718657 3.0031847543712393 4.610867871984297 -0.5893369537760431 1.5000497185279649 -1.0003895005834642
Ni 8.961180654608572 8.796085307239807 2.1368801321773145 -0.8669459040786165 -1.2240986155437885 0.4372927114508726
Ni 4.019963485891643 3.508136188649446 12.035492806064168 -0.07117533459324517 1.1111942766428733 -0.4621334246436364
Ni 9.024089669488072 8.773797062163856 5.414297065603568 -0.17359317214053974 -2.254027006126634 -1.6072356668878645
Ni 1.4981544457036244 4.917314915102622 12.751463261868466 0.379078822114302 0.590164591883661 1.1451009566926473
Ni 4.355425364583933 4.370940371516248 2.27188401631127 0.5741777295371016 -1.0166784675514748 0.9033087589783667
Ni 0.8071899268089388 -0.15276357577337613 13.811191413661636 0.719310075233787 1.885940421357778 -0.5016687637340973
Ni 5.249380845193972 2.754832689104706 0.1675238237996039 0.8469476065798188 -0.2266571418450548 0.4621876749203395
Ni 8.20002169154188 2.428187215434087 9.954159757335027 -1.398401155046527 -1.5246855147987741 0.025509714235330258
Ni 3.4006786722054216 0.8090007884118026 0.5846573333915838 -0.5410002143438684 -1.0548372380093836 -0.9225364968597274
Ni 4.701728156117684 5.044737623870853 10.50918277441885 -0.6732078815590858 1.457728589162251 0.7379354036444582
Ni 1.9197931849093235 2.4753293260949363 12.440176991993802 -1.0095554833534486 -1.0222189377537299 -0.894867313079233
Ni 1.9341793188177006 4.699498398657177 4.988788437717457 0.4261171544500274 -1.1857590965336418 0.1528302285615755
Ni 4.3519827683373755 7.900916987843717 4.143999575588058 1.399950758921834 -0.053295626099346925 0.22647485063091966
Ni 7.166337853249764 7.746391996971831 0.4054370789298968 0.8425741601024715 0.9804107434686921 -0.47460276075524066
Ni 6.4653077053837755 5.314006493432187 0.49322608207584073 -0.8419599235572404 1.8556901071136684 -0.7547043955726809
Ni 2.3130794851088248 1.496045972121722 7.610902977323456 0.13832226475338757 0.498428916640561 0.8738179486081015
Ni 0.39589110473077144 5.551666918323234 10.668765303028565 0.5613510100860784 1.6034330053123225 -1.118395936597635
Ni 5.798209054939815 2.6125293813845545 10.651683868156418 0.5753290695327252 -1.3847668520925442 0.7485733429742786
Ni 7.174790406635619 1.2843496267812673 12.836218302143461 0.19173256205372785 -0.4517556809537381 0.18996081486528574
Ni 4.6666304675552235 1.7480925309211464 2.258584772545776 0.8725658213685553 0.8877720967953484 1.526376786458268
Ni 8.05503147943417 6.00036129198697 12.666312649558636 2.313058249158178 2.466464919048513 -0.4060041857502363
Ni 0.6075230763202746 6.931709525323841 0.8833953865951935 0.12392023039544464 -1.1831779660700268 0.902513259660265
Ni 3.1461038110135395 6.458637092060501 2.651676085586597 -0.8293859435469716 0.44984972218027686 0.6852645556133037
P 2.525951351118836 8.978123079496779 5.509128930284813 -0.07127586472685143 2.134464281368937 -0.45754991903801195
P 3.11130466738303 3.4328375590939917 0.31098865789562635 0.7064069940188737 0.41431064873340256 1.265908095380407
P 5.980396099662763 7.937190197075734 8.299318668861611 0.1796614898218067 0.005720190313228858 0.9776210965386969
P 8.230016127673807 6.358811130439468 6.018449383051537 0.245400483890829 -0.42183369658332515 -0.2071455541746884
P 2.342868671600036 6.72226159650214 8.055404660599109 -0.4221872232680019 -1.273675912251284 -0.029474869530665363
P 2.2604982589689984 4.2126089327619916 10.878419414443892 -0.8135703166709537 0.8880880853738706 0.15072629484469527
P 2.585408440222653 8.979335918282828 11.758028878120786 -0.0028459540892273568 -0.41407719256635783 1.9568884704315652
P 5.371140529784261 6.1732934438194444 12.498591972694529 -1.183018557674027 0.5036870797157067 -1.1038977429814603
