# total energy = -381169.9728272091 ev
CRYSTAL
PRIMVEC
9.30761771474951 0.00000000000000 0.00000000000000

0.00000000000000 9.30761771474951 0.00000000000000

0.00000000000000 0.00000000000000 13.62263935395114

PRIMCOORD
 96 1
Ni 2.0970062188736613 4.952117881720957 1.618124645575129 -1.816525006878433 0.21144803820478425 -0.8129496523678194
Ni 1.5277057955385194 8.52918420223871 5.426319584949139 0.5598908806007842 0.39784530408852775 0.7525845210162007
Ni 0.4656489335232429 1.182495570719144 7.367068590759894 1.6210684590058986 -1.8629840696719207 1.2835126958360474
Ni 7.503177604257795 3.3583931553769735 2.1757942701037707 -0.008953866759178126 0.43751511187432396 0.6986450906852678
Ni -0.0647121413108789 8.958051292993446 11.071704185735085 -0.017499442336344057 0.05645062678856084 -1.4082119704893616
Ni 3.4737052283713186 3.146691395730807 0.6991519255993601 0.6119336081296364 -0.5003042792864029 -1.1606090796305752
Ni 8.046789003340423 5.418327133816663 1.1858370053954674 0.1809133599510368 0.2692040140683299 -0.720745779239049
Ni 1.9327640007722648 3.2800509390242905 6.700580817954654 -0.013291832012899688 0.7387553284425923 0.49707008861982144
Ni 6.900937522651042 2.1520514686669094 8.453800877483808 0.7887031211156288 -0.12750229131974813 -0.18567118635099636
Ni 5.632253414041219 4.6088250261030375 0.49435455660193023 1.5167246080804846 -1.4118865911274718 1.083394480821786
Ni 5.257593887506281 3.56406357889429 11.949670335366905 -0.08705523904829522 -0.21012366296640583 0.5313405797669172
Ni 8.497668609441968 8.34227793556671 7.065109002859569 1.1515050604467783 0.3431839079899057 1.2572671318759572
Ni 6.645973956944845 8.362577849296684 3.5573890863973774 -0.4351448118699344 -0.6036873089604441 -0.10916184113934747
Ni 2.9084350034062263 5.577729390827007 8.037356663783358 -0.384787442463305 -0.33184817126211236 0.03118285336070759
Ni 8.35377284315796 1.3949047092940035 1.463221690855969 -0.9386349450834867 -0.6563614994257083 0.4668300587883573
Ni 4.136137672239305 2.222780053918667 2.8277602981123544 0.3429499376022287 -1.0106937107229497 -0.8691287706625482
Ni 3.7201244012283095 5.530456001631892 13.535658570059189 -2.5843386861395623 -0.6494837984692686 0.33571691018889926
Ni 5.360927056800269 6.099244506005481 7.192985428693938 0.5240679573649039 -0.3113065996653348 -0.5848922877411281
Ni 0.4748374135022579 5.245391600986337 7.9986546595281505 -0.40971017384691366 -0.3532947711716625 -0.14513157436573715
Ni 0.3374951406878866 0.6301908569075854 3.167086247159107 0.7170493042240682 -0.9311658903999511 0.36975754471337613
Ni 5.748784784925809 2.4008999296869105 6.2505984661784515 0.25989353530068143 -0.4982139724162774 -0.27903385567455813
Ni 7.308909012156902 4.5685044271675705 8.038814236681166 0.40386914168510446 0.9457658997013132 0.22583695993660463
Ni 1.7807240691908122 8.453289889284003 12.399693640660033 0.8781780253490102 -0.6413781386429986 -0.3667971765334715
Ni 4.646213725531424 1.45360785275799 12.559242027264855 -0.2793881536901833 -0.4894616801449441 -0.051300450046189064
P 7.567595624856218 2.658972239632361 4.821065696801457 -0.20944257773898123 1.421075199605275 -0.6455955191584559
Ni 2.3468692101992867 4.008530236550189 3.8235748465025807 -0.45159395856489326 0.6324091023751689 0.7414758126975489
P 6.996294063762274 4.88575456906863 12.499247917256003 0.937671552728953 0.7723640176359731 -0.04205219197504371
Ni 4.071570729761157 7.566925476397456 5.826443822155255 -0.46464770642505787 -0.6526056319277019 0.7716729051062194
P 0.3544238353655937 3.7950972600522217 2.6728843354838943 -0.021799098152962458 0.8816752398689913 -0.0007718451690180255
P 6.601260162557499 0.17880584717672546 6.729937974257136 -0.033678623199367805 1.0334227768893494 0.1707582737949059
P 5.401256963353218 2.796110675623859 9.831526517189817 -1.040423890797531 1.2559900649357465 0.48902922059321585
Ni 6.6899338343160855 4.6289760179532875 10.314162783380908 -1.097549175055613 0.028378036922060805 0.13274142823150042
Ni 7.413154327964204 5.743646980075305 3.425316786601765 0.03202154721191905 0.18321218328754252 1.483762551332167
Ni 4.876958870547388 3.9997624608813958 7.912560128574047 0.714595186256621 -0.15678304256173642 0.8209966910420118
Ni 3.3365202542924064 2.3604862545766157 8.256081951582043 0.0658346391066221 0.3763159146571841 1.2919101758711236
Ni 5.63958781661766 3.679645572795635 3.801888097767669 0.7605346291012127 0.06803113253730864 0.6050196546186225
Ni 5.084984121287851 0.19432443780578917 5.077593873006513 -0.24361510985563203 0.2961085517686578 0.3402646774605817
Ni 1.5793165344806162 3.1252745679028964 9.639325146931853 0.02465996464052527 -0.6148068159123734 -0.9224287676372694
Ni 4.928029767675484 0.7755795650358327 9.369174341778981 1.466730792660861 2.61062693041213 1.2074766907163914
Ni 1.8972554400754027 2.2266985608789236 2.301150193123799 -0.11960874750428432 -0.869481783126593 1.2358814671113296
Ni 1.9333317654387154 5.724882823229993 5.950478063492726 -0.8360535853751343 0.6057328786355631 -0.5283881820068126
Ni 7.582497120446172 9.212279556918501 9.24689737862226 -0.14317265086715342 -0.5211476983943154 -0.09130038747789436
Ni 2.2400270691142854 7.7764306383176836 1.6581753236035948 0.3695490282469958 -0.7847757610367646 0.7440646564706477
Ni 6.376183356588556 1.2930700664147459 3.489875352224178 0.5646391939190469 1.6484545643283348 -0.7508253722332489
Ni 3.5831721175864675 2.2951840103173273 4.969157337046709 -0.5766783844717681 -2.013382548863552 1.0923555466698154
Ni 4.536346608764514 6.525114543930755 9.283297609073973 0.39866805710013925 0.4689234509822763 0.2842465102237492
Ni 3.373471495699101 8.6728193552332 9.421240223215985 -2.437138402170254 -1.6957353516921696 -1.2370891142661857
Ni 0.15899086031760368 1.84839044829073 11.766118534035702 1.9125099443161901 1.283005674292642 -0.0831942134309922
Ni 7.284765052406533 1.6781355092954484 11.019870063973402 -0.8897204787709709 2.353753412884695 -1.7361299534591328
Ni 3.9393653310355403 4.616131505827031 10.409072558852968 -1.0699059594170477 -0.6683562098937392 -0.8129113429307161
Ni -0.18269643128453367 4.326450526910009 12.769643512748676 1.0086291148844373 1.400636215024633 -0.6532890311479717
Ni 0.8582209699038192 2.5838690741636903 0.4060839046803495 -0.6945752914912683 0.8523050142369902 -1.148423336197661
Ni 1.4594716517721509 5.3586373828995 10.420269622684769 -0.4178243183136159 -0.2791806656650676 0.7075315945416202
Ni 8.19511519554624 0.7035488440982324 5.277737433262546 0.03322379505013633 0.3058131806509314 0.3776922261794205
Ni 3.946346044147637 4.338243278260711 5.7061689275190846 0.8402714801112238 1.67436511354651 0.3708286662903678
Ni 2.768094747000647 1.244447072684626 10.736124552725157 0.026738701546424923 0.06041732474579272 -0.018456406932974668
P 1.735842737688776 6.036027168062338 12.709868131750671 -0.6617857557650731 -0.17831448887560905 -0.4693350845983981
Ni 2.272715421713861 3.411735111170871 12.02853098601338 0.08260594502769 0.6333979486509994 0.009019429889790917
P 2.8195472564455364 0.2650855997187364 3.7253422515891645 -0.8138143143609597 0.45973792782826634 0.24725476349074835
Ni 8.723964713301157 6.720295282544962 11.471787469424276 0.709072713776495 -1.1729521745769604 0.12084956188992091
P 6.937116231806665 9.114903262813502 11.54904162529322 -1.6355288574056026 -3.419811202200246 -0.5153768573488092
P 6.365358597456066 8.865403268569706 1.225030451853768 -0.6817210612364194 0.5456914491719506 0.30733013151609007
P 5.083131905408775 6.470618443568992 3.9454571666780294 -0.2226163961167779 6.813423377407621e-05 0.589582751238262
Ni 3.3353940325769877 0.4324067776834414 0.810715821033383 1.2475439910509223 1.3457151375067211 1.5218863547870822
Ni 0.25850790644364535 4.075973232830519 5.146360412492897 -0.9791215923436235 1.0660040532594803 -1.526415095895371
Ni 6.802509467770488 7.450124184605865 5.698690256871659 -2.4543000015512053 -0.4953903869245532 -0.24412470250219892
Ni 4.163390376228928 7.760058539165448 13.770580973801431 1.3318959722354418 -0.05747932516339133 -0.41606336975845115
Ni 1.1079974003868547 1.737974182092336 5.173319926531812 0.6841720938800734 -0.0806706756781901 -0.9727902508089569
Ni 8.149182103268648 7.864452776852474 1.9457350964962876 -0.002957797076743293 0.6061303711842981 0.10069519842923305
Ni 6.8783479350203 4.540320961429668 5.685435278814411 0.2196403442075895 1.0326439897417956 0.4308384711850967
Ni 1.0505973233704595 0.19361240506835536 0.6779649959232743 -1.132676100665733 0.6335540146128895 1.0350610838237204
Ni 8.781243791290276 8.009726070523934 4.302260959833974 0.7521762298341884 -0.5699991726793796 -1.1446697826924996
Ni 6.533863704364582 6.995353994396512 10.19553719856269 1.3215172001042788 1.526852697653422 -0.09426615497443765
Ni 3.069177557334092 6.9489741364797455 10.984601639807595 -0.6960588180153302 -0.590216528167519 1.2276408243690922
Ni 8.309747812464341 0.2593474535405934 13.100264977925518 -0.05717722054194024 0.29882029427286605 0.8678221360359828
Ni 4.693496422344022 8.615316894424494 11.358924230589654 1.2061348319765164 0.035867403320570486 0.48168640707489946
Ni 7.1728316445584435 7.5175299504162645 13.125617066425153 -1.2620216158418072 -0.887377175349775 0.6480141559022775
Ni 5.196256688294663 6.246183863206361 12.038761919150469 1.1161670472671164 -0.21491311393524923 -0.7670701162268854
Ni 5.80107497994415 6.518831902129868 1.9254100521991087 -0.01790310553266594 0.8883909613262699 -1.235576534276401
Ni 0.6317601212151845 6.331041411797002 2.9094411568561167 -0.6152112504396438 -0.6230202049611012 0.13770211467088542
Ni 8.775305531336253 3.7675932503905627 10.365766076229018 0.34894883549814093 -0.2235257953049247 -0.43532581753248895
Ni 1.110808300866659 7.516059346853983 9.39238753978107 0.2893100407895856 0.2999392383686576 -0.637183898055993
Ni 8.60478067143397 2.873968895867437 6.853208990961019 -1.2396478761322973 1.3169030983710353 -0.3885479379470018
Ni 2.7337403308716515 6.926272857439209 3.9889535246986263 0.5537762830626141 -0.3762920033977842 -1.1679873743725173
Ni 3.640069583258792 0.5653549242841853 7.0526851950435345 -0.4920278982102235 -1.5403751576198892 -0.65017439677839
Ni 7.431229721115791 2.7228690336517474 13.071521193615151 -0.19336932632620246 0.11328666194099844 1.2584670657213297
Ni 5.429877887112812 8.414551585320611 8.048146053969415 0.36488890376716515 -1.6627468125812912 -0.8217029730804171
Ni 4.504989245464979 8.551680713694626 2.7416108522151026 -1.021227777485054 0.13495411961210307 -0.5175571528295796
P 8.701710199899795 6.629369167355539 5.798203579950708 1.6836874193887004 -3.343668496299396 0.5026367840743216
Ni 4.16526120734297 4.7969971287526985 2.4418441389937247 0.5912228579448463 0.6974292160002956 0.5155853738151894
P 2.385495822752885 7.862991480907675 7.539163645731524 0.3935446198306448 -0.03962687036300272 -0.5838396781068976
Ni 5.726260350617445 1.8472828418102778 1.0649310542939634 0.3254818627244524 -0.5913966645185492 0.026545868809328476
P 9.201696795840565 1.522325992633464 9.442505336878927 -0.3625903375409756 0.5670298056384104 0.8168662138134061
P 2.3678299647705403 1.3320596760501733 12.841475981433891 -0.47336888834813956 0.897286464043687 -0.5423749832042079
P 8.51712152998101 6.564653302997668 9.274783000600713 -0.9518882105489671 -0.7192635382665677 -0.30737384026983194
Ni 0.24551912624640523 7.226499366964237 0.46848217228500566 1.7549609701227067 -1.079895980750224 -2.444086294242997
