# total energy = -340860.83148852026 ev
CRYSTAL
PRIMVEC
9.33474597063308 0.00000000000000 0.00000000000000
0.00000000000000 9.33474597063308 0.00000000000000
0.00000000000000 0.00000000000000 13.66234429860678
PRIMCOORD
 96 1
Ni 2.7557756367806654 6.7709671662353195 8.787947150867515 0.329921900773677 -0.1216409474429647 -0.27078421407125625
Ni 4.247262643604599 6.315814298094974 5.739086634750193 -1.352117441488639 0.5656658354113484 0.09101499502699163
Ni 3.90626438127012 2.594144514078188 4.440890474322512 -2.0693287252118684 1.2314131469273308 -0.7654834884660559
Ni 1.544685722866753 2.3541388660387197 6.279035399830593 -0.064286835003528 -0.9511726725391813 -0.9693866244440468
Ni 3.7439798263649764 2.898289200182266 8.60450352776545 -0.3567716739766694 0.513226900885342 0.4240466450742439
Ni 7.603010394128049 6.292561446425792 2.559408058184428 0.21400654296057983 2.0618686693893973 -0.4653221067842631
Ni 9.369190964207299 6.965260564325378 9.76234618495863 0.9305061453287653 -0.90229908676693 1.2846514374261813
Ni 3.9726064193322923 5.423982023658245 13.729289214042952 1.6592683671143877 -0.4417245219699812 -2.5829340924825517
Ni 2.5904759589975024 0.25543878319187974 11.992613908337828 -0.8748211930616353 -2.390469537358806 -1.2961998043854128
Ni 6.283273374402174 3.2113672379713734 8.09467892070256 0.6168325880931507 -0.943732157100736 1.3775914173900274
Ni 8.883177426609581 3.4371280639927075 13.496961394384819 -0.03198632309860943 -0.523518255509021 0.5144278631719786
Ni 3.0049293356574673 4.962686892812832 3.6652785849266523 1.8636484427287967 0.42188614708781536 -0.14712983574268854
Ni 9.349401303212252 1.0698458759346354 9.912576782673725 -0.28535002770057305 -0.09820302813499862 0.7538073376797083
Ni 6.319230815040345 4.304979376591571 0.701062742868195 -0.5280104869524197 1.2001030239601396 -1.023731003522882
Ni 1.395563159472466 9.28337664650566 2.32498925547776 -0.2818065333236888 -0.24448182873130153 2.0385942722424892
Ni 8.678634477683408 5.0285901978246415 8.220345134970263 -1.0952308113350817 1.606189742121853 1.0102828484377764
Ni 7.586870618722182 4.202913266535036 6.363523250160818 -1.2724857485979246 0.74954419152798 -0.02789312686584228
Ni 5.9075218536315806 8.677644994633656 11.581022564725544 -0.06269532214669202 -0.7241877150410625 -1.3969230278391038
Ni 8.187216122295062 8.638588418405694 8.462947709278042 1.4503181556307925 -1.4515515138172614 -1.6849372326354013
Ni -0.002692140674986684 1.8478689301583355 3.062577925000446 0.4010396426561093 -0.02549531605762706 -0.05863683580660224
Ni 5.79696112494038 4.251752656311494 12.064546525631103 -0.2390076929906077 -0.26994372044783194 -0.4249149066118101
Ni 5.737078730938856 7.084623958261074 9.337801948140342 -1.6318202982057637 1.7415644942111426 -0.4702429411246482
Ni 0.3712456389959186 5.645467536124989 1.143050819073958 -0.7348251401502506 -1.648207995535168 0.49410175002011675
Ni 6.84945370852134 0.5616081756496494 9.826053024294906 -1.240163125205819 0.9921743117625237 -0.2169949361649424
P 0.6416890925101756 7.183385568321265 7.743530055836941 1.443002852916302 0.7174195430792936 -1.211178822158327
P 0.20189188113249654 3.9968954277799877 5.822276021946262 0.8090204925167422 -1.1634169813930157 -0.1307341679934845
P 3.1938085812111443 7.503828720509 4.211622584322008 0.1449246005612536 0.08408870022080357 0.5782776106380879
P 7.9881246648882795 4.3250024062304275 2.0641344528003485 3.4244492151928894 2.4004402754182723 0.1380474138254461
P 2.243158073788662 1.8371339725430975 3.224954893888539 0.017858625447975694 0.49603367693550704 -0.6170606449435567
P -0.0749692100865224 8.584932299821007 4.291233029996614 0.359070240202859 0.15392449006701878 0.25271270128152606
P 2.1839011077525474 9.07609861707404 0.41719219106371314 0.7299701260507945 0.3881231917047574 -0.9718230017996812
P 8.172849948582147 7.679303271162259 14.085466706445379 2.4318964370450247 0.05998537941469669 1.0637155143356196
Ni 6.348485908228308 7.235454780128046 13.33152356236452 -1.692655941435898 -2.4146129673742287 0.9257277501035155
Ni 0.9352201726937964 4.421561016293057 3.034447668675646 -1.477102365703172 -0.9390213818886279 0.5866167266314026
Ni 6.821290780586406 4.334281143508294 3.8706513927502115 -1.395171849475952 -2.7181103554077897 -1.18812348300076
Ni 0.3652228610364824 1.2813058714633225 0.7039957199835931 -0.8426633773821681 -0.39528345689862243 0.008657418564681864
Ni 4.197900508066009 0.5279013422123767 3.0911459809010333 -0.49574854159492043 -0.6088241159663773 0.5884702349003736
Ni 4.366682046014809 8.594603096420474 13.207333171400268 -0.9409939322339664 0.02862820525965392 1.7888851336739773
Ni 0.12491570070921222 2.895684806117352 8.016913020788623 -0.9973640834935792 -2.8635504621528813 -1.2163104869579375
Ni 9.14804150258764 8.537726490551217 11.93900353000733 -1.599111238008517 1.469881679585017 -0.878949613407712
Ni 8.017025037737652 2.4144693278363585 4.895039857294477 -0.035687426099280474 -0.12105525014282377 0.25653361768951305
Ni 7.240803589444161 2.584296357309426 1.8037575891054591 0.7435198397107711 -3.2086007339275646 -0.45234754890146617
Ni 6.412680954767432 6.106603976292611 4.980183940251095 0.5535477119915757 0.4959190057345137 1.5070325776037012
Ni 8.696071782748856 5.466119065984492 4.526634781431008 0.8232767453254402 0.4489997154751557 -0.3987079091991391
Ni 2.5764178318944166 8.309986698430377 6.594294034227455 -0.9240537048352021 -1.430384135711027 1.4749351828485244
Ni 1.2205833503440842 4.9458190072382795 12.488133951009772 -0.44910358804287165 -0.725226440718222 0.06792494597674754
Ni 8.30956663487152 3.1565256066761345 9.99308896478801 -0.9416346511417589 0.3820469036036904 -0.14765768322170053
Ni 7.4508540383642385 1.6918759938902965 11.674991716316462 -1.2847406547058775 0.5042684061404735 1.6057148593679638
Ni 1.5775346931693817 3.0944962211515628 10.445108158779282 -0.21451330739366928 -0.05876256275118912 1.3881116001950609
Ni 1.724370243854335 8.795449486028705 9.751088481581258 0.7643555455091998 0.47099293191679525 -1.4367334749678224
Ni 1.2390848164253032 6.593037577449185 5.450619654137239 -0.18204644511421553 1.6208239470952603 0.5458107483586342
Ni 4.672254948219002 9.039982485758078 5.821661795675756 0.48975118636090487 -0.1915844665116378 -1.2830432123987967
Ni 3.631402792591261 1.5571196042089244 6.644831414256272 0.19873084774843192 -0.017741897364453314 0.5726594931203621
Ni 2.5326098700784923 0.19288105105772313 4.717511662575696 -1.4390325554146444 1.0099720020655767 -0.40332046827048607
Ni 6.815092509406825 0.1861310964041764 13.456985345700247 1.105445032863922 0.6717292401310303 1.2492344913794677
Ni 5.2436160662307385 4.1959588809495125 6.259511779089488 -1.4691188332770633 -0.17656331051245722 -0.5636866001977905
P 9.418198379407299 1.5638499558963912 12.233235649596956 0.37960589826236557 0.21165681178148066 -0.662325430318627
P 3.6495121993508803 5.0203196130880325 7.68060080082184 -0.4953487350533404 -0.33240224399336943 0.36064118423440467
P 7.731111110087974 1.2667530028353604 7.897900613293217 1.0198021007821212 1.5252868958281989 -0.5719048743425248
P 9.263530977036098 4.879822354768946 10.619125555620593 1.3446566143352197 0.6040403214244887 1.0553535155241696
P 1.7269092946989826 7.5930408856645055 11.463198470364416 1.150107151657987 -1.5267004883462738 -0.2474961900775931
P 6.192278272807964 2.8512700858275233 10.275735731424357 -1.519176926275719 0.46937673646961103 -0.22966944630881736
P 5.764588226671123 2.1149826798627185 -0.07181966686966904 0.8238223334162651 0.7648525397502763 1.6793437977080239
P 7.495716826450182 7.8533402709696505 10.388436917316577 0.18637541150687256 0.07023431083621452 0.28166795086329555
Ni 5.6351713115601125 0.6608747954550442 7.770144349451555 1.9135581830750463 1.7926998794343771 -0.13747817158553743
Ni 6.176801264350516 0.7899575266681195 2.0821001044753813 -1.0384274291927922 -1.9088481791938867 0.1960674419836559
Ni 0.9401022447222918 7.230974102166904 13.452668025789771 1.0178760874040018 0.8418200555452664 -0.01518544949118675
Ni 3.0766575220187624 5.652860654760874 11.315043920104651 -0.8406036666396619 1.3468873034379514 -1.5425454257983304
Ni 1.449041917887857 4.497471168751419 8.663879978547195 3.148619725388242 1.9318179006161826 -0.2011649111112213
Ni 7.017423123589683 0.2168302747600319 4.788651759954591 0.7785475207388657 1.4905811169158973 -0.2243644891561362
Ni 2.017910658783708 3.0512483440807814 1.3949937399815708 -0.735249886392495 0.8357843908741478 0.5530661443694669
Ni 6.723509318830215 8.01783716061811 6.445346964053313 -3.092440864203829 1.4521757776648216 0.9837107543762026
Ni 5.701849400469371 7.932526919187099 3.977722793479172 -1.0247453037200094 0.2383808580398862 -0.8383197557014918
Ni 2.0142887774317844 2.097087972255404 12.905573512835923 0.6577277836456157 2.5791998222510997 0.07673097430415173
Ni 7.245601648760885 5.611302366671274 10.237208435280552 0.567334738473339 -0.6231706144960364 0.6639601377085727
Ni 2.2149484721249664 4.595233961016105 5.756819851255991 1.5428228478294332 -0.6863130514824761 1.659855092855793
Ni 8.089359982572851 5.48653415494495 12.691634208835403 0.02827930656066743 0.7806766512667265 -0.09402832793201871
Ni 1.33190952818698 6.912519250824426 3.0760087571889723 -0.7933120806425498 -0.3177870651833559 0.031586259446713345
Ni 4.300732067274237 3.7718907161645956 1.7757356158313866 0.016564075006268247 0.46016318829114294 0.9362589886521423
Ni 3.8490890635367867 1.6448568795355534 1.0370473132590694 0.3159618390491591 -1.2343033239909325 -1.0763512008217593
Ni 5.005019964799879 4.8135456599270405 9.779792824769832 -1.0178467768279633 -0.2788767612714036 -0.4568014709077617
Ni 4.419591384939305 1.7235487862281254 11.951941487620129 0.73068103607489 1.503210889864766 0.6580422295622409
Ni 0.43755407197338186 9.414371133648821 6.2173224621870276 -0.9666939081032319 -0.26130481382591125 0.17997824973127713
Ni 8.285763033202949 6.735224424749453 6.487249704261177 2.662103758135183 -1.4919607708722435 0.17833145815647353
Ni 3.236281674384478 7.750555385490183 1.8452225297375358 1.7598884893313111 0.4939634246700396 0.04006267234884068
Ni 8.170973664685919 8.877697930852934 2.500099751046675 -0.03605715073387338 -0.027784112091803762 -0.8728756392994902
Ni 4.283696156276141 0.32362443354014686 10.239066049685277 -0.5355972981607421 -0.8377050049356283 -2.481111722427411
Ni 5.274150019586777 6.042885001786858 2.596705968312641 -1.4612628275677546 -1.6895364219703097 -0.08338550350619188
P 2.8595686748013898 5.670792701351198 1.6535531286784717 -2.5510459855247034 -1.1332324873898354 1.910646151634574
P 5.672631646264417 2.197455158585005 5.303039190741245 2.640925581395671 -1.0407992718590786 0.9974931528722756
P 3.255417903176859 3.6362568603824994 11.802817057276693 -0.06876106872479772 -0.8716821332120214 0.4713392595126205
P 5.664659773391884 7.923537559027555 1.8357542971208958 -0.09102039434363034 1.530505721024977 -1.6654251307444028
P 4.932610341998661 6.361713242959432 11.851673249595505 1.4828976322287106 0.8621114588044507 -0.8524909049955511
P 4.062584033639493 8.8228749690492 8.00016275301055 -1.7561950996401239 -1.8250320159081794 1.397929100506115
P 6.579343505430442 5.861464218089333 7.744281502870009 0.025678378602710616 -0.7410171278935753 -0.7988813472002113
P 1.8648675021734216 1.5969883033173438 8.878104925767737 0.8270374979194531 0.3254834053863491 -1.1466549314433283
