# total energy = -340897.4020222844 ev
CRYSTAL
PRIMVEC
9.01928023715779 0.00000000000000 0.00000000000000
0.00000000000000 9.01928023715779 0.00000000000000
0.00000000000000 0.00000000000000 13.20062830990438
PRIMCOORD
 96 1
Ni 6.454043393501195 1.9058820815580086 11.279092089799223 -0.5601402776074289 0.01950053192677287 0.9718823942827068
Ni 4.475529050629174 0.3274142924769356 5.843944123527403 0.1760498612111484 -0.35158730156225254 0.28979572217675253
Ni 2.6951141722425582 1.6587718499075281 4.871533163153396 0.23362097475739765 -0.9517066906657803 -1.295522318702414
Ni 3.304068895592638 4.245050371178251 4.491209970723616 0.2965047587658119 0.5482828640482106 0.2172314776557807
Ni 5.024667909452427 4.426779842582205 2.6056717769862807 0.3986960821245972 0.6300431732461537 -0.2708906577421335
Ni 7.178589208494188 6.107504619850754 2.6782354917727895 0.4467553995256693 -0.2934240629579592 -0.9297790373547535
Ni 5.1496029751076735 4.609961418055643 11.418305577519067 -0.31356608512347284 -0.0815574491585176 -0.11862632898635701
Ni 5.7953834184310695 7.759268489249033 12.383601227952601 -0.8446719231717648 0.9604659249156491 0.03847938702212083
Ni 1.8272700376473001 6.635213669549199 0.4700533027159743 0.21161978789595812 -0.4726677485160569 -0.370625034919994
Ni 2.5415789699144273 1.491933209675738 0.2620163955985331 0.49251846469339694 -0.4203640540163341 0.5187771412796097
Ni 0.44820139129022113 9.143565612184247 4.733018669628488 0.3214917677284527 -0.16284338982320343 -0.050862076957189827
Ni 8.676754740604792 2.3158263931492793 1.2657567267536598 -0.3665814609782396 0.4435626036199845 0.29807981656241567
Ni 6.6921794416166644 0.7655384422961339 4.882423943674527 0.0880469135376032 -0.048690780337483884 -1.3091738480475776
Ni 0.8202403750999941 7.569629109342361 2.6925977931407816 -0.11967559618647776 -1.0156541400520187 0.4373827000615177
Ni 7.619036724824562 3.9376642917242752 3.9573894569414296 0.1333232688768994 -0.9481791371284961 -1.3498062768569592
Ni 7.548460859335657 3.882935301080611 12.486500388871429 0.5983101038089308 -0.692427134800014 0.23204463140921325
Ni 7.914400104125603 8.905799354546101 6.816764559210445 0.12917736502932592 0.025557536754130177 0.532186215596664
Ni 6.729302797827825 0.7567807214795554 0.38099242300093417 0.4206121654713981 -0.10741811897536338 -0.3273263721323588
Ni 1.8910183082256486 6.513399274751352 9.303353881291095 0.4245433822050043 0.4862118057490788 -0.23054207872175778
Ni 0.08972650257421981 4.795731526870335 1.426934866898442 -0.26175784220292986 -0.3030433312152781 -0.07787614365218846
Ni 6.141579459443991 1.930152963862244 6.909737100633158 0.9189935167034754 0.9374607222697275 0.4156838749318454
Ni 3.4295811951637045 4.4015619358848275 0.5064100201326867 -0.5521621444979586 0.48192860499269263 0.14352694888277862
Ni 6.050439635704008 5.483054773572887 4.681774728751586 -1.2233740786729383 1.6499782000617131 1.386722433157018
Ni 5.1000690897063885 2.8005044582793444 9.457496983086825 -0.1473956878095655 -0.5698335936357928 -0.9415235794851914
P 0.29257191216125666 5.524381114233611 12.32984812339787 -0.10133103224101903 -1.0687957570720046 0.3887906500854272
P 4.086987490322908 6.222410246218632 12.51812919974638 -0.5199066268983626 -0.4393873891963723 0.4694345862907399
P 2.3621313763339487 8.484193113999284 1.5422553801433154 0.7686917109907084 0.6497995299374745 -1.0703631015591244
P 6.278591340931781 7.710185567844481 5.771724043306406 0.13189244996764382 -0.07696571602277713 -0.5616436016258327
P 4.683847359280576 1.0921806844106605 12.561413626080922 0.5802347343644587 -0.4632739660059828 -0.03250234350307951
P 4.009051892407301 6.251506443287925 8.161551824463784 -0.4861367295367693 0.1537144309387417 -0.12259456960548565
P 4.6487082446550465 1.1465489038569376 3.7590500796097617 0.798272767081935 -0.6987427926053966 0.46077716772605803
P 0.09773652508421293 5.585252234512795 3.635756522902627 1.0559842071296328 -0.7937337415610007 -0.706241672085603
Ni 1.4216098840250047 1.2270640158338642 2.539167214459893 -0.009225889473642175 -1.0543435862024164 0.3497677318550105
Ni 1.7279587462864914 6.374790980715123 4.898079609785153 0.47109294782976935 0.5239265466910331 -0.035359096225584266
Ni 5.994123251791838 5.708663041859079 8.947807552769886 0.18546884053220314 -0.4671208505558988 1.3650629459057135
Ni 8.625579346255394 2.2138273563679345 10.246895028522172 -0.16003548806076306 1.1820860185574287 -0.8904830679686084
Ni 2.435764777720711 5.149007702631985 7.003566473649666 -0.45113475954028753 0.5093036545715358 -0.08654384662951546
Ni 0.5416672873253611 0.10884737603575052 9.183597686174345 -0.12052560289159889 -1.1309760872554908 -0.20041466320875806
Ni 1.3031867384825997 1.0592152162493893 11.35651358875855 0.8115327174156346 -0.4369142450655314 0.4582392317955527
Ni 4.16608657535009 6.779422936424865 1.4745494495296276 0.005363578304758504 1.041831569778335 0.52017710695093
Ni 5.740825794106165 7.981142775642266 7.853489299014706 -0.5872751861510079 -0.27946374412312514 0.42868414384625525
Ni 5.324089964724076 3.1256134228049746 4.80419702301703 0.23683331104710825 -1.243554667385871 0.13264089809789414
Ni 0.7106209487018347 7.35881246014905 7.031908658916418 0.7452381079534586 0.19632995161642317 0.1008479219570134
Ni 4.943052445323469 4.629091310797109 7.057187896717351 0.523362189547131 -0.7070747095098597 -0.9812214122954456
Ni 8.124666577242898 6.935339228655753 9.188429314435355 0.9909610081807126 1.330914582158779 1.063316222014672
Ni 4.59118327723163 0.29304722821381446 10.368419904434115 -0.057444615270713976 -0.19204417975687568 0.10954107885563714
Ni 8.186710203913591 6.991547381208706 4.930698737596932 -0.08436535092095793 1.2045284067213449 -0.3566618878716825
Ni 7.498899916094567 6.14864155563285 7.109990369166966 -1.1537444913002581 -0.3069537220132778 -1.0594374557855561
Ni 2.194192383950127 5.392374933109571 2.6463559449156544 0.023862922660526645 -0.3898602290005221 -0.5641038902408672
Ni 2.3674527514954122 5.194546047022206 11.535474141222556 -0.2816270703230311 0.015073863613986941 -0.29532616507667847
Ni 1.04891519856398 3.286535415399612 3.729018583211243 -0.30719437726917415 0.7422432869911927 -0.026612974601838042
Ni 3.6853138584317433 2.536843847948718 2.474602699047455 -0.7276260512986501 0.33477125844617833 -0.17568862121698775
Ni 1.1913657058523837 3.3792716516880357 8.147810049555298 -0.13152761042905733 -0.3909655462495589 0.2829342191702288
Ni 3.5389489836516863 2.63822055441457 7.2815055060448906 0.3112346087768188 0.5257232335801398 -0.3563875511643733
Ni 4.115632723395466 6.846796957536958 5.927927148639216 0.20463770015117014 -0.22089838498440664 -0.5764176746112137
Ni 0.7836518621889604 7.420278852903924 11.409157321881317 0.09369254185915478 -0.5605933059844475 -0.045260157389380114
P 0.3767091669599526 5.476227178662331 8.105621465732819 0.07112494097128395 -0.2965916620526634 -0.7703760406716669
P 8.593380516888573 1.6727517338062887 7.972479757265003 -0.23898763838594975 -0.4422888791138834 0.09773174492553491
P 1.8959247965101171 3.13532718729463 10.433221626908836 -0.5281382707795356 0.5051976028229622 -0.6695147489782147
P 4.078770926302411 6.13920738882117 3.6233081127367757 -0.22997720735722327 0.29182020880594906 0.7433745723821584
P 6.771549105041886 3.9177857987482314 10.202765495657749 1.4059401437360497 0.15442894050726308 0.4307199433293615
P 6.35160241200305 7.643262510729123 10.19987391451069 -0.4391207657985469 0.524987898076012 -0.4393138556459595
P 2.3343429748551863 8.397400583187817 5.759446999459313 -0.6663229815137943 0.18452164612758543 0.035525446600119456
P 6.832321013241788 4.028813134744195 1.4936116976715827 1.310556844438033 -0.5845014800606126 0.3270299239378626
Ni 5.271796179662776 3.0269334810395936 0.2700092814766504 0.5963138993145085 -0.6364519049859749 0.27923748704493195
Ni 1.543676818661022 1.0622637328673128 7.020621932006154 -0.5695808541950383 0.21985117466681492 -0.3440647679329623
Ni 6.8543100177225496 0.7081379409358161 9.166462858154432 0.11426290981133871 -0.09102476521900453 -0.3298468245613674
Ni 2.652227496153134 1.5201545365913651 9.222473488476814 0.4660569280677586 -0.7696293923136294 0.4156540501351745
Ni 6.338948362254688 1.947695463335205 2.4308691125721644 0.17693329225736626 1.0268464092234122 0.8606119914407888
Ni 4.231882222473612 6.818178782304203 10.355100231826574 -0.3868080724377596 0.503511730480107 0.1370110021411318
Ni 8.310373551098047 6.95071710094439 0.43453447640519405 -0.721413494730035 -0.47695969102319147 0.3109618147314064
Ni 7.7016713675861395 3.741729454423193 8.149235997712971 -0.02989344512532271 -0.10264692283896515 0.37142876176821193
Ni 3.3140442192003987 8.328790920724673 12.484335761687104 -0.37553429929615323 -0.0038759380156384864 0.036053551189447586
Ni 9.073756385489792 4.691820402742837 10.167136634131765 0.053766652198494504 0.047119579195622076 0.671350773745689
Ni 8.548581753452995 2.2057821586661963 5.7182352036537605 0.2272911758846279 0.6892183980547292 0.6086528804958355
Ni 3.696380514911601 2.755173557327621 11.623839634454633 -0.74471334579824 0.012637486258352428 -0.7503327488675465
Ni 1.0182496467860533 3.2439463755480324 12.438066855622173 -0.32347177427295903 0.6883244254855501 0.6968206358820193
Ni 3.2069492892559572 8.366329163812829 7.787974151497153 -0.36474157955602343 -0.3744840036547679 1.3040370410416444
Ni 5.677312024806118 7.889678257824634 3.5469427714577972 -0.720831654084636 -0.006345225491737458 -0.05127036813920202
Ni 3.0946682733490727 8.288970799813042 3.6816817944020457 0.648299034132548 0.06024968881967689 -0.18934709254068682
Ni 3.4733607799666624 4.486252974471513 9.449405787057419 -0.22651958782592604 -0.05240062508890331 -0.5993519148098839
Ni 7.216163528702083 6.017383974743389 11.517521264512567 1.0645002150204441 0.4544198580494626 -1.630153194915986
Ni 0.47429056042928897 -0.20331801985561426 0.23878724012675376 0.6967882399821871 1.7903475771521167 0.5384316822857437
Ni 4.611693119803102 0.4170244463399979 1.5301767604547865 -0.7809993247134678 -1.1755677578229367 0.16680700245664176
Ni 6.03648680964505 5.659011905818643 0.32643479867602887 -0.23563080609857484 -0.25392934729744654 0.9167386592310277
Ni 7.901150781901551 8.747817647210171 11.308476001898429 -0.07523459226428335 0.35824620163966686 0.07110257237378077
Ni -0.03230706072603916 4.731279752457081 5.818361837920665 1.3534994094378303 -0.3262539650037865 0.5462498927785817
Ni 7.952344214810819 8.830226807973382 2.6114666643443156 -0.49226135437726837 0.8380495327592407 0.08007932195109435
P 8.304547096260242 1.8191256278662804 3.5027338689299485 0.463310475670873 -0.9001007935640305 0.5057732728207741
P 1.8360097199040093 3.1818305946378618 1.479446918534161 -0.7405311893960924 0.8568280989183242 0.18356596708253548
P 4.726959517368368 1.0074445494243016 8.184706119912105 -0.42780611211667613 -0.4264660531490139 0.3158985899113914
P 8.4137525377094 1.5846153302845538 12.435110335659584 -0.04760346081057608 0.03046834379218623 -0.42171208340379635
P 6.534847122436031 7.791277913737228 1.357116620924051 -1.4366375728199063 -0.140472478327171 0.18862898342773965
P 1.9681331516671996 3.3178954517325088 5.861131263370939 -1.690694961054785 0.3973822484091801 1.0821348973830718
P 6.923181239303799 3.994927700029586 6.142674400028063 -0.8379921971587437 -0.08200070734352329 -0.699049525212538
P 2.366830421179919 8.439195926405143 10.402741872297563 1.0226079456620325 0.25535605244164405 -1.2234692094899058
